ligand
     RDKit          3D

 55 58  0  0  0  0  0  0  0  0999 V2000
   18.9090   19.1540    7.5370 C   0  0  0  0  0  0  0  0  0  0  0  0
   18.7730   17.6460    7.6780 C   0  0  0  0  0  0  0  0  0  0  0  0
   20.0560   16.9390    7.4130 C   0  0  0  0  0  0  0  0  0  0  0  0
   21.1710   16.8290    8.2200 C   0  0  0  0  0  0  0  0  0  0  0  0
   22.0520   16.0980    7.4760 N   0  0  0  0  0  0  0  0  0  0  0  0
   23.5070   15.4620    8.0230 S   0  0  0  0  0  6  0  0  0  0  0  0
   24.5270   16.4240    7.6510 O   0  0  0  0  0  0  0  0  0  0  0  0
   23.5370   14.0840    7.5760 O   0  0  0  0  0  0  0  0  0  0  0  0
   23.3370   15.4860    9.7880 C   0  0  0  0  0  0  0  0  0  0  0  0
   22.2260   14.8810   10.3870 C   0  0  0  0  0  0  0  0  0  0  0  0
   22.0690   14.8940   11.7850 C   0  0  0  0  0  0  0  0  0  0  0  0
   23.0570   15.5250   12.5670 C   0  0  0  0  0  0  0  0  0  0  0  0
   24.1550   16.1640   11.9600 C   0  0  0  0  0  0  0  0  0  0  0  0
   25.2380   16.8610   12.6920 C   0  0  0  0  0  0  0  0  0  0  0  0
   26.3640   16.8820   12.2080 O   0  0  0  0  0  0  0  0  0  0  0  0
   24.8890   17.5130   13.8440 N   0  0  0  0  0  0  0  0  0  0  0  0
   25.8760   18.1970   14.6640 C   0  0  2  0  0  0  0  0  0  0  0  0
   25.6710   17.9010   16.1470 C   0  0  0  0  0  0  0  0  0  0  0  0
   26.7120   18.6480   16.9640 C   0  0  0  0  0  0  0  0  0  0  0  0
   26.6710   20.1310   16.6780 C   0  0  0  0  0  0  0  0  0  0  0  0
   26.9330   20.9740   17.5310 O   0  0  0  0  0  0  0  0  0  0  0  0
   26.3590   20.5010   15.3950 N   0  0  0  0  0  0  0  0  0  0  0  0
   25.7790   19.7090   14.4330 C   0  0  0  0  0  0  0  0  0  0  0  0
   25.2430   20.2110   13.4460 O   0  0  0  0  0  0  0  0  0  0  0  0
   24.2950   16.1340   10.5650 C   0  0  0  0  0  0  0  0  0  0  0  0
   22.9570   15.4870   14.3350 S   0  0  0  0  0  6  0  0  0  0  0  0
   22.5490   16.8200   14.7360 O   0  0  0  0  0  0  0  0  0  0  0  0
   24.1800   14.8850   14.8250 O   0  0  0  0  0  0  0  0  0  0  0  0
   21.6320   14.3750   14.7140 C   0  0  0  0  0  0  0  0  0  0  0  0
   20.4730   14.5800   13.7630 C   0  0  0  0  0  0  0  0  0  0  0  0
   20.8670   14.1720   12.3490 C   0  0  0  0  0  0  0  0  0  0  0  0
   21.4630   15.7470    6.3040 C   0  0  0  0  0  0  0  0  0  0  0  0
   20.2490   16.2540    6.2300 N   0  0  0  0  0  0  0  0  0  0  0  0
   18.9504   19.6134    8.5356 H   0  0  0  0  0  0  0  0  0  0  0  0
   19.8320   19.3891    6.9867 H   0  0  0  0  0  0  0  0  0  0  0  0
   18.0430   19.5504    6.9867 H   0  0  0  0  0  0  0  0  0  0  0  0
   18.4455   17.4140    8.7022 H   0  0  0  0  0  0  0  0  0  0  0  0
   18.0380   17.3021    6.9354 H   0  0  0  0  0  0  0  0  0  0  0  0
   21.3162   17.2370    9.2311 H   0  0  0  0  0  0  0  0  0  0  0  0
   21.4681   14.3905    9.7584 H   0  0  0  0  0  0  0  0  0  0  0  0
   23.9017   17.5192   14.1375 H   0  0  0  0  0  0  0  0  0  0  0  0
   26.8714   17.8311   14.3720 H   0  0  0  0  0  0  0  0  0  0  0  0
   24.6650   18.2269   16.4498 H   0  0  0  0  0  0  0  0  0  0  0  0
   25.7758   16.8201   16.3219 H   0  0  0  0  0  0  0  0  0  0  0  0
   26.5143   18.4834   18.0335 H   0  0  0  0  0  0  0  0  0  0  0  0
   27.7074   18.2682   16.6902 H   0  0  0  0  0  0  0  0  0  0  0  0
   26.5817   21.4697   15.1251 H   0  0  0  0  0  0  0  0  0  0  0  0
   25.1577   16.6201   10.0861 H   0  0  0  0  0  0  0  0  0  0  0  0
   21.9930   13.3397   14.6254 H   0  0  0  0  0  0  0  0  0  0  0  0
   21.2870   14.5725   15.7397 H   0  0  0  0  0  0  0  0  0  0  0  0
   19.6210   13.9674   14.0928 H   0  0  0  0  0  0  0  0  0  0  0  0
   20.1959   15.6445   13.7628 H   0  0  0  0  0  0  0  0  0  0  0  0
   21.0882   13.0945   12.3544 H   0  0  0  0  0  0  0  0  0  0  0  0
   20.0174   14.4415   11.7044 H   0  0  0  0  0  0  0  0  0  0  0  0
   21.9329   15.1270    5.5263 H   0  0  0  0  0  0  0  0  0  0  0  0
  1  2  1  0
  2  3  1  0
  3  4  2  0
  4  5  1  0
  5  6  1  0
  6  7  2  0
  6  8  2  0
  6  9  1  0
  9 10  2  0
 10 11  1  0
 11 12  2  0
 12 13  1  0
 13 14  1  0
 14 15  2  0
 14 16  1  0
 16 17  1  0
 17 18  1  0
 18 19  1  0
 19 20  1  0
 20 21  2  0
 20 22  1  0
 22 23  1  0
 23 24  2  0
 13 25  2  0
 12 26  1  0
 26 27  2  0
 26 28  2  0
 26 29  1  0
 29 30  1  0
 30 31  1  0
  5 32  1  0
 32 33  2  0
 33  3  1  0
 25  9  1  0
 31 11  1  0
 23 17  1  0
  1 34  1  0
  1 35  1  0
  1 36  1  0
  2 37  1  0
  2 38  1  0
  4 39  1  0
 10 40  1  0
 16 41  1  0
 17 42  1  6
 18 43  1  0
 18 44  1  0
 19 45  1  0
 19 46  1  0
 22 47  1  0
 25 48  1  0
 29 49  1  0
 29 50  1  0
 30 51  1  0
 30 52  1  0
 31 53  1  0
 31 54  1  0
 32 55  1  0
M  END
>  <meeko>  (1) 
{"is_sidechain": [true], "free_energy": -12.74, "intermolecular_energy": 0.0, "internal_energy": -12.74, "cluster_size": 20, "cluster_id": 1, "rank_in_cluster": 1}

>  <_RMSD_MCS_to_ref>  (1) 
0.5966414333584283

$$$$
ligand
     RDKit          3D

 60 64  0  0  0  0  0  0  0  0999 V2000
   18.9090   19.1540    7.5370 C   0  0  0  0  0  0  0  0  0  0  0  0
   18.7730   17.6460    7.6780 C   0  0  0  0  0  0  0  0  0  0  0  0
   20.0760   16.9440    7.5200 C   0  0  0  0  0  0  0  0  0  0  0  0
   20.9050   16.4230    8.4930 C   0  0  0  0  0  0  0  0  0  0  0  0
   21.9700   15.9260    7.7970 N   0  0  0  0  0  0  0  0  0  0  0  0
   23.1970   14.9580    8.4180 S   0  0  0  0  0  6  0  0  0  0  0  0
   22.6360   13.6210    8.4350 O   0  0  0  0  0  0  0  0  0  0  0  0
   24.3970   15.3030    7.6870 O   0  0  0  0  0  0  0  0  0  0  0  0
   23.4020   15.5040   10.0940 C   0  0  0  0  0  0  0  0  0  0  0  0
   22.5470   15.0170   11.1020 C   0  0  0  0  0  0  0  0  0  0  0  0
   22.7410   15.4080   12.4350 C   0  0  0  0  0  0  0  0  0  0  0  0
   21.8820   14.8900   13.5180 C   0  0  0  0  0  0  0  0  0  0  0  0
   21.0850   15.6640   14.0390 O   0  0  0  0  0  0  0  0  0  0  0  0
   22.0360   13.5730   13.9010 N   0  0  0  0  0  0  0  0  0  0  0  0
   23.1370   12.6750   13.5700 C   0  0  0  0  0  0  0  0  0  0  0  0
   23.1090   11.6190   14.6680 C   0  0  0  0  0  0  0  0  0  0  0  0
   21.6340   11.5590   15.0430 C   0  0  0  0  0  0  0  0  0  0  0  0
   21.2120   13.0180   14.9620 C   0  0  0  0  0  0  0  0  0  0  0  0
   23.7350   16.3270   12.7240 C   0  0  0  0  0  0  0  0  0  0  0  0
   24.5570   16.8020   11.7050 C   0  0  0  0  0  0  0  0  0  0  0  0
   24.4280   16.4080   10.3870 C   0  0  0  0  0  0  0  0  0  0  0  0
   25.5370   17.7160   12.3030 C   0  0  0  0  0  0  0  0  0  0  0  0
   26.4560   18.2250   11.6940 O   0  0  0  0  0  0  0  0  0  0  0  0
   25.2130   17.8280   13.6450 N   0  0  0  0  0  0  0  0  0  0  0  0
   26.0750   18.4420   14.6500 C   0  0  2  0  0  0  0  0  0  0  0  0
   25.7120   18.0690   16.0870 C   0  0  0  0  0  0  0  0  0  0  0  0
   26.7070   18.7140   17.0400 C   0  0  0  0  0  0  0  0  0  0  0  0
   26.7520   20.2130   16.8550 C   0  0  0  0  0  0  0  0  0  0  0  0
   27.1190   20.9720   17.7480 O   0  0  0  0  0  0  0  0  0  0  0  0
   26.4380   20.6900   15.6070 N   0  0  0  0  0  0  0  0  0  0  0  0
   26.1070   19.9690   14.4830 C   0  0  0  0  0  0  0  0  0  0  0  0
   25.9490   20.5370   13.4030 O   0  0  0  0  0  0  0  0  0  0  0  0
   24.1370   16.9230   14.0300 C   0  0  0  0  0  0  0  0  0  0  0  0
   21.7640   16.1200    6.4690 C   0  0  0  0  0  0  0  0  0  0  0  0
   20.6100   16.7240    6.2650 N   0  0  0  0  0  0  0  0  0  0  0  0
   18.9504   19.6134    8.5356 H   0  0  0  0  0  0  0  0  0  0  0  0
   19.8320   19.3891    6.9867 H   0  0  0  0  0  0  0  0  0  0  0  0
   18.0430   19.5504    6.9867 H   0  0  0  0  0  0  0  0  0  0  0  0
   18.3676   17.4191    8.6751 H   0  0  0  0  0  0  0  0  0  0  0  0
   18.1017   17.2927    6.8814 H   0  0  0  0  0  0  0  0  0  0  0  0
   20.7445   16.4108    9.5812 H   0  0  0  0  0  0  0  0  0  0  0  0
   21.7274   14.3303   10.8438 H   0  0  0  0  0  0  0  0  0  0  0  0
   22.9804   12.2146   12.5833 H   0  0  0  0  0  0  0  0  0  0  0  0
   24.1030   13.1984   13.5167 H   0  0  0  0  0  0  0  0  0  0  0  0
   23.4618   10.6473   14.2920 H   0  0  0  0  0  0  0  0  0  0  0  0
   23.7645   11.8582   15.5183 H   0  0  0  0  0  0  0  0  0  0  0  0
   21.0678   10.9416   14.3301 H   0  0  0  0  0  0  0  0  0  0  0  0
   21.4509   11.1044   16.0278 H   0  0  0  0  0  0  0  0  0  0  0  0
   20.1445   13.1012   14.7100 H   0  0  0  0  0  0  0  0  0  0  0  0
   21.3450   13.5471   15.9172 H   0  0  0  0  0  0  0  0  0  0  0  0
   25.1012   16.7878    9.6043 H   0  0  0  0  0  0  0  0  0  0  0  0
   27.0802   18.0322   14.4720 H   0  0  0  0  0  0  0  0  0  0  0  0
   24.6980   18.4292   16.3152 H   0  0  0  0  0  0  0  0  0  0  0  0
   25.7452   16.9757   16.2037 H   0  0  0  0  0  0  0  0  0  0  0  0
   26.4092   18.4895   18.0748 H   0  0  0  0  0  0  0  0  0  0  0  0
   27.7065   18.3076   16.8257 H   0  0  0  0  0  0  0  0  0  0  0  0
   26.4519   21.7142   15.4985 H   0  0  0  0  0  0  0  0  0  0  0  0
   24.4968   16.1506   14.7257 H   0  0  0  0  0  0  0  0  0  0  0  0
   23.3109   17.4226   14.5572 H   0  0  0  0  0  0  0  0  0  0  0  0
   22.4619   15.8159    5.6750 H   0  0  0  0  0  0  0  0  0  0  0  0
  1  2  1  0
  2  3  1  0
  3  4  2  0
  4  5  1  0
  5  6  1  0
  6  7  2  0
  6  8  2  0
  6  9  1  0
  9 10  2  0
 10 11  1  0
 11 12  1  0
 12 13  2  0
 12 14  1  0
 14 15  1  0
 15 16  1  0
 16 17  1  0
 17 18  1  0
 11 19  2  0
 19 20  1  0
 20 21  2  0
 20 22  1  0
 22 23  2  0
 22 24  1  0
 24 25  1  0
 25 26  1  0
 26 27  1  0
 27 28  1  0
 28 29  2  0
 28 30  1  0
 30 31  1  0
 31 32  2  0
 24 33  1  0
  5 34  1  0
 34 35  2  0
 35  3  1  0
 21  9  1  0
 31 25  1  0
 18 14  1  0
 33 19  1  0
  1 36  1  0
  1 37  1  0
  1 38  1  0
  2 39  1  0
  2 40  1  0
  4 41  1  0
 10 42  1  0
 15 43  1  0
 15 44  1  0
 16 45  1  0
 16 46  1  0
 17 47  1  0
 17 48  1  0
 18 49  1  0
 18 50  1  0
 21 51  1  0
 25 52  1  6
 26 53  1  0
 26 54  1  0
 27 55  1  0
 27 56  1  0
 30 57  1  0
 33 58  1  0
 33 59  1  0
 34 60  1  0
M  END
>  <meeko>  (2) 
{"is_sidechain": [true], "free_energy": -12.71, "intermolecular_energy": 0.0, "internal_energy": -12.71, "cluster_size": 13, "cluster_id": 1, "rank_in_cluster": 1}

>  <_RMSD_MCS_to_ref>  (2) 
1.981488231383449

$$$$
ligand
     RDKit          3D

 60 64  0  0  0  0  0  0  0  0999 V2000
   18.9090   19.1530    7.5370 C   0  0  0  0  0  0  0  0  0  0  0  0
   18.7730   17.6470    7.6780 C   0  0  0  0  0  0  0  0  0  0  0  0
   20.0410   16.9300    7.3710 C   0  0  0  0  0  0  0  0  0  0  0  0
   20.7860   16.0990    8.1850 C   0  0  0  0  0  0  0  0  0  0  0  0
   21.8340   15.7110    7.3990 N   0  0  0  0  0  0  0  0  0  0  0  0
   23.0210   14.5910    7.7960 S   0  0  0  0  0  6  0  0  0  0  0  0
   23.8340   14.5070    6.5950 O   0  0  0  0  0  0  0  0  0  0  0  0
   22.3420   13.4250    8.3300 O   0  0  0  0  0  0  0  0  0  0  0  0
   24.0310   15.2710    9.0740 C   0  0  0  0  0  0  0  0  0  0  0  0
   25.2690   15.8110    8.6950 C   0  0  0  0  0  0  0  0  0  0  0  0
   26.1030   16.3530    9.6580 C   0  0  0  0  0  0  0  0  0  0  0  0
   25.6960   16.3450   10.9890 C   0  0  0  0  0  0  0  0  0  0  0  0
   24.4470   15.7940   11.3780 C   0  0  0  0  0  0  0  0  0  0  0  0
   23.9830   15.7520   12.7160 C   0  0  0  0  0  0  0  0  0  0  0  0
   24.8500   16.2830   13.7910 C   0  0  0  0  0  0  0  0  0  0  0  0
   25.2890   15.5430   14.6610 O   0  0  0  0  0  0  0  0  0  0  0  0
   25.0940   17.6320   13.7210 N   0  0  0  0  0  0  0  0  0  0  0  0
   26.0360   18.2830   14.6180 C   0  0  2  0  0  0  0  0  0  0  0  0
   25.7450   17.9690   16.0810 C   0  0  0  0  0  0  0  0  0  0  0  0
   26.7390   18.7060   16.9640 C   0  0  0  0  0  0  0  0  0  0  0  0
   26.7210   20.1920   16.6900 C   0  0  0  0  0  0  0  0  0  0  0  0
   26.9130   21.0270   17.5690 O   0  0  0  0  0  0  0  0  0  0  0  0
   26.5060   20.5750   15.3900 N   0  0  0  0  0  0  0  0  0  0  0  0
   25.9560   19.7970   14.4020 C   0  0  0  0  0  0  0  0  0  0  0  0
   25.4420   20.3010   13.4040 O   0  0  0  0  0  0  0  0  0  0  0  0
   22.7270   15.2260   13.0530 C   0  0  0  0  0  0  0  0  0  0  0  0
   21.9820   14.6970   12.0100 C   0  0  0  0  0  0  0  0  0  0  0  0
   22.4130   14.7060   10.7250 N   0  0  0  0  0  0  0  0  0  0  0  0
   23.6000   15.2440   10.3980 C   0  0  0  0  0  0  0  0  0  0  0  0
   20.5990   14.1370   12.2220 C   0  0  0  0  0  0  0  0  0  0  0  0
   20.3090   13.7810   13.6760 C   0  0  0  0  0  0  0  0  0  0  0  0
   20.7170   14.9330   14.5830 C   0  0  0  0  0  0  0  0  0  0  0  0
   22.2200   15.1910   14.4740 C   0  0  0  0  0  0  0  0  0  0  0  0
   21.6860   16.2560    6.1630 C   0  0  0  0  0  0  0  0  0  0  0  0
   20.6200   17.0280    6.1200 N   0  0  0  0  0  0  0  0  0  0  0  0
   18.9505   19.6125    8.5356 H   0  0  0  0  0  0  0  0  0  0  0  0
   19.8320   19.3879    6.9867 H   0  0  0  0  0  0  0  0  0  0  0  0
   18.0430   19.5494    6.9867 H   0  0  0  0  0  0  0  0  0  0  0  0
   18.4774   17.4145    8.7117 H   0  0  0  0  0  0  0  0  0  0  0  0
   18.0147   17.3103    6.9557 H   0  0  0  0  0  0  0  0  0  0  0  0
   20.5821   15.8146    9.2278 H   0  0  0  0  0  0  0  0  0  0  0  0
   25.5754   15.8038    7.6386 H   0  0  0  0  0  0  0  0  0  0  0  0
   27.0745   16.7843    9.3750 H   0  0  0  0  0  0  0  0  0  0  0  0
   26.3567   16.7751   11.7562 H   0  0  0  0  0  0  0  0  0  0  0  0
   24.5983   18.1967   13.0165 H   0  0  0  0  0  0  0  0  0  0  0  0
   27.0431   17.9041   14.3896 H   0  0  0  0  0  0  0  0  0  0  0  0
   24.7234   18.2925   16.3294 H   0  0  0  0  0  0  0  0  0  0  0  0
   25.8373   16.8859   16.2493 H   0  0  0  0  0  0  0  0  0  0  0  0
   26.4783   18.5330   18.0186 H   0  0  0  0  0  0  0  0  0  0  0  0
   27.7472   18.3249   16.7445 H   0  0  0  0  0  0  0  0  0  0  0  0
   26.7824   21.5332   15.1322 H   0  0  0  0  0  0  0  0  0  0  0  0
   19.8645   14.8868   11.8929 H   0  0  0  0  0  0  0  0  0  0  0  0
   20.5312   13.2067   11.6390 H   0  0  0  0  0  0  0  0  0  0  0  0
   19.2331   13.5858   13.7960 H   0  0  0  0  0  0  0  0  0  0  0  0
   20.8828   12.8835   13.9503 H   0  0  0  0  0  0  0  0  0  0  0  0
   20.1710   15.8401   14.2846 H   0  0  0  0  0  0  0  0  0  0  0  0
   20.4746   14.6709   15.6235 H   0  0  0  0  0  0  0  0  0  0  0  0
   22.4414   16.1597   14.9459 H   0  0  0  0  0  0  0  0  0  0  0  0
   22.7275   14.3543   14.9764 H   0  0  0  0  0  0  0  0  0  0  0  0
   22.3634   16.0769    5.3151 H   0  0  0  0  0  0  0  0  0  0  0  0
  1  2  1  0
  2  3  1  0
  3  4  2  0
  4  5  1  0
  5  6  1  0
  6  7  2  0
  6  8  2  0
  6  9  1  0
  9 10  2  0
 10 11  1  0
 11 12  2  0
 12 13  1  0
 13 14  2  0
 14 15  1  0
 15 16  2  0
 15 17  1  0
 17 18  1  0
 18 19  1  0
 19 20  1  0
 20 21  1  0
 21 22  2  0
 21 23  1  0
 23 24  1  0
 24 25  2  0
 14 26  1  0
 26 27  2  0
 27 28  1  0
 28 29  2  0
 27 30  1  0
 30 31  1  0
 31 32  1  0
 32 33  1  0
  5 34  1  0
 34 35  2  0
 35  3  1  0
 29  9  1  0
 29 13  1  0
 24 18  1  0
 33 26  1  0
  1 36  1  0
  1 37  1  0
  1 38  1  0
  2 39  1  0
  2 40  1  0
  4 41  1  0
 10 42  1  0
 11 43  1  0
 12 44  1  0
 17 45  1  0
 18 46  1  6
 19 47  1  0
 19 48  1  0
 20 49  1  0
 20 50  1  0
 23 51  1  0
 30 52  1  0
 30 53  1  0
 31 54  1  0
 31 55  1  0
 32 56  1  0
 32 57  1  0
 33 58  1  0
 33 59  1  0
 34 60  1  0
M  END
>  <meeko>  (3) 
{"is_sidechain": [true], "free_energy": -12.69, "intermolecular_energy": 0.0, "internal_energy": -12.69, "cluster_size": 10, "cluster_id": 1, "rank_in_cluster": 1}

>  <_RMSD_MCS_to_ref>  (3) 
0.6991213533190551

$$$$
ligand
     RDKit          3D

 60 64  0  0  0  0  0  0  0  0999 V2000
   18.9090   19.1540    7.5370 C   0  0  0  0  0  0  0  0  0  0  0  0
   18.7730   17.6460    7.6780 C   0  0  0  0  0  0  0  0  0  0  0  0
   20.0650   16.9450    7.4500 C   0  0  0  0  0  0  0  0  0  0  0  0
   20.7360   16.0690    8.2810 C   0  0  0  0  0  0  0  0  0  0  0  0
   21.8700   15.7550    7.5860 N   0  0  0  0  0  0  0  0  0  0  0  0
   23.0960   14.7360    8.1160 S   0  0  0  0  0  6  0  0  0  0  0  0
   22.3840   13.5910    8.6600 O   0  0  0  0  0  0  0  0  0  0  0  0
   24.0330   14.5890    7.0190 O   0  0  0  0  0  0  0  0  0  0  0  0
   23.9260   15.5270    9.4600 C   0  0  0  0  0  0  0  0  0  0  0  0
   25.1250   16.1970    9.1690 C   0  0  0  0  0  0  0  0  0  0  0  0
   25.8180   16.8310   10.1860 C   0  0  0  0  0  0  0  0  0  0  0  0
   25.3130   16.7880   11.4820 C   0  0  0  0  0  0  0  0  0  0  0  0
   24.1050   16.1060   11.7840 C   0  0  0  0  0  0  0  0  0  0  0  0
   23.5470   16.0150   13.0830 C   0  0  0  0  0  0  0  0  0  0  0  0
   24.2490   16.6280   14.2310 C   0  0  0  0  0  0  0  0  0  0  0  0
   24.7130   15.9320   15.1240 O   0  0  0  0  0  0  0  0  0  0  0  0
   24.3460   17.9970   14.1830 N   0  0  0  0  0  0  0  0  0  0  0  0
   24.9250   18.7590   15.2780 C   0  0  1  0  0  0  0  0  0  0  0  0
   26.0550   18.0030   15.9670 C   0  0  0  0  0  0  0  0  0  0  0  0
   26.6400   18.8650   17.0750 C   0  0  0  0  0  0  0  0  0  0  0  0
   27.0970   20.2040   16.5440 C   0  0  0  0  0  0  0  0  0  0  0  0
   28.0750   20.7920   16.9950 O   0  0  0  0  0  0  0  0  0  0  0  0
   26.3440   20.7560   15.5390 N   0  0  0  0  0  0  0  0  0  0  0  0
   25.4690   20.0800   14.7260 C   0  0  0  0  0  0  0  0  0  0  0  0
   25.1430   20.5270   13.6260 O   0  0  0  0  0  0  0  0  0  0  0  0
   22.3350   15.3520   13.3310 C   0  0  0  0  0  0  0  0  0  0  0  0
   21.7000   14.8000   12.2290 C   0  0  0  0  0  0  0  0  0  0  0  0
   22.2270   14.8540   10.9810 N   0  0  0  0  0  0  0  0  0  0  0  0
   23.3910   15.4800   10.7450 C   0  0  0  0  0  0  0  0  0  0  0  0
   20.4060   14.0370   12.3540 C   0  0  0  0  0  0  0  0  0  0  0  0
   19.6510   14.3430   13.6430 C   0  0  0  0  0  0  0  0  0  0  0  0
   20.5990   14.2590   14.8320 C   0  0  0  0  0  0  0  0  0  0  0  0
   21.7150   15.2960   14.7050 C   0  0  0  0  0  0  0  0  0  0  0  0
   21.8520   16.3940    6.3880 C   0  0  0  0  0  0  0  0  0  0  0  0
   20.7670   17.1350    6.2750 N   0  0  0  0  0  0  0  0  0  0  0  0
   18.9504   19.6134    8.5356 H   0  0  0  0  0  0  0  0  0  0  0  0
   19.8320   19.3891    6.9867 H   0  0  0  0  0  0  0  0  0  0  0  0
   18.0430   19.5504    6.9867 H   0  0  0  0  0  0  0  0  0  0  0  0
   18.4183   17.4150    8.6933 H   0  0  0  0  0  0  0  0  0  0  0  0
   18.0590   17.2972    6.9174 H   0  0  0  0  0  0  0  0  0  0  0  0
   20.4285   15.7075    9.2733 H   0  0  0  0  0  0  0  0  0  0  0  0
   25.5114   16.2180    8.1393 H   0  0  0  0  0  0  0  0  0  0  0  0
   26.7570   17.3626    9.9721 H   0  0  0  0  0  0  0  0  0  0  0  0
   25.8618   17.2935   12.2902 H   0  0  0  0  0  0  0  0  0  0  0  0
   24.0002   18.4963   13.3511 H   0  0  0  0  0  0  0  0  0  0  0  0
   24.1367   18.9367   16.0244 H   0  0  0  0  0  0  0  0  0  0  0  0
   25.6629   17.0695   16.3970 H   0  0  0  0  0  0  0  0  0  0  0  0
   26.8395   17.7674   15.2328 H   0  0  0  0  0  0  0  0  0  0  0  0
   25.8722   19.0280   17.8457 H   0  0  0  0  0  0  0  0  0  0  0  0
   27.5109   18.3432   17.4984 H   0  0  0  0  0  0  0  0  0  0  0  0
   26.4443   21.7687   15.3803 H   0  0  0  0  0  0  0  0  0  0  0  0
   19.7622   14.2982   11.5012 H   0  0  0  0  0  0  0  0  0  0  0  0
   20.6577   12.9663   12.3686 H   0  0  0  0  0  0  0  0  0  0  0  0
   19.2271   15.3564   13.5855 H   0  0  0  0  0  0  0  0  0  0  0  0
   18.8426   13.6083   13.7721 H   0  0  0  0  0  0  0  0  0  0  0  0
   20.0352   14.4463   15.7578 H   0  0  0  0  0  0  0  0  0  0  0  0
   21.0487   13.2554   14.8566 H   0  0  0  0  0  0  0  0  0  0  0  0
   21.2973   16.2865   14.9385 H   0  0  0  0  0  0  0  0  0  0  0  0
   22.5102   15.0010   15.4055 H   0  0  0  0  0  0  0  0  0  0  0  0
   22.6335   16.3058    5.6190 H   0  0  0  0  0  0  0  0  0  0  0  0
  1  2  1  0
  2  3  1  0
  3  4  2  0
  4  5  1  0
  5  6  1  0
  6  7  2  0
  6  8  2  0
  6  9  1  0
  9 10  2  0
 10 11  1  0
 11 12  2  0
 12 13  1  0
 13 14  2  0
 14 15  1  0
 15 16  2  0
 15 17  1  0
 17 18  1  0
 18 19  1  0
 19 20  1  0
 20 21  1  0
 21 22  2  0
 21 23  1  0
 23 24  1  0
 24 25  2  0
 14 26  1  0
 26 27  2  0
 27 28  1  0
 28 29  2  0
 27 30  1  0
 30 31  1  0
 31 32  1  0
 32 33  1  0
  5 34  1  0
 34 35  2  0
 35  3  1  0
 29  9  1  0
 29 13  1  0
 24 18  1  0
 33 26  1  0
  1 36  1  0
  1 37  1  0
  1 38  1  0
  2 39  1  0
  2 40  1  0
  4 41  1  0
 10 42  1  0
 11 43  1  0
 12 44  1  0
 17 45  1  0
 18 46  1  1
 19 47  1  0
 19 48  1  0
 20 49  1  0
 20 50  1  0
 23 51  1  0
 30 52  1  0
 30 53  1  0
 31 54  1  0
 31 55  1  0
 32 56  1  0
 32 57  1  0
 33 58  1  0
 33 59  1  0
 34 60  1  0
M  END
>  <meeko>  (4) 
{"is_sidechain": [true], "free_energy": -12.58, "intermolecular_energy": 0.0, "internal_energy": -12.58, "cluster_size": 15, "cluster_id": 1, "rank_in_cluster": 1}

>  <_RMSD_MCS_to_ref>  (4) 
0.6311512408994292

$$$$
ligand
     RDKit          3D

 57 61  0  0  0  0  0  0  0  0999 V2000
   18.9090   19.1540    7.5370 C   0  0  0  0  0  0  0  0  0  0  0  0
   18.7730   17.6460    7.6780 C   0  0  0  0  0  0  0  0  0  0  0  0
   20.0820   16.9490    7.5480 C   0  0  0  0  0  0  0  0  0  0  0  0
   20.8450   16.3460    8.5280 C   0  0  0  0  0  0  0  0  0  0  0  0
   21.9420   15.8830    7.8600 N   0  0  0  0  0  0  0  0  0  0  0  0
   23.1140   14.8540    8.4850 S   0  0  0  0  0  6  0  0  0  0  0  0
   24.3270   15.1180    7.7400 O   0  0  0  0  0  0  0  0  0  0  0  0
   22.5000   13.5410    8.5310 O   0  0  0  0  0  0  0  0  0  0  0  0
   23.3430   15.4290   10.1460 C   0  0  0  0  0  0  0  0  0  0  0  0
   22.4800   14.9730   11.1650 C   0  0  0  0  0  0  0  0  0  0  0  0
   22.6620   15.3980   12.4910 C   0  0  0  0  0  0  0  0  0  0  0  0
   21.7750   14.9390   13.5870 C   0  0  0  0  0  0  0  0  0  0  0  0
   21.1330   15.7710   14.2200 O   0  0  0  0  0  0  0  0  0  0  0  0
   21.7230   13.5840   13.8380 N   0  0  0  0  0  0  0  0  0  0  0  0
   22.8400   12.6370   13.8450 C   0  0  0  0  0  0  0  0  0  0  0  0
   21.9720   11.7600   14.7530 C   0  0  0  0  0  0  0  0  0  0  0  0
   21.1310   13.0040   15.0480 C   0  0  0  0  0  0  0  0  0  0  0  0
   23.6800   16.3030   12.7580 C   0  0  0  0  0  0  0  0  0  0  0  0
   24.5250   16.7260   11.7340 C   0  0  0  0  0  0  0  0  0  0  0  0
   24.3970   16.3020   10.4240 C   0  0  0  0  0  0  0  0  0  0  0  0
   25.5250   17.6310   12.3070 C   0  0  0  0  0  0  0  0  0  0  0  0
   26.4530   18.1040   11.6830 O   0  0  0  0  0  0  0  0  0  0  0  0
   25.2010   17.7900   13.6430 N   0  0  0  0  0  0  0  0  0  0  0  0
   26.0720   18.4130   14.6350 C   0  0  2  0  0  0  0  0  0  0  0  0
   25.7080   18.0700   16.0790 C   0  0  0  0  0  0  0  0  0  0  0  0
   26.7120   18.7200   17.0170 C   0  0  0  0  0  0  0  0  0  0  0  0
   26.7710   20.2150   16.8070 C   0  0  0  0  0  0  0  0  0  0  0  0
   27.1420   20.9860   17.6870 O   0  0  0  0  0  0  0  0  0  0  0  0
   26.4640   20.6740   15.5500 N   0  0  0  0  0  0  0  0  0  0  0  0
   26.1200   19.9370   14.4400 C   0  0  0  0  0  0  0  0  0  0  0  0
   25.9610   20.4880   13.3520 O   0  0  0  0  0  0  0  0  0  0  0  0
   24.0970   16.9280   14.0490 C   0  0  0  0  0  0  0  0  0  0  0  0
   21.8100   16.1620    6.5380 C   0  0  0  0  0  0  0  0  0  0  0  0
   20.6920   16.8190    6.3150 N   0  0  0  0  0  0  0  0  0  0  0  0
   18.9504   19.6134    8.5356 H   0  0  0  0  0  0  0  0  0  0  0  0
   19.8320   19.3891    6.9867 H   0  0  0  0  0  0  0  0  0  0  0  0
   18.0430   19.5504    6.9867 H   0  0  0  0  0  0  0  0  0  0  0  0
   18.3477   17.4195    8.6669 H   0  0  0  0  0  0  0  0  0  0  0  0
   18.1183   17.2888    6.8694 H   0  0  0  0  0  0  0  0  0  0  0  0
   20.6205   16.2586    9.6013 H   0  0  0  0  0  0  0  0  0  0  0  0
   21.6607   14.2813   10.9195 H   0  0  0  0  0  0  0  0  0  0  0  0
   23.0777   12.1954   12.8660 H   0  0  0  0  0  0  0  0  0  0  0  0
   23.8613   12.9372   14.1222 H   0  0  0  0  0  0  0  0  0  0  0  0
   21.4322   10.9553   14.2324 H   0  0  0  0  0  0  0  0  0  0  0  0
   22.4101   11.1553   15.5607 H   0  0  0  0  0  0  0  0  0  0  0  0
   20.0431   12.8482   15.0013 H   0  0  0  0  0  0  0  0  0  0  0  0
   21.1638   13.5168   16.0206 H   0  0  0  0  0  0  0  0  0  0  0  0
   25.0915   16.6361    9.6391 H   0  0  0  0  0  0  0  0  0  0  0  0
   27.0725   17.9895   14.4626 H   0  0  0  0  0  0  0  0  0  0  0  0
   24.6988   18.4459   16.3030 H   0  0  0  0  0  0  0  0  0  0  0  0
   25.7286   16.9787   16.2154 H   0  0  0  0  0  0  0  0  0  0  0  0
   26.4158   18.5155   18.0565 H   0  0  0  0  0  0  0  0  0  0  0  0
   27.7066   18.3001   16.8061 H   0  0  0  0  0  0  0  0  0  0  0  0
   26.4950   21.6956   15.4221 H   0  0  0  0  0  0  0  0  0  0  0  0
   24.4317   16.1666   14.7690 H   0  0  0  0  0  0  0  0  0  0  0  0
   23.2840   17.4680   14.5565 H   0  0  0  0  0  0  0  0  0  0  0  0
   22.5361   15.8785    5.7618 H   0  0  0  0  0  0  0  0  0  0  0  0
  1  2  1  0
  2  3  1  0
  3  4  2  0
  4  5  1  0
  5  6  1  0
  6  7  2  0
  6  8  2  0
  6  9  1  0
  9 10  2  0
 10 11  1  0
 11 12  1  0
 12 13  2  0
 12 14  1  0
 14 15  1  0
 15 16  1  0
 16 17  1  0
 11 18  2  0
 18 19  1  0
 19 20  2  0
 19 21  1  0
 21 22  2  0
 21 23  1  0
 23 24  1  0
 24 25  1  0
 25 26  1  0
 26 27  1  0
 27 28  2  0
 27 29  1  0
 29 30  1  0
 30 31  2  0
 23 32  1  0
  5 33  1  0
 33 34  2  0
 34  3  1  0
 20  9  1  0
 30 24  1  0
 17 14  1  0
 32 18  1  0
  1 35  1  0
  1 36  1  0
  1 37  1  0
  2 38  1  0
  2 39  1  0
  4 40  1  0
 10 41  1  0
 15 42  1  0
 15 43  1  0
 16 44  1  0
 16 45  1  0
 17 46  1  0
 17 47  1  0
 20 48  1  0
 24 49  1  6
 25 50  1  0
 25 51  1  0
 26 52  1  0
 26 53  1  0
 29 54  1  0
 32 55  1  0
 32 56  1  0
 33 57  1  0
M  END
>  <meeko>  (5) 
{"is_sidechain": [true], "free_energy": -12.48, "intermolecular_energy": 0.0, "internal_energy": -12.48, "cluster_size": 7, "cluster_id": 1, "rank_in_cluster": 1}

>  <_RMSD_MCS_to_ref>  (5) 
1.9861466881040444

$$$$
ligand
     RDKit          3D

 55 58  0  0  0  0  0  0  0  0999 V2000
   18.9090   19.1540    7.5370 C   0  0  0  0  0  0  0  0  0  0  0  0
   18.7730   17.6460    7.6780 C   0  0  0  0  0  0  0  0  0  0  0  0
   20.0660   16.9420    7.4620 C   0  0  0  0  0  0  0  0  0  0  0  0
   20.6830   15.9930    8.2530 C   0  0  0  0  0  0  0  0  0  0  0  0
   21.8240   15.6790    7.5730 N   0  0  0  0  0  0  0  0  0  0  0  0
   23.0750   14.7160    8.1420 S   0  0  0  0  0  6  0  0  0  0  0  0
   24.1530   14.8640    7.1840 O   0  0  0  0  0  0  0  0  0  0  0  0
   22.4550   13.4380    8.4340 O   0  0  0  0  0  0  0  0  0  0  0  0
   23.6470   15.4020    9.6970 C   0  0  0  0  0  0  0  0  0  0  0  0
   24.7510   16.2650    9.7010 C   0  0  0  0  0  0  0  0  0  0  0  0
   25.1870   16.8330   10.8950 C   0  0  0  0  0  0  0  0  0  0  0  0
   24.5370   16.5480   12.1000 C   0  0  0  0  0  0  0  0  0  0  0  0
   25.0920   17.2310   13.2940 C   0  0  0  0  0  0  0  0  0  0  0  0
   26.1780   16.8790   13.7360 O   0  0  0  0  0  0  0  0  0  0  0  0
   24.2990   18.1790   13.8870 N   0  0  0  0  0  0  0  0  0  0  0  0
   24.7560   18.9470   15.0340 C   0  0  1  0  0  0  0  0  0  0  0  0
   25.5910   18.0920   15.9820 C   0  0  0  0  0  0  0  0  0  0  0  0
   26.0590   18.9390   17.1540 C   0  0  0  0  0  0  0  0  0  0  0  0
   26.8200   20.1540   16.6810 C   0  0  0  0  0  0  0  0  0  0  0  0
   27.7390   20.6490   17.3280 O   0  0  0  0  0  0  0  0  0  0  0  0
   26.4080   20.7160   15.4990 N   0  0  0  0  0  0  0  0  0  0  0  0
   25.5960   20.1360   14.5540 C   0  0  0  0  0  0  0  0  0  0  0  0
   25.5460   20.5850   13.4100 O   0  0  0  0  0  0  0  0  0  0  0  0
   23.4230   15.6910   12.1010 C   0  0  0  0  0  0  0  0  0  0  0  0
   22.9680   15.0760   10.9070 C   0  0  0  0  0  0  0  0  0  0  0  0
   21.7690   14.1450   10.8780 C   0  0  0  0  0  0  0  0  0  0  0  0
   21.3700   13.5150   12.2060 C   0  0  0  0  0  0  0  0  0  0  0  0
   21.0790   14.5850   13.2290 C   0  0  0  0  0  0  0  0  0  0  0  0
   22.5630   15.4530   13.6360 S   0  0  0  0  0  6  0  0  0  0  0  0
   22.1780   16.7600   14.1240 O   0  0  0  0  0  0  0  0  0  0  0  0
   23.3990   14.5610   14.4200 O   0  0  0  0  0  0  0  0  0  0  0  0
   21.8910   16.4280    6.4410 C   0  0  0  0  0  0  0  0  0  0  0  0
   20.8380   17.2140    6.3490 N   0  0  0  0  0  0  0  0  0  0  0  0
   18.9504   19.6134    8.5356 H   0  0  0  0  0  0  0  0  0  0  0  0
   19.8320   19.3891    6.9867 H   0  0  0  0  0  0  0  0  0  0  0  0
   18.0430   19.5504    6.9867 H   0  0  0  0  0  0  0  0  0  0  0  0
   18.4095   17.4163    8.6905 H   0  0  0  0  0  0  0  0  0  0  0  0
   18.0666   17.2976    6.9102 H   0  0  0  0  0  0  0  0  0  0  0  0
   20.3343   15.5834    9.2125 H   0  0  0  0  0  0  0  0  0  0  0  0
   25.2734   16.4938    8.7604 H   0  0  0  0  0  0  0  0  0  0  0  0
   26.0517   17.5130   10.8905 H   0  0  0  0  0  0  0  0  0  0  0  0
   23.3559   18.3516   13.5107 H   0  0  0  0  0  0  0  0  0  0  0  0
   23.8693   19.3023   15.5795 H   0  0  0  0  0  0  0  0  0  0  0  0
   24.9807   17.2563   16.3549 H   0  0  0  0  0  0  0  0  0  0  0  0
   26.4656   17.6978   15.4439 H   0  0  0  0  0  0  0  0  0  0  0  0
   25.1825   19.2673   17.7319 H   0  0  0  0  0  0  0  0  0  0  0  0
   26.7294   18.3297   17.7780 H   0  0  0  0  0  0  0  0  0  0  0  0
   26.7413   21.6700   15.2996 H   0  0  0  0  0  0  0  0  0  0  0  0
   20.9074   14.7200   10.5078 H   0  0  0  0  0  0  0  0  0  0  0  0
   22.0662   13.3049   10.2331 H   0  0  0  0  0  0  0  0  0  0  0  0
   20.4703   12.8994   12.0594 H   0  0  0  0  0  0  0  0  0  0  0  0
   22.2000   12.8908   12.5686 H   0  0  0  0  0  0  0  0  0  0  0  0
   20.3446   15.2927   12.8169 H   0  0  0  0  0  0  0  0  0  0  0  0
   20.6754   14.1148   14.1379 H   0  0  0  0  0  0  0  0  0  0  0  0
   22.7083   16.3841    5.7061 H   0  0  0  0  0  0  0  0  0  0  0  0
  1  2  1  0
  2  3  1  0
  3  4  2  0
  4  5  1  0
  5  6  1  0
  6  7  2  0
  6  8  2  0
  6  9  1  0
  9 10  2  0
 10 11  1  0
 11 12  2  0
 12 13  1  0
 13 14  2  0
 13 15  1  0
 15 16  1  0
 16 17  1  0
 17 18  1  0
 18 19  1  0
 19 20  2  0
 19 21  1  0
 21 22  1  0
 22 23  2  0
 12 24  1  0
 24 25  2  0
 25 26  1  0
 26 27  1  0
 27 28  1  0
 28 29  1  0
 29 30  2  0
 29 31  2  0
  5 32  1  0
 32 33  2  0
 33  3  1  0
 25  9  1  0
 22 16  1  0
 29 24  1  0
  1 34  1  0
  1 35  1  0
  1 36  1  0
  2 37  1  0
  2 38  1  0
  4 39  1  0
 10 40  1  0
 11 41  1  0
 15 42  1  0
 16 43  1  1
 17 44  1  0
 17 45  1  0
 18 46  1  0
 18 47  1  0
 21 48  1  0
 26 49  1  0
 26 50  1  0
 27 51  1  0
 27 52  1  0
 28 53  1  0
 28 54  1  0
 32 55  1  0
M  END
>  <meeko>  (6) 
{"is_sidechain": [true], "free_energy": -12.37, "intermolecular_energy": 0.0, "internal_energy": -12.37, "cluster_size": 13, "cluster_id": 1, "rank_in_cluster": 1}

>  <_RMSD_MCS_to_ref>  (6) 
0.6491237683729248

$$$$
ligand
     RDKit          3D

 57 61  0  0  0  0  0  0  0  0999 V2000
   18.9090   19.1540    7.5370 C   0  0  0  0  0  0  0  0  0  0  0  0
   18.7730   17.6460    7.6780 C   0  0  0  0  0  0  0  0  0  0  0  0
   20.0620   16.9450    7.4380 C   0  0  0  0  0  0  0  0  0  0  0  0
   20.7400   16.0680    8.2630 C   0  0  0  0  0  0  0  0  0  0  0  0
   21.8670   15.7520    7.5580 N   0  0  0  0  0  0  0  0  0  0  0  0
   23.0990   14.7350    8.0800 S   0  0  0  0  0  6  0  0  0  0  0  0
   22.3940   13.5900    8.6330 O   0  0  0  0  0  0  0  0  0  0  0  0
   24.0280   14.5870    6.9750 O   0  0  0  0  0  0  0  0  0  0  0  0
   23.9410   15.5340    9.4130 C   0  0  0  0  0  0  0  0  0  0  0  0
   25.1380   16.2020    9.1120 C   0  0  0  0  0  0  0  0  0  0  0  0
   25.8440   16.8330   10.1220 C   0  0  0  0  0  0  0  0  0  0  0  0
   25.3540   16.7940   11.4240 C   0  0  0  0  0  0  0  0  0  0  0  0
   24.1440   16.1280   11.7400 C   0  0  0  0  0  0  0  0  0  0  0  0
   23.6040   16.0650   13.0500 C   0  0  0  0  0  0  0  0  0  0  0  0
   24.3080   16.6820   14.1930 C   0  0  0  0  0  0  0  0  0  0  0  0
   24.7290   15.9940   15.1120 O   0  0  0  0  0  0  0  0  0  0  0  0
   24.4500   18.0460   14.1200 N   0  0  0  0  0  0  0  0  0  0  0  0
   25.0010   18.8160   15.2240 C   0  0  1  0  0  0  0  0  0  0  0  0
   26.1300   18.0760   15.9310 C   0  0  0  0  0  0  0  0  0  0  0  0
   26.6840   18.9460   17.0480 C   0  0  0  0  0  0  0  0  0  0  0  0
   27.1300   20.2920   16.5250 C   0  0  0  0  0  0  0  0  0  0  0  0
   28.0900   20.8960   16.9950 O   0  0  0  0  0  0  0  0  0  0  0  0
   26.3870   20.8320   15.5060 N   0  0  0  0  0  0  0  0  0  0  0  0
   25.5350   20.1440   14.6790 C   0  0  0  0  0  0  0  0  0  0  0  0
   25.2210   20.5860   13.5750 O   0  0  0  0  0  0  0  0  0  0  0  0
   22.4180   15.3910   13.2780 C   0  0  0  0  0  0  0  0  0  0  0  0
   21.7970   14.8030   12.1980 C   0  0  0  0  0  0  0  0  0  0  0  0
   22.2570   14.8470   10.9400 N   0  0  0  0  0  0  0  0  0  0  0  0
   23.4160   15.4870   10.7010 C   0  0  0  0  0  0  0  0  0  0  0  0
   20.5780   14.0310   12.6150 C   0  0  0  0  0  0  0  0  0  0  0  0
   20.3200   14.6320   14.0000 C   0  0  0  0  0  0  0  0  0  0  0  0
   21.6870   15.0800   14.5440 C   0  0  0  0  0  0  0  0  0  0  0  0
   21.8410   16.3950    6.3610 C   0  0  0  0  0  0  0  0  0  0  0  0
   20.7540   17.1340    6.2570 N   0  0  0  0  0  0  0  0  0  0  0  0
   18.9504   19.6134    8.5356 H   0  0  0  0  0  0  0  0  0  0  0  0
   19.8320   19.3891    6.9867 H   0  0  0  0  0  0  0  0  0  0  0  0
   18.0430   19.5504    6.9867 H   0  0  0  0  0  0  0  0  0  0  0  0
   18.4272   17.4144    8.6962 H   0  0  0  0  0  0  0  0  0  0  0  0
   18.0518   17.2982    6.9237 H   0  0  0  0  0  0  0  0  0  0  0  0
   20.4412   15.7073    9.2583 H   0  0  0  0  0  0  0  0  0  0  0  0
   25.5135   16.2241    8.0783 H   0  0  0  0  0  0  0  0  0  0  0  0
   26.7831   17.3600    9.8976 H   0  0  0  0  0  0  0  0  0  0  0  0
   25.9190   17.2916   12.2260 H   0  0  0  0  0  0  0  0  0  0  0  0
   24.1590   18.5359   13.2620 H   0  0  0  0  0  0  0  0  0  0  0  0
   24.1992   18.9829   15.9584 H   0  0  0  0  0  0  0  0  0  0  0  0
   25.7443   17.1369   16.3545 H   0  0  0  0  0  0  0  0  0  0  0  0
   26.9297   17.8515   15.2098 H   0  0  0  0  0  0  0  0  0  0  0  0
   25.9014   19.0974   17.8061 H   0  0  0  0  0  0  0  0  0  0  0  0
   27.5556   18.4369   17.4852 H   0  0  0  0  0  0  0  0  0  0  0  0
   26.4768   21.8457   15.3473 H   0  0  0  0  0  0  0  0  0  0  0  0
   19.7334   14.2079   11.9328 H   0  0  0  0  0  0  0  0  0  0  0  0
   20.7056   12.9384   12.6084 H   0  0  0  0  0  0  0  0  0  0  0  0
   19.6420   15.4944   13.9196 H   0  0  0  0  0  0  0  0  0  0  0  0
   19.8466   13.8988   14.6696 H   0  0  0  0  0  0  0  0  0  0  0  0
   21.5938   15.9697   15.1842 H   0  0  0  0  0  0  0  0  0  0  0  0
   22.1853   14.3338   15.1804 H   0  0  0  0  0  0  0  0  0  0  0  0
   22.6182   16.3107    5.5871 H   0  0  0  0  0  0  0  0  0  0  0  0
  1  2  1  0
  2  3  1  0
  3  4  2  0
  4  5  1  0
  5  6  1  0
  6  7  2  0
  6  8  2  0
  6  9  1  0
  9 10  2  0
 10 11  1  0
 11 12  2  0
 12 13  1  0
 13 14  2  0
 14 15  1  0
 15 16  2  0
 15 17  1  0
 17 18  1  0
 18 19  1  0
 19 20  1  0
 20 21  1  0
 21 22  2  0
 21 23  1  0
 23 24  1  0
 24 25  2  0
 14 26  1  0
 26 27  2  0
 27 28  1  0
 28 29  2  0
 27 30  1  0
 30 31  1  0
 31 32  1  0
  5 33  1  0
 33 34  2  0
 34  3  1  0
 29  9  1  0
 29 13  1  0
 24 18  1  0
 32 26  1  0
  1 35  1  0
  1 36  1  0
  1 37  1  0
  2 38  1  0
  2 39  1  0
  4 40  1  0
 10 41  1  0
 11 42  1  0
 12 43  1  0
 17 44  1  0
 18 45  1  1
 19 46  1  0
 19 47  1  0
 20 48  1  0
 20 49  1  0
 23 50  1  0
 30 51  1  0
 30 52  1  0
 31 53  1  0
 31 54  1  0
 32 55  1  0
 32 56  1  0
 33 57  1  0
M  END
>  <meeko>  (7) 
{"is_sidechain": [true], "free_energy": -12.29, "intermolecular_energy": 0.0, "internal_energy": -12.29, "cluster_size": 5, "cluster_id": 1, "rank_in_cluster": 1}

>  <_RMSD_MCS_to_ref>  (7) 
0.6496728984650657

$$$$
ligand
     RDKit          3D

 57 61  0  0  0  0  0  0  0  0999 V2000
   18.9090   19.1540    7.5370 C   0  0  0  0  0  0  0  0  0  0  0  0
   18.7730   17.6460    7.6780 C   0  0  0  0  0  0  0  0  0  0  0  0
   20.0630   16.9410    7.4490 C   0  0  0  0  0  0  0  0  0  0  0  0
   20.5990   15.8690    8.1360 C   0  0  0  0  0  0  0  0  0  0  0  0
   21.7910   15.6350    7.5100 N   0  0  0  0  0  0  0  0  0  0  0  0
   22.8930   14.4330    7.9160 S   0  0  0  0  0  6  0  0  0  0  0  0
   22.1380   13.3340    8.4860 O   0  0  0  0  0  0  0  0  0  0  0  0
   23.6800   14.2600    6.7050 O   0  0  0  0  0  0  0  0  0  0  0  0
   23.9680   15.0820    9.1590 C   0  0  0  0  0  0  0  0  0  0  0  0
   25.2080   15.5900    8.7420 C   0  0  0  0  0  0  0  0  0  0  0  0
   26.0820   16.1180    9.6790 C   0  0  0  0  0  0  0  0  0  0  0  0
   25.7160   16.1340   11.0210 C   0  0  0  0  0  0  0  0  0  0  0  0
   24.4690   15.6170   11.4540 C   0  0  0  0  0  0  0  0  0  0  0  0
   24.0560   15.6050   12.8120 C   0  0  0  0  0  0  0  0  0  0  0  0
   24.9140   16.1730   13.8710 C   0  0  0  0  0  0  0  0  0  0  0  0
   25.3820   15.4580   14.7470 O   0  0  0  0  0  0  0  0  0  0  0  0
   25.1180   17.5290   13.7900 N   0  0  0  0  0  0  0  0  0  0  0  0
   26.0430   18.2160   14.6780 C   0  0  2  0  0  0  0  0  0  0  0  0
   25.7560   17.9190   16.1450 C   0  0  0  0  0  0  0  0  0  0  0  0
   26.7330   18.6940   17.0170 C   0  0  0  0  0  0  0  0  0  0  0  0
   26.6800   20.1740   16.7190 C   0  0  0  0  0  0  0  0  0  0  0  0
   26.8500   21.0270   17.5850 O   0  0  0  0  0  0  0  0  0  0  0  0
   26.4570   20.5310   15.4130 N   0  0  0  0  0  0  0  0  0  0  0  0
   25.9240   19.7250   14.4380 C   0  0  0  0  0  0  0  0  0  0  0  0
   25.3940   20.2020   13.4350 O   0  0  0  0  0  0  0  0  0  0  0  0
   22.8230   15.0820   13.1550 C   0  0  0  0  0  0  0  0  0  0  0  0
   22.0340   14.5840   12.1420 C   0  0  0  0  0  0  0  0  0  0  0  0
   22.3810   14.5600   10.8480 N   0  0  0  0  0  0  0  0  0  0  0  0
   23.5760   15.0710   10.4950 C   0  0  0  0  0  0  0  0  0  0  0  0
   20.6920   14.1410   12.6540 C   0  0  0  0  0  0  0  0  0  0  0  0
   20.9860   14.0210   14.1540 C   0  0  0  0  0  0  0  0  0  0  0  0
   22.1010   15.0330   14.4630 C   0  0  0  0  0  0  0  0  0  0  0  0
   21.9520   16.5360    6.5060 C   0  0  0  0  0  0  0  0  0  0  0  0
   20.9130   17.3440    6.4380 N   0  0  0  0  0  0  0  0  0  0  0  0
   18.9504   19.6134    8.5356 H   0  0  0  0  0  0  0  0  0  0  0  0
   19.8320   19.3891    6.9867 H   0  0  0  0  0  0  0  0  0  0  0  0
   18.0430   19.5504    6.9867 H   0  0  0  0  0  0  0  0  0  0  0  0
   18.4190   17.4158    8.6937 H   0  0  0  0  0  0  0  0  0  0  0  0
   18.0590   17.2989    6.9166 H   0  0  0  0  0  0  0  0  0  0  0  0
   20.1659   15.3282    8.9904 H   0  0  0  0  0  0  0  0  0  0  0  0
   25.4846   15.5692    7.6776 H   0  0  0  0  0  0  0  0  0  0  0  0
   27.0561   16.5207    9.3645 H   0  0  0  0  0  0  0  0  0  0  0  0
   26.4095   16.5572   11.7626 H   0  0  0  0  0  0  0  0  0  0  0  0
   24.6032   18.0729   13.0829 H   0  0  0  0  0  0  0  0  0  0  0  0
   27.0595   17.8582   14.4576 H   0  0  0  0  0  0  0  0  0  0  0  0
   24.7269   18.2233   16.3867 H   0  0  0  0  0  0  0  0  0  0  0  0
   25.8715   16.8411   16.3316 H   0  0  0  0  0  0  0  0  0  0  0  0
   26.4760   18.5319   18.0742 H   0  0  0  0  0  0  0  0  0  0  0  0
   27.7501   18.3332   16.8039 H   0  0  0  0  0  0  0  0  0  0  0  0
   26.7127   21.4905   15.1395 H   0  0  0  0  0  0  0  0  0  0  0  0
   19.9133   14.8913   12.4523 H   0  0  0  0  0  0  0  0  0  0  0  0
   20.3066   13.2216   12.1891 H   0  0  0  0  0  0  0  0  0  0  0  0
   20.0847   14.2587   14.7380 H   0  0  0  0  0  0  0  0  0  0  0  0
   21.2928   12.9983   14.4185 H   0  0  0  0  0  0  0  0  0  0  0  0
   21.6887   16.0166   14.7325 H   0  0  0  0  0  0  0  0  0  0  0  0
   22.7358   14.7567   15.3178 H   0  0  0  0  0  0  0  0  0  0  0  0
   22.8278   16.5844    5.8422 H   0  0  0  0  0  0  0  0  0  0  0  0
  1  2  1  0
  2  3  1  0
  3  4  2  0
  4  5  1  0
  5  6  1  0
  6  7  2  0
  6  8  2  0
  6  9  1  0
  9 10  2  0
 10 11  1  0
 11 12  2  0
 12 13  1  0
 13 14  2  0
 14 15  1  0
 15 16  2  0
 15 17  1  0
 17 18  1  0
 18 19  1  0
 19 20  1  0
 20 21  1  0
 21 22  2  0
 21 23  1  0
 23 24  1  0
 24 25  2  0
 14 26  1  0
 26 27  2  0
 27 28  1  0
 28 29  2  0
 27 30  1  0
 30 31  1  0
 31 32  1  0
  5 33  1  0
 33 34  2  0
 34  3  1  0
 29  9  1  0
 29 13  1  0
 24 18  1  0
 32 26  1  0
  1 35  1  0
  1 36  1  0
  1 37  1  0
  2 38  1  0
  2 39  1  0
  4 40  1  0
 10 41  1  0
 11 42  1  0
 12 43  1  0
 17 44  1  0
 18 45  1  6
 19 46  1  0
 19 47  1  0
 20 48  1  0
 20 49  1  0
 23 50  1  0
 30 51  1  0
 30 52  1  0
 31 53  1  0
 31 54  1  0
 32 55  1  0
 32 56  1  0
 33 57  1  0
M  END
>  <meeko>  (8) 
{"is_sidechain": [true], "free_energy": -12.13, "intermolecular_energy": 0.0, "internal_energy": -12.13, "cluster_size": 12, "cluster_id": 1, "rank_in_cluster": 1}

>  <_RMSD_MCS_to_ref>  (8) 
0.7219561101618293

$$$$
ligand
     RDKit          3D

 55 58  0  0  0  0  0  0  0  0999 V2000
   18.9090   19.1540    7.5370 C   0  0  0  0  0  0  0  0  0  0  0  0
   18.7730   17.6460    7.6780 C   0  0  0  0  0  0  0  0  0  0  0  0
   20.0830   16.9490    7.5550 C   0  0  0  0  0  0  0  0  0  0  0  0
   21.1880   17.0270    8.3800 C   0  0  0  0  0  0  0  0  0  0  0  0
   22.1030   16.2040    7.7910 N   0  0  0  0  0  0  0  0  0  0  0  0
   23.5600   15.7100    8.4650 S   0  0  0  0  0  6  0  0  0  0  0  0
   23.8370   14.4050    7.8950 O   0  0  0  0  0  0  0  0  0  0  0  0
   24.4700   16.8280    8.3280 O   0  0  0  0  0  0  0  0  0  0  0  0
   23.1760   15.5030   10.1840 C   0  0  0  0  0  0  0  0  0  0  0  0
   22.1720   14.6110   10.5750 C   0  0  0  0  0  0  0  0  0  0  0  0
   21.8530   14.4410   11.9360 C   0  0  0  0  0  0  0  0  0  0  0  0
   22.5660   15.1940   12.8920 C   0  0  0  0  0  0  0  0  0  0  0  0
   23.6000   16.0620   12.4980 C   0  0  0  0  0  0  0  0  0  0  0  0
   24.4120   16.8890   13.4220 C   0  0  0  0  0  0  0  0  0  0  0  0
   25.6230   16.7120   13.4710 O   0  0  0  0  0  0  0  0  0  0  0  0
   23.7330   17.7600   14.2320 N   0  0  0  0  0  0  0  0  0  0  0  0
   24.4280   18.6520   15.1460 C   0  0  1  0  0  0  0  0  0  0  0  0
   25.4790   17.9060   15.9630 C   0  0  0  0  0  0  0  0  0  0  0  0
   26.1890   18.8790   16.8900 C   0  0  0  0  0  0  0  0  0  0  0  0
   26.7930   20.0280   16.1180 C   0  0  0  0  0  0  0  0  0  0  0  0
   27.8290   20.5850   16.4690 O   0  0  0  0  0  0  0  0  0  0  0  0
   26.1040   20.4550   15.0110 N   0  0  0  0  0  0  0  0  0  0  0  0
   25.1090   19.7740   14.3520 C   0  0  0  0  0  0  0  0  0  0  0  0
   24.7880   20.0850   13.2060 O   0  0  0  0  0  0  0  0  0  0  0  0
   23.8980   16.2170   11.1370 C   0  0  0  0  0  0  0  0  0  0  0  0
   22.1360   15.0950   14.6080 S   0  0  0  0  0  6  0  0  0  0  0  0
   21.8220   16.4360   15.0530 O   0  0  0  0  0  0  0  0  0  0  0  0
   23.1860   14.3100   15.2320 O   0  0  0  0  0  0  0  0  0  0  0  0
   20.6390   14.1490   14.6710 C   0  0  0  0  0  0  0  0  0  0  0  0
   20.6970   12.9910   13.7000 C   0  0  0  0  0  0  0  0  0  0  0  0
   20.7180   13.4990   12.2650 C   0  0  0  0  0  0  0  0  0  0  0  0
   21.5460   15.6300    6.6930 C   0  0  0  0  0  0  0  0  0  0  0  0
   20.3180   16.0700    6.5160 N   0  0  0  0  0  0  0  0  0  0  0  0
   18.9504   19.6134    8.5356 H   0  0  0  0  0  0  0  0  0  0  0  0
   19.8320   19.3891    6.9867 H   0  0  0  0  0  0  0  0  0  0  0  0
   18.0430   19.5504    6.9867 H   0  0  0  0  0  0  0  0  0  0  0  0
   18.3427   17.4199    8.6648 H   0  0  0  0  0  0  0  0  0  0  0  0
   18.1227   17.2883    6.8661 H   0  0  0  0  0  0  0  0  0  0  0  0
   21.3038   17.6174    9.3009 H   0  0  0  0  0  0  0  0  0  0  0  0
   21.6263   14.0367    9.8119 H   0  0  0  0  0  0  0  0  0  0  0  0
   22.7040   17.7837   14.1927 H   0  0  0  0  0  0  0  0  0  0  0  0
   23.6849   19.0730   15.8393 H   0  0  0  0  0  0  0  0  0  0  0  0
   24.9901   17.1221   16.5600 H   0  0  0  0  0  0  0  0  0  0  0  0
   26.2124   17.4475   15.2834 H   0  0  0  0  0  0  0  0  0  0  0  0
   25.4644   19.2763   17.6161 H   0  0  0  0  0  0  0  0  0  0  0  0
   26.9991   18.3414   17.4045 H   0  0  0  0  0  0  0  0  0  0  0  0
   26.3584   21.3799   14.6359 H   0  0  0  0  0  0  0  0  0  0  0  0
   24.7001   16.9009   10.8226 H   0  0  0  0  0  0  0  0  0  0  0  0
   20.5010   13.7590   15.6902 H   0  0  0  0  0  0  0  0  0  0  0  0
   19.7971   14.8006   14.3943 H   0  0  0  0  0  0  0  0  0  0  0  0
   21.6082   12.4047   13.8898 H   0  0  0  0  0  0  0  0  0  0  0  0
   19.8053   12.3627   13.8420 H   0  0  0  0  0  0  0  0  0  0  0  0
   20.7924   12.6288   11.5963 H   0  0  0  0  0  0  0  0  0  0  0  0
   19.7914   14.0763   12.1303 H   0  0  0  0  0  0  0  0  0  0  0  0
   22.0504   14.8999    6.0429 H   0  0  0  0  0  0  0  0  0  0  0  0
  1  2  1  0
  2  3  1  0
  3  4  2  0
  4  5  1  0
  5  6  1  0
  6  7  2  0
  6  8  2  0
  6  9  1  0
  9 10  2  0
 10 11  1  0
 11 12  2  0
 12 13  1  0
 13 14  1  0
 14 15  2  0
 14 16  1  0
 16 17  1  0
 17 18  1  0
 18 19  1  0
 19 20  1  0
 20 21  2  0
 20 22  1  0
 22 23  1  0
 23 24  2  0
 13 25  2  0
 12 26  1  0
 26 27  2  0
 26 28  2  0
 26 29  1  0
 29 30  1  0
 30 31  1  0
  5 32  1  0
 32 33  2  0
 33  3  1  0
 25  9  1  0
 31 11  1  0
 23 17  1  0
  1 34  1  0
  1 35  1  0
  1 36  1  0
  2 37  1  0
  2 38  1  0
  4 39  1  0
 10 40  1  0
 16 41  1  0
 17 42  1  1
 18 43  1  0
 18 44  1  0
 19 45  1  0
 19 46  1  0
 22 47  1  0
 25 48  1  0
 29 49  1  0
 29 50  1  0
 30 51  1  0
 30 52  1  0
 31 53  1  0
 31 54  1  0
 32 55  1  0
M  END
>  <meeko>  (9) 
{"is_sidechain": [true], "free_energy": -12.04, "intermolecular_energy": 0.0, "internal_energy": -12.04, "cluster_size": 20, "cluster_id": 1, "rank_in_cluster": 1}

>  <_RMSD_MCS_to_ref>  (9) 
0.6029470218112958

$$$$
ligand
     RDKit          3D

 47 50  0  0  0  0  0  0  0  0999 V2000
   18.9090   19.1540    7.5370 C   0  0  0  0  0  0  0  0  0  0  0  0
   18.7730   17.6460    7.6780 C   0  0  0  0  0  0  0  0  0  0  0  0
   20.0340   16.9340    7.3350 C   0  0  0  0  0  0  0  0  0  0  0  0
   20.6560   15.9010    8.0090 C   0  0  0  0  0  0  0  0  0  0  0  0
   21.7690   15.6400    7.2660 N   0  0  0  0  0  0  0  0  0  0  0  0
   23.0490   14.6230    7.6850 S   0  0  0  0  0  6  0  0  0  0  0  0
   23.7300   14.4020    6.4190 O   0  0  0  0  0  0  0  0  0  0  0  0
   22.4410   13.5050    8.3820 O   0  0  0  0  0  0  0  0  0  0  0  0
   24.1050   15.4680    8.7510 C   0  0  0  0  0  0  0  0  0  0  0  0
   25.2630   15.9670    8.2850 C   0  0  0  0  0  0  0  0  0  0  0  0
   26.1210   16.6260    9.1410 N   0  0  0  0  0  0  0  0  0  0  0  0
   25.8830   16.8170   10.4920 C   0  0  0  0  0  0  0  0  0  0  0  0
   26.7010   17.4030   11.1950 O   0  0  0  0  0  0  0  0  0  0  0  0
   24.6430   16.2770   10.9660 C   0  0  0  0  0  0  0  0  0  0  0  0
   24.0040   16.2580   12.1930 C   0  0  0  0  0  0  0  0  0  0  0  0
   24.3710   16.8100   13.4980 C   0  0  0  0  0  0  0  0  0  0  0  0
   24.0010   16.2860   14.5470 O   0  0  0  0  0  0  0  0  0  0  0  0
   25.1620   17.9430   13.5100 N   0  0  0  0  0  0  0  0  0  0  0  0
   25.2710   18.7440   14.7190 C   0  0  1  0  0  0  0  0  0  0  0  0
   26.1600   18.0560   15.7480 C   0  0  0  0  0  0  0  0  0  0  0  0
   26.2720   18.9330   16.9860 C   0  0  0  0  0  0  0  0  0  0  0  0
   26.7720   20.3150   16.6350 C   0  0  0  0  0  0  0  0  0  0  0  0
   27.5180   20.9510   17.3740 O   0  0  0  0  0  0  0  0  0  0  0  0
   26.3360   20.8420   15.4470 N   0  0  0  0  0  0  0  0  0  0  0  0
   25.8810   20.1110   14.3740 C   0  0  0  0  0  0  0  0  0  0  0  0
   25.9780   20.5510   13.2290 O   0  0  0  0  0  0  0  0  0  0  0  0
   22.8130   15.5880   12.0310 N   0  0  0  0  0  0  0  0  0  0  0  0
   22.7050   15.1960   10.7730 N   0  0  0  0  0  0  0  0  0  0  0  0
   23.7910   15.6120   10.0930 N   0  0  0  0  0  0  0  0  0  0  0  0
   21.8100   16.4920    6.2100 C   0  0  0  0  0  0  0  0  0  0  0  0
   20.7670   17.2930    6.2200 N   0  0  0  0  0  0  0  0  0  0  0  0
   18.9504   19.6134    8.5356 H   0  0  0  0  0  0  0  0  0  0  0  0
   19.8320   19.3891    6.9867 H   0  0  0  0  0  0  0  0  0  0  0  0
   18.0430   19.5504    6.9867 H   0  0  0  0  0  0  0  0  0  0  0  0
   18.5046   17.4101    8.7183 H   0  0  0  0  0  0  0  0  0  0  0  0
   17.9939   17.3100    6.9779 H   0  0  0  0  0  0  0  0  0  0  0  0
   20.3284   15.4030    8.9335 H   0  0  0  0  0  0  0  0  0  0  0  0
   25.5259   15.8501    7.2233 H   0  0  0  0  0  0  0  0  0  0  0  0
   26.9968   17.0009    8.7494 H   0  0  0  0  0  0  0  0  0  0  0  0
   25.6753   18.2207   12.6613 H   0  0  0  0  0  0  0  0  0  0  0  0
   24.2635   18.8690   15.1425 H   0  0  0  0  0  0  0  0  0  0  0  0
   25.7196   17.0864   16.0237 H   0  0  0  0  0  0  0  0  0  0  0  0
   27.1605   17.8949   15.3201 H   0  0  0  0  0  0  0  0  0  0  0  0
   25.2809   19.0188   17.4555 H   0  0  0  0  0  0  0  0  0  0  0  0
   26.9905   18.4685   17.6773 H   0  0  0  0  0  0  0  0  0  0  0  0
   26.3502   21.8673   15.3499 H   0  0  0  0  0  0  0  0  0  0  0  0
   22.6057   16.5099    5.4507 H   0  0  0  0  0  0  0  0  0  0  0  0
  1  2  1  0
  2  3  1  0
  3  4  2  0
  4  5  1  0
  5  6  1  0
  6  7  2  0
  6  8  2  0
  6  9  1  0
  9 10  2  0
 10 11  1  0
 11 12  1  0
 12 13  2  0
 12 14  1  0
 14 15  2  0
 15 16  1  0
 16 17  2  0
 16 18  1  0
 18 19  1  0
 19 20  1  0
 20 21  1  0
 21 22  1  0
 22 23  2  0
 22 24  1  0
 24 25  1  0
 25 26  2  0
 15 27  1  0
 27 28  2  0
 28 29  1  0
  5 30  1  0
 30 31  2  0
 31  3  1  0
 29  9  1  0
 29 14  1  0
 25 19  1  0
  1 32  1  0
  1 33  1  0
  1 34  1  0
  2 35  1  0
  2 36  1  0
  4 37  1  0
 10 38  1  0
 11 39  1  0
 18 40  1  0
 19 41  1  1
 20 42  1  0
 20 43  1  0
 21 44  1  0
 21 45  1  0
 24 46  1  0
 30 47  1  0
M  END
>  <meeko>  (10) 
{"is_sidechain": [true], "free_energy": -11.95, "intermolecular_energy": 0.0, "internal_energy": -11.95, "cluster_size": 16, "cluster_id": 1, "rank_in_cluster": 1}

>  <_RMSD_MCS_to_ref>  (10) 
0.6945704507903511

$$$$
ligand
     RDKit          3D

 55 59  0  0  0  0  0  0  0  0999 V2000
   18.9090   19.1540    7.5370 C   0  0  0  0  0  0  0  0  0  0  0  0
   18.7730   17.6460    7.6780 C   0  0  0  0  0  0  0  0  0  0  0  0
   19.6950   16.9110    6.7700 C   0  0  0  0  0  0  0  0  0  0  0  0
   20.1750   15.6200    6.8790 C   0  0  0  0  0  0  0  0  0  0  0  0
   20.9630   15.4620    5.7760 N   0  0  0  0  0  0  0  0  0  0  0  0
   22.0020   14.1710    5.4900 S   0  0  0  0  0  6  0  0  0  0  0  0
   21.3000   12.9970    5.9750 O   0  0  0  0  0  0  0  0  0  0  0  0
   22.4400   14.3050    4.1140 O   0  0  0  0  0  0  0  0  0  0  0  0
   23.3770   14.5040    6.5530 C   0  0  0  0  0  0  0  0  0  0  0  0
   24.6780   14.3010    6.0900 C   0  0  0  0  0  0  0  0  0  0  0  0
   25.7500   14.5610    6.9390 C   0  0  0  0  0  0  0  0  0  0  0  0
   25.5200   15.0260    8.2380 C   0  0  0  0  0  0  0  0  0  0  0  0
   24.2150   15.2480    8.7140 C   0  0  0  0  0  0  0  0  0  0  0  0
   23.9810   15.7420   10.0810 C   0  0  0  0  0  0  0  0  0  0  0  0
   22.8450   15.3110   10.8200 C   0  0  0  0  0  0  0  0  0  0  0  0
   22.5960   15.7610   12.1240 C   0  0  0  0  0  0  0  0  0  0  0  0
   23.4990   16.6480   12.6670 C   0  0  0  0  0  0  0  0  0  0  0  0
   24.6090   17.0760   11.9660 C   0  0  0  0  0  0  0  0  0  0  0  0
   24.8790   16.6450   10.6800 C   0  0  0  0  0  0  0  0  0  0  0  0
   25.3500   17.9900   12.8310 C   0  0  0  0  0  0  0  0  0  0  0  0
   26.4000   18.5230   12.5260 O   0  0  0  0  0  0  0  0  0  0  0  0
   24.6340   18.1000   13.9930 N   0  0  0  0  0  0  0  0  0  0  0  0
   25.1360   18.8080   15.1600 C   0  0  1  0  0  0  0  0  0  0  0  0
   26.2510   18.0800   15.9070 C   0  0  0  0  0  0  0  0  0  0  0  0
   26.6600   18.9020   17.1200 C   0  0  0  0  0  0  0  0  0  0  0  0
   27.0780   20.2990   16.7230 C   0  0  0  0  0  0  0  0  0  0  0  0
   27.8820   20.9540   17.3780 O   0  0  0  0  0  0  0  0  0  0  0  0
   26.4670   20.8310   15.6140 N   0  0  0  0  0  0  0  0  0  0  0  0
   25.6060   20.2050   14.7410 C   0  0  0  0  0  0  0  0  0  0  0  0
   25.2170   20.7830   13.7280 O   0  0  0  0  0  0  0  0  0  0  0  0
   23.5350   17.2840   13.9820 C   0  0  0  0  0  0  0  0  0  0  0  0
   22.7280   17.0710   14.8650 O   0  0  0  0  0  0  0  0  0  0  0  0
   23.1430   14.9850    7.8480 C   0  0  0  0  0  0  0  0  0  0  0  0
   20.9800   16.6220    5.0700 C   0  0  0  0  0  0  0  0  0  0  0  0
   20.2150   17.5240    5.6470 N   0  0  0  0  0  0  0  0  0  0  0  0
   18.9504   19.6134    8.5356 H   0  0  0  0  0  0  0  0  0  0  0  0
   19.8320   19.3891    6.9867 H   0  0  0  0  0  0  0  0  0  0  0  0
   18.0430   19.5504    6.9867 H   0  0  0  0  0  0  0  0  0  0  0  0
   19.0007   17.3654    8.7169 H   0  0  0  0  0  0  0  0  0  0  0  0
   17.7427   17.3730    7.4062 H   0  0  0  0  0  0  0  0  0  0  0  0
   19.9691   14.8872    7.6731 H   0  0  0  0  0  0  0  0  0  0  0  0
   24.8541   13.9397    5.0661 H   0  0  0  0  0  0  0  0  0  0  0  0
   26.7800   14.4005    6.5877 H   0  0  0  0  0  0  0  0  0  0  0  0
   26.3762   15.2219    8.9002 H   0  0  0  0  0  0  0  0  0  0  0  0
   22.1417   14.6044   10.3551 H   0  0  0  0  0  0  0  0  0  0  0  0
   21.7164   15.4201   12.6898 H   0  0  0  0  0  0  0  0  0  0  0  0
   25.7703   16.9979   10.1406 H   0  0  0  0  0  0  0  0  0  0  0  0
   24.2984   18.8709   15.8702 H   0  0  0  0  0  0  0  0  0  0  0  0
   25.8910   17.0938   16.2353 H   0  0  0  0  0  0  0  0  0  0  0  0
   27.1166   17.9477   15.2413 H   0  0  0  0  0  0  0  0  0  0  0  0
   25.8079   18.9665   17.8126 H   0  0  0  0  0  0  0  0  0  0  0  0
   27.5168   18.4074   17.6008 H   0  0  0  0  0  0  0  0  0  0  0  0
   26.6787   21.8183   15.4107 H   0  0  0  0  0  0  0  0  0  0  0  0
   22.1113   15.1577    8.1882 H   0  0  0  0  0  0  0  0  0  0  0  0
   21.5530   16.7848    4.1453 H   0  0  0  0  0  0  0  0  0  0  0  0
  1  2  1  0
  2  3  1  0
  3  4  2  0
  4  5  1  0
  5  6  1  0
  6  7  2  0
  6  8  2  0
  6  9  1  0
  9 10  2  0
 10 11  1  0
 11 12  2  0
 12 13  1  0
 13 14  1  0
 14 15  2  0
 15 16  1  0
 16 17  2  0
 17 18  1  0
 18 19  2  0
 18 20  1  0
 20 21  2  0
 20 22  1  0
 22 23  1  0
 23 24  1  0
 24 25  1  0
 25 26  1  0
 26 27  2  0
 26 28  1  0
 28 29  1  0
 29 30  2  0
 22 31  1  0
 31 32  2  0
 13 33  2  0
  5 34  1  0
 34 35  2  0
 35  3  1  0
 33  9  1  0
 19 14  1  0
 29 23  1  0
 31 17  1  0
  1 36  1  0
  1 37  1  0
  1 38  1  0
  2 39  1  0
  2 40  1  0
  4 41  1  0
 10 42  1  0
 11 43  1  0
 12 44  1  0
 15 45  1  0
 16 46  1  0
 19 47  1  0
 23 48  1  1
 24 49  1  0
 24 50  1  0
 25 51  1  0
 25 52  1  0
 28 53  1  0
 33 54  1  0
 34 55  1  0
M  END
>  <meeko>  (11) 
{"is_sidechain": [true], "free_energy": -11.85, "intermolecular_energy": 0.0, "internal_energy": -11.85, "cluster_size": 17, "cluster_id": 1, "rank_in_cluster": 1}

>  <_RMSD_MCS_to_ref>  (11) 
0.8711436826319031

$$$$
ligand
     RDKit          3D

 48 51  0  0  0  0  0  0  0  0999 V2000
   18.9090   19.1540    7.5370 C   0  0  0  0  0  0  0  0  0  0  0  0
   18.7730   17.6460    7.6780 C   0  0  0  0  0  0  0  0  0  0  0  0
   20.0210   16.9310    7.2960 C   0  0  0  0  0  0  0  0  0  0  0  0
   20.8910   16.2140    8.0940 C   0  0  0  0  0  0  0  0  0  0  0  0
   21.8660   15.7960    7.2310 N   0  0  0  0  0  0  0  0  0  0  0  0
   23.1870   14.8360    7.6480 S   0  0  0  0  0  6  0  0  0  0  0  0
   23.9180   14.7180    6.3940 O   0  0  0  0  0  0  0  0  0  0  0  0
   22.6280   13.6470    8.2660 O   0  0  0  0  0  0  0  0  0  0  0  0
   24.1760   15.6680    8.7860 C   0  0  0  0  0  0  0  0  0  0  0  0
   25.3760   16.1320    8.3970 C   0  0  0  0  0  0  0  0  0  0  0  0
   26.1840   16.7790    9.3040 N   0  0  0  0  0  0  0  0  0  0  0  0
   25.8560   16.9910   10.6320 C   0  0  0  0  0  0  0  0  0  0  0  0
   26.6400   17.5670   11.3810 O   0  0  0  0  0  0  0  0  0  0  0  0
   24.5620   16.4920   11.0310 C   0  0  0  0  0  0  0  0  0  0  0  0
   23.8690   16.5120   12.2320 C   0  0  0  0  0  0  0  0  0  0  0  0
   24.1840   17.0660   13.5410 C   0  0  0  0  0  0  0  0  0  0  0  0
   23.7930   16.5170   14.5670 O   0  0  0  0  0  0  0  0  0  0  0  0
   24.9120   18.2250   13.5790 N   0  0  0  0  0  0  0  0  0  0  0  0
   25.2470   18.8860   14.8290 C   0  0  1  0  0  0  0  0  0  0  0  0
   26.2790   18.0840   15.6170 C   0  0  0  0  0  0  0  0  0  0  0  0
   26.6160   18.8140   16.9060 C   0  0  0  0  0  0  0  0  0  0  0  0
   27.0970   20.2190   16.6300 C   0  0  0  0  0  0  0  0  0  0  0  0
   27.9220   20.7840   17.3420 O   0  0  0  0  0  0  0  0  0  0  0  0
   26.5340   20.8610   15.5560 N   0  0  0  0  0  0  0  0  0  0  0  0
   25.7960   20.2890   14.5460 C   0  0  0  0  0  0  0  0  0  0  0  0
   25.5780   20.9070   13.5050 O   0  0  0  0  0  0  0  0  0  0  0  0
   22.6780   15.8160   11.9290 C   0  0  0  0  0  0  0  0  0  0  0  0
   22.6120   15.4130   10.6620 N   0  0  0  0  0  0  0  0  0  0  0  0
   23.7640   15.8290   10.0990 N   0  0  0  0  0  0  0  0  0  0  0  0
   21.5680   16.2230    5.9780 C   0  0  0  0  0  0  0  0  0  0  0  0
   20.4550   16.9290    5.9850 N   0  0  0  0  0  0  0  0  0  0  0  0
   18.9504   19.6134    8.5356 H   0  0  0  0  0  0  0  0  0  0  0  0
   19.8320   19.3891    6.9867 H   0  0  0  0  0  0  0  0  0  0  0  0
   18.0430   19.5504    6.9867 H   0  0  0  0  0  0  0  0  0  0  0  0
   18.5348   17.4081    8.7252 H   0  0  0  0  0  0  0  0  0  0  0  0
   17.9727   17.3142    7.0002 H   0  0  0  0  0  0  0  0  0  0  0  0
   20.8167   16.0232    9.1748 H   0  0  0  0  0  0  0  0  0  0  0  0
   25.7108   15.9952    7.3582 H   0  0  0  0  0  0  0  0  0  0  0  0
   27.0941   17.1291    8.9723 H   0  0  0  0  0  0  0  0  0  0  0  0
   25.2325   18.6417   12.6932 H   0  0  0  0  0  0  0  0  0  0  0  0
   24.3300   18.9603   15.4319 H   0  0  0  0  0  0  0  0  0  0  0  0
   25.8677   17.0919   15.8550 H   0  0  0  0  0  0  0  0  0  0  0  0
   27.1912   17.9693   15.0130 H   0  0  0  0  0  0  0  0  0  0  0  0
   25.7165   18.8605   17.5374 H   0  0  0  0  0  0  0  0  0  0  0  0
   27.4210   18.2649   17.4163 H   0  0  0  0  0  0  0  0  0  0  0  0
   26.6794   21.8792   15.5002 H   0  0  0  0  0  0  0  0  0  0  0  0
   21.8842   15.6259   12.6664 H   0  0  0  0  0  0  0  0  0  0  0  0
   22.1704   16.0100    5.0826 H   0  0  0  0  0  0  0  0  0  0  0  0
  1  2  1  0
  2  3  1  0
  3  4  2  0
  4  5  1  0
  5  6  1  0
  6  7  2  0
  6  8  2  0
  6  9  1  0
  9 10  2  0
 10 11  1  0
 11 12  1  0
 12 13  2  0
 12 14  1  0
 14 15  2  0
 15 16  1  0
 16 17  2  0
 16 18  1  0
 18 19  1  0
 19 20  1  0
 20 21  1  0
 21 22  1  0
 22 23  2  0
 22 24  1  0
 24 25  1  0
 25 26  2  0
 15 27  1  0
 27 28  2  0
 28 29  1  0
  5 30  1  0
 30 31  2  0
 31  3  1  0
 29  9  1  0
 29 14  1  0
 25 19  1  0
  1 32  1  0
  1 33  1  0
  1 34  1  0
  2 35  1  0
  2 36  1  0
  4 37  1  0
 10 38  1  0
 11 39  1  0
 18 40  1  0
 19 41  1  1
 20 42  1  0
 20 43  1  0
 21 44  1  0
 21 45  1  0
 24 46  1  0
 27 47  1  0
 30 48  1  0
M  END
>  <meeko>  (12) 
{"is_sidechain": [true], "free_energy": -11.82, "intermolecular_energy": 0.0, "internal_energy": -11.82, "cluster_size": 17, "cluster_id": 1, "rank_in_cluster": 1}

>  <_RMSD_MCS_to_ref>  (12) 
0.7376184650617147

$$$$
ligand
     RDKit          3D

 54 57  0  0  0  0  0  0  0  0999 V2000
   18.9090   19.1540    7.5370 C   0  0  0  0  0  0  0  0  0  0  0  0
   18.7730   17.6460    7.6780 C   0  0  0  0  0  0  0  0  0  0  0  0
   20.0920   16.9580    7.6390 C   0  0  0  0  0  0  0  0  0  0  0  0
   21.0000   16.7630    8.6610 C   0  0  0  0  0  0  0  0  0  0  0  0
   22.0220   16.0730    8.0740 N   0  0  0  0  0  0  0  0  0  0  0  0
   23.4770   15.6520    8.7960 S   0  0  0  0  0  6  0  0  0  0  0  0
   24.3590   16.7910    8.6120 O   0  0  0  0  0  0  0  0  0  0  0  0
   23.8030   14.3330    8.2830 O   0  0  0  0  0  0  0  0  0  0  0  0
   23.1280   15.4940   10.5240 C   0  0  0  0  0  0  0  0  0  0  0  0
   24.0460   15.9450   11.4480 C   0  0  0  0  0  0  0  0  0  0  0  0
   23.7150   15.7870   12.7930 C   0  0  0  0  0  0  0  0  0  0  0  0
   24.6690   16.3010   13.8120 C   0  0  0  0  0  0  0  0  0  0  0  0
   25.2400   15.5410   14.5810 O   0  0  0  0  0  0  0  0  0  0  0  0
   24.8610   17.6640   13.8090 N   0  0  0  0  0  0  0  0  0  0  0  0
   25.8770   18.2810   14.6520 C   0  0  2  0  0  0  0  0  0  0  0  0
   25.6610   17.9770   16.1310 C   0  0  0  0  0  0  0  0  0  0  0  0
   26.7290   18.6820   16.9540 C   0  0  0  0  0  0  0  0  0  0  0  0
   26.7430   20.1670   16.6800 C   0  0  0  0  0  0  0  0  0  0  0  0
   27.0260   20.9930   17.5420 O   0  0  0  0  0  0  0  0  0  0  0  0
   26.4530   20.5590   15.3970 N   0  0  0  0  0  0  0  0  0  0  0  0
   25.8300   19.7970   14.4410 C   0  0  0  0  0  0  0  0  0  0  0  0
   25.2820   20.3150   13.4680 O   0  0  0  0  0  0  0  0  0  0  0  0
   22.4930   15.1920   13.1660 C   0  0  0  0  0  0  0  0  0  0  0  0
   21.6340   14.7850   12.1370 C   0  0  0  0  0  0  0  0  0  0  0  0
   21.9440   14.9140   10.8260 N   0  0  0  0  0  0  0  0  0  0  0  0
   20.3150   14.1110   12.4220 C   0  0  0  0  0  0  0  0  0  0  0  0
   19.8130   14.3410   13.8430 C   0  0  0  0  0  0  0  0  0  0  0  0
   20.9320   14.0680   14.8370 C   0  0  0  0  0  0  0  0  0  0  0  0
   22.0920   15.0380   14.6160 C   0  0  0  0  0  0  0  0  0  0  0  0
   21.7450   15.9060    6.7540 C   0  0  0  0  0  0  0  0  0  0  0  0
   20.5680   16.4170    6.4600 N   0  0  0  0  0  0  0  0  0  0  0  0
   18.9504   19.6134    8.5356 H   0  0  0  0  0  0  0  0  0  0  0  0
   19.8320   19.3891    6.9867 H   0  0  0  0  0  0  0  0  0  0  0  0
   18.0430   19.5504    6.9867 H   0  0  0  0  0  0  0  0  0  0  0  0
   18.2847   17.4223    8.6380 H   0  0  0  0  0  0  0  0  0  0  0  0
   18.1750   17.2795    6.8306 H   0  0  0  0  0  0  0  0  0  0  0  0
   20.9187   17.0889    9.7085 H   0  0  0  0  0  0  0  0  0  0  0  0
   24.9948   16.4077   11.1388 H   0  0  0  0  0  0  0  0  0  0  0  0
   24.2776   18.2569   13.2016 H   0  0  0  0  0  0  0  0  0  0  0  0
   26.8557   17.8676   14.3668 H   0  0  0  0  0  0  0  0  0  0  0  0
   24.6667   18.3339   16.4375 H   0  0  0  0  0  0  0  0  0  0  0  0
   25.7274   16.8915   16.2961 H   0  0  0  0  0  0  0  0  0  0  0  0
   26.5251   18.5168   18.0222 H   0  0  0  0  0  0  0  0  0  0  0  0
   27.7099   18.2689   16.6761 H   0  0  0  0  0  0  0  0  0  0  0  0
   26.7287   21.5139   15.1267 H   0  0  0  0  0  0  0  0  0  0  0  0
   19.5644   14.5020   11.7193 H   0  0  0  0  0  0  0  0  0  0  0  0
   20.4708   13.0286   12.3035 H   0  0  0  0  0  0  0  0  0  0  0  0
   19.4784   15.3836   13.9475 H   0  0  0  0  0  0  0  0  0  0  0  0
   18.9737   13.6595   14.0458 H   0  0  0  0  0  0  0  0  0  0  0  0
   20.5462   14.1920   15.8596 H   0  0  0  0  0  0  0  0  0  0  0  0
   21.2949   13.0399   14.6909 H   0  0  0  0  0  0  0  0  0  0  0  0
   21.7962   16.0253   15.0005 H   0  0  0  0  0  0  0  0  0  0  0  0
   22.9618   14.6223   15.1458 H   0  0  0  0  0  0  0  0  0  0  0  0
   22.4117   15.4124    6.0316 H   0  0  0  0  0  0  0  0  0  0  0  0
  1  2  1  0
  2  3  1  0
  3  4  2  0
  4  5  1  0
  5  6  1  0
  6  7  2  0
  6  8  2  0
  6  9  1  0
  9 10  2  0
 10 11  1  0
 11 12  1  0
 12 13  2  0
 12 14  1  0
 14 15  1  0
 15 16  1  0
 16 17  1  0
 17 18  1  0
 18 19  2  0
 18 20  1  0
 20 21  1  0
 21 22  2  0
 11 23  2  0
 23 24  1  0
 24 25  2  0
 24 26  1  0
 26 27  1  0
 27 28  1  0
 28 29  1  0
  5 30  1  0
 30 31  2  0
 31  3  1  0
 25  9  1  0
 21 15  1  0
 29 23  1  0
  1 32  1  0
  1 33  1  0
  1 34  1  0
  2 35  1  0
  2 36  1  0
  4 37  1  0
 10 38  1  0
 14 39  1  0
 15 40  1  6
 16 41  1  0
 16 42  1  0
 17 43  1  0
 17 44  1  0
 20 45  1  0
 26 46  1  0
 26 47  1  0
 27 48  1  0
 27 49  1  0
 28 50  1  0
 28 51  1  0
 29 52  1  0
 29 53  1  0
 30 54  1  0
M  END
>  <meeko>  (13) 
{"is_sidechain": [true], "free_energy": -11.81, "intermolecular_energy": 0.0, "internal_energy": -11.81, "cluster_size": 19, "cluster_id": 1, "rank_in_cluster": 1}

>  <_RMSD_MCS_to_ref>  (13) 
0.6177162239518506

$$$$
ligand
     RDKit          3D

 56 60  0  0  0  0  0  0  0  0999 V2000
   18.9090   19.1540    7.5370 C   0  0  0  0  0  0  0  0  0  0  0  0
   18.7730   17.6460    7.6780 C   0  0  0  0  0  0  0  0  0  0  0  0
   20.0780   16.9490    7.5240 C   0  0  0  0  0  0  0  0  0  0  0  0
   20.6620   16.0070    8.3490 C   0  0  0  0  0  0  0  0  0  0  0  0
   21.8460   15.7120    7.7360 N   0  0  0  0  0  0  0  0  0  0  0  0
   23.1020   14.8090    8.3930 S   0  0  0  0  0  6  0  0  0  0  0  0
   22.6780   13.4240    8.3440 O   0  0  0  0  0  0  0  0  0  0  0  0
   24.3010   15.2840    7.7290 O   0  0  0  0  0  0  0  0  0  0  0  0
   23.1570   15.3130   10.0930 C   0  0  0  0  0  0  0  0  0  0  0  0
   24.1210   16.2360   10.5070 C   0  0  0  0  0  0  0  0  0  0  0  0
   24.1200   16.6070   11.8410 C   0  0  0  0  0  0  0  0  0  0  0  0
   23.1870   16.0750   12.7430 C   0  0  0  0  0  0  0  0  0  0  0  0
   22.2200   15.1470   12.3580 C   0  0  0  0  0  0  0  0  0  0  0  0
   21.2260   14.5670   13.2670 C   0  0  0  0  0  0  0  0  0  0  0  0
   21.6180   14.0160   14.4990 C   0  0  0  0  0  0  0  0  0  0  0  0
   20.6740   13.4920   15.3850 C   0  0  0  0  0  0  0  0  0  0  0  0
   19.3220   13.5140   15.0540 C   0  0  0  0  0  0  0  0  0  0  0  0
   18.9140   14.0560   13.8380 C   0  0  0  0  0  0  0  0  0  0  0  0
   19.8590   14.5810   12.9520 C   0  0  0  0  0  0  0  0  0  0  0  0
   22.2300   14.7640   11.0020 C   0  0  0  0  0  0  0  0  0  0  0  0
   23.4500   16.6990   14.0550 C   0  0  0  0  0  0  0  0  0  0  0  0
   22.8040   16.5440   15.0730 O   0  0  0  0  0  0  0  0  0  0  0  0
   24.5740   17.5030   13.9080 N   0  0  0  0  0  0  0  0  0  0  0  0
   24.9590   18.4710   14.9310 C   0  0  1  0  0  0  0  0  0  0  0  0
   25.9740   17.9060   15.9190 C   0  0  0  0  0  0  0  0  0  0  0  0
   26.2540   18.9410   17.0000 C   0  0  0  0  0  0  0  0  0  0  0  0
   26.7140   20.2480   16.3970 C   0  0  0  0  0  0  0  0  0  0  0  0
   27.5620   20.9550   16.9310 O   0  0  0  0  0  0  0  0  0  0  0  0
   26.1200   20.6220   15.2180 N   0  0  0  0  0  0  0  0  0  0  0  0
   25.5250   19.7650   14.3220 C   0  0  0  0  0  0  0  0  0  0  0  0
   25.4860   20.0450   13.1250 O   0  0  0  0  0  0  0  0  0  0  0  0
   25.0170   17.5840   12.5290 C   0  0  0  0  0  0  0  0  0  0  0  0
   21.9680   16.4680    6.6150 C   0  0  0  0  0  0  0  0  0  0  0  0
   20.9050   17.2280    6.4530 N   0  0  0  0  0  0  0  0  0  0  0  0
   18.9504   19.6134    8.5356 H   0  0  0  0  0  0  0  0  0  0  0  0
   19.8320   19.3891    6.9867 H   0  0  0  0  0  0  0  0  0  0  0  0
   18.0430   19.5504    6.9867 H   0  0  0  0  0  0  0  0  0  0  0  0
   18.3648   17.4184    8.6738 H   0  0  0  0  0  0  0  0  0  0  0  0
   18.1034   17.2906    6.8810 H   0  0  0  0  0  0  0  0  0  0  0  0
   20.2640   15.5899    9.2858 H   0  0  0  0  0  0  0  0  0  0  0  0
   24.8533   16.6523    9.7996 H   0  0  0  0  0  0  0  0  0  0  0  0
   22.6841   13.9971   14.7695 H   0  0  0  0  0  0  0  0  0  0  0  0
   20.9987   13.0621   16.3440 H   0  0  0  0  0  0  0  0  0  0  0  0
   18.5772   13.1039   15.7519 H   0  0  0  0  0  0  0  0  0  0  0  0
   17.8462   14.0710   13.5742 H   0  0  0  0  0  0  0  0  0  0  0  0
   19.5266   15.0106   11.9955 H   0  0  0  0  0  0  0  0  0  0  0  0
   21.5001   14.0221   10.6458 H   0  0  0  0  0  0  0  0  0  0  0  0
   24.0300   18.7029   15.4725 H   0  0  0  0  0  0  0  0  0  0  0  0
   25.5689   16.9932   16.3803 H   0  0  0  0  0  0  0  0  0  0  0  0
   26.9076   17.6638   15.3901 H   0  0  0  0  0  0  0  0  0  0  0  0
   25.3338   19.1158   17.5768 H   0  0  0  0  0  0  0  0  0  0  0  0
   27.0525   18.5573   17.6520 H   0  0  0  0  0  0  0  0  0  0  0  0
   26.1197   21.6254   14.9853 H   0  0  0  0  0  0  0  0  0  0  0  0
   24.8812   18.5990   12.1272 H   0  0  0  0  0  0  0  0  0  0  0  0
   26.0867   17.3626   12.3992 H   0  0  0  0  0  0  0  0  0  0  0  0
   22.8339   16.4484    5.9368 H   0  0  0  0  0  0  0  0  0  0  0  0
  1  2  1  0
  2  3  1  0
  3  4  2  0
  4  5  1  0
  5  6  1  0
  6  7  2  0
  6  8  2  0
  6  9  1  0
  9 10  2  0
 10 11  1  0
 11 12  2  0
 12 13  1  0
 13 14  1  0
 14 15  2  0
 15 16  1  0
 16 17  2  0
 17 18  1  0
 18 19  2  0
 13 20  2  0
 12 21  1  0
 21 22  2  0
 21 23  1  0
 23 24  1  0
 24 25  1  0
 25 26  1  0
 26 27  1  0
 27 28  2  0
 27 29  1  0
 29 30  1  0
 30 31  2  0
 23 32  1  0
  5 33  1  0
 33 34  2  0
 34  3  1  0
 20  9  1  0
 30 24  1  0
 32 11  1  0
 19 14  1  0
  1 35  1  0
  1 36  1  0
  1 37  1  0
  2 38  1  0
  2 39  1  0
  4 40  1  0
 10 41  1  0
 15 42  1  0
 16 43  1  0
 17 44  1  0
 18 45  1  0
 19 46  1  0
 20 47  1  0
 24 48  1  1
 25 49  1  0
 25 50  1  0
 26 51  1  0
 26 52  1  0
 29 53  1  0
 32 54  1  0
 32 55  1  0
 33 56  1  0
M  END
>  <meeko>  (14) 
{"is_sidechain": [true], "free_energy": -11.81, "intermolecular_energy": 0.0, "internal_energy": -11.81, "cluster_size": 19, "cluster_id": 1, "rank_in_cluster": 1}

>  <_RMSD_MCS_to_ref>  (14) 
0.9918516914225525

$$$$
ligand
     RDKit          3D

 53 57  0  0  0  0  0  0  0  0999 V2000
   18.9090   19.1540    7.5370 C   0  0  0  0  0  0  0  0  0  0  0  0
   18.7730   17.6460    7.6780 C   0  0  0  0  0  0  0  0  0  0  0  0
   20.0400   16.9360    7.3570 C   0  0  0  0  0  0  0  0  0  0  0  0
   21.1950   16.8310    8.1070 C   0  0  0  0  0  0  0  0  0  0  0  0
   22.0200   16.0560    7.3430 N   0  0  0  0  0  0  0  0  0  0  0  0
   23.6370   15.7530    7.6650 S   0  0  0  0  0  6  0  0  0  0  0  0
   24.2760   15.5530    6.3790 O   0  0  0  0  0  0  0  0  0  0  0  0
   24.0790   16.7450    8.6210 O   0  0  0  0  0  0  0  0  0  0  0  0
   23.7880   14.2080    8.4730 C   0  0  0  0  0  0  0  0  0  0  0  0
   23.9580   13.0790    7.7190 N   0  0  0  0  0  0  0  0  0  0  0  0
   23.9970   11.9420    8.4350 N   0  0  0  0  0  0  0  0  0  0  0  0
   23.8820   12.3630    9.6960 C   0  0  0  0  0  0  0  0  0  0  0  0
   23.7640   13.7650    9.7830 C   0  0  0  0  0  0  0  0  0  0  0  0
   23.5940   14.6140   10.9390 C   0  0  0  0  0  0  0  0  0  0  0  0
   22.4120   14.5140   11.7060 C   0  0  0  0  0  0  0  0  0  0  0  0
   22.2110   15.3350   12.8200 C   0  0  0  0  0  0  0  0  0  0  0  0
   23.2120   16.2350   13.1320 C   0  0  0  0  0  0  0  0  0  0  0  0
   24.3890   16.3410   12.3950 C   0  0  0  0  0  0  0  0  0  0  0  0
   24.5970   15.5320   11.2910 C   0  0  0  0  0  0  0  0  0  0  0  0
   25.2710   17.3950   12.9830 C   0  0  0  0  0  0  0  0  0  0  0  0
   24.4680   17.8890   14.0950 N   0  0  0  0  0  0  0  0  0  0  0  0
   24.9670   18.8010   15.1210 C   0  0  1  0  0  0  0  0  0  0  0  0
   25.9750   18.0950   16.0300 C   0  0  0  0  0  0  0  0  0  0  0  0
   26.3780   19.0200   17.1670 C   0  0  0  0  0  0  0  0  0  0  0  0
   26.9260   20.3240   16.6420 C   0  0  0  0  0  0  0  0  0  0  0  0
   27.8060   20.9510   17.2230 O   0  0  0  0  0  0  0  0  0  0  0  0
   26.3670   20.8010   15.4840 N   0  0  0  0  0  0  0  0  0  0  0  0
   25.5880   20.1030   14.5890 C   0  0  0  0  0  0  0  0  0  0  0  0
   25.4090   20.5470   13.4580 O   0  0  0  0  0  0  0  0  0  0  0  0
   23.2780   17.1950   14.2390 C   0  0  0  0  0  0  0  0  0  0  0  0
   22.4490   17.3050   15.1220 O   0  0  0  0  0  0  0  0  0  0  0  0
   21.3980   15.7540    6.1770 C   0  0  0  0  0  0  0  0  0  0  0  0
   20.1850   16.2650    6.1570 N   0  0  0  0  0  0  0  0  0  0  0  0
   18.9504   19.6134    8.5356 H   0  0  0  0  0  0  0  0  0  0  0  0
   19.8320   19.3891    6.9867 H   0  0  0  0  0  0  0  0  0  0  0  0
   18.0430   19.5504    6.9867 H   0  0  0  0  0  0  0  0  0  0  0  0
   18.4879   17.4112    8.7141 H   0  0  0  0  0  0  0  0  0  0  0  0
   18.0061   17.3077    6.9657 H   0  0  0  0  0  0  0  0  0  0  0  0
   21.4027   17.2708    9.0936 H   0  0  0  0  0  0  0  0  0  0  0  0
   24.0482   13.0986    6.6931 H   0  0  0  0  0  0  0  0  0  0  0  0
   23.8796   11.6926   10.5681 H   0  0  0  0  0  0  0  0  0  0  0  0
   21.6409   13.7820   11.4238 H   0  0  0  0  0  0  0  0  0  0  0  0
   21.2936   15.2671   13.4232 H   0  0  0  0  0  0  0  0  0  0  0  0
   25.5245   15.6063   10.7042 H   0  0  0  0  0  0  0  0  0  0  0  0
   26.2208   16.9675   13.3368 H   0  0  0  0  0  0  0  0  0  0  0  0
   25.5588   18.1781   12.2661 H   0  0  0  0  0  0  0  0  0  0  0  0
   24.0709   19.0980   15.6856 H   0  0  0  0  0  0  0  0  0  0  0  0
   25.5179   17.1843   16.4445 H   0  0  0  0  0  0  0  0  0  0  0  0
   26.8674   17.8280   15.4449 H   0  0  0  0  0  0  0  0  0  0  0  0
   25.4960   19.2268   17.7909 H   0  0  0  0  0  0  0  0  0  0  0  0
   27.1633   18.5248   17.7570 H   0  0  0  0  0  0  0  0  0  0  0  0
   26.5500   21.7894   15.2595 H   0  0  0  0  0  0  0  0  0  0  0  0
   21.8441   15.1648    5.3622 H   0  0  0  0  0  0  0  0  0  0  0  0
  1  2  1  0
  2  3  1  0
  3  4  2  0
  4  5  1  0
  5  6  1  0
  6  7  2  0
  6  8  2  0
  6  9  1  0
  9 10  1  0
 10 11  1  0
 11 12  2  0
 12 13  1  0
 13 14  1  0
 14 15  2  0
 15 16  1  0
 16 17  2  0
 17 18  1  0
 18 19  2  0
 18 20  1  0
 20 21  1  0
 21 22  1  0
 22 23  1  0
 23 24  1  0
 24 25  1  0
 25 26  2  0
 25 27  1  0
 27 28  1  0
 28 29  2  0
 21 30  1  0
 30 31  2  0
  5 32  1  0
 32 33  2  0
 33  3  1  0
 13  9  2  0
 19 14  1  0
 28 22  1  0
 30 17  1  0
  1 34  1  0
  1 35  1  0
  1 36  1  0
  2 37  1  0
  2 38  1  0
  4 39  1  0
 10 40  1  0
 12 41  1  0
 15 42  1  0
 16 43  1  0
 19 44  1  0
 20 45  1  0
 20 46  1  0
 22 47  1  1
 23 48  1  0
 23 49  1  0
 24 50  1  0
 24 51  1  0
 27 52  1  0
 32 53  1  0
M  END
>  <meeko>  (15) 
{"is_sidechain": [true], "free_energy": -11.77, "intermolecular_energy": 0.0, "internal_energy": -11.77, "cluster_size": 20, "cluster_id": 1, "rank_in_cluster": 1}

>  <_RMSD_MCS_to_ref>  (15) 
1.1941225276792626

$$$$
ligand
     RDKit          3D

 46 50  0  0  0  0  0  0  0  0999 V2000
   18.9090   19.1540    7.5370 C   0  0  0  0  0  0  0  0  0  0  0  0
   18.7730   17.6460    7.6780 C   0  0  0  0  0  0  0  0  0  0  0  0
   20.0500   16.9370    7.3920 C   0  0  0  0  0  0  0  0  0  0  0  0
   21.1000   16.6580    8.2450 C   0  0  0  0  0  0  0  0  0  0  0  0
   21.9850   15.9630    7.4700 N   0  0  0  0  0  0  0  0  0  0  0  0
   23.5650   15.5630    7.8990 S   0  0  0  0  0  6  0  0  0  0  0  0
   23.9430   14.5130    6.9720 O   0  0  0  0  0  0  0  0  0  0  0  0
   24.2690   16.8300    7.9400 O   0  0  0  0  0  0  0  0  0  0  0  0
   23.4780   14.9460    9.4050 O   0  0  0  0  0  0  0  0  0  0  0  0
   23.7330   15.6930   10.5280 C   0  0  0  0  0  0  0  0  0  0  0  0
   24.9370   16.3760   10.7890 C   0  0  0  0  0  0  0  0  0  0  0  0
   25.1050   17.1100   11.9730 C   0  0  0  0  0  0  0  0  0  0  0  0
   24.0520   17.1400   12.8600 C   0  0  0  0  0  0  0  0  0  0  0  0
   22.8800   16.4570   12.6140 C   0  0  0  0  0  0  0  0  0  0  0  0
   22.6890   15.7270   11.4590 C   0  0  0  0  0  0  0  0  0  0  0  0
   21.9630   16.5660   13.6440 O   0  0  0  0  0  0  0  0  0  0  0  0
   22.6570   17.3450   14.5790 C   0  0  0  0  0  0  0  0  0  0  0  0
   22.2000   17.6220   15.6800 O   0  0  0  0  0  0  0  0  0  0  0  0
   23.8900   17.7480   14.0870 N   0  0  0  0  0  0  0  0  0  0  0  0
   24.9180   18.4640   14.8490 C   0  0  1  0  0  0  0  0  0  0  0  0
   24.8360   18.3140   16.4170 C   0  0  0  0  0  0  0  0  0  0  0  0
   26.3890   18.4940   16.3470 C   0  0  1  0  0  0  0  0  0  0  0  0
   26.2740   17.6690   15.0280 C   0  0  0  0  0  0  0  0  0  0  0  0
   26.8480   19.9890   16.1230 C   0  0  0  0  0  0  0  0  0  0  0  0
   27.6680   20.6130   16.7900 O   0  0  0  0  0  0  0  0  0  0  0  0
   26.1930   20.5890   15.0650 N   0  0  0  0  0  0  0  0  0  0  0  0
   25.1550   19.9850   14.3780 C   0  0  0  0  0  0  0  0  0  0  0  0
   24.5100   20.6230   13.5470 O   0  0  0  0  0  0  0  0  0  0  0  0
   21.5160   15.9110    6.1980 C   0  0  0  0  0  0  0  0  0  0  0  0
   20.3270   16.4730    6.1210 N   0  0  0  0  0  0  0  0  0  0  0  0
   18.9504   19.6134    8.5356 H   0  0  0  0  0  0  0  0  0  0  0  0
   19.8320   19.3891    6.9867 H   0  0  0  0  0  0  0  0  0  0  0  0
   18.0430   19.5504    6.9867 H   0  0  0  0  0  0  0  0  0  0  0  0
   18.4613   17.4131    8.7069 H   0  0  0  0  0  0  0  0  0  0  0  0
   18.0260   17.3045    6.9463 H   0  0  0  0  0  0  0  0  0  0  0  0
   21.2006   16.9325    9.3054 H   0  0  0  0  0  0  0  0  0  0  0  0
   25.7557   16.3334   10.0555 H   0  0  0  0  0  0  0  0  0  0  0  0
   26.0440   17.6423   12.1851 H   0  0  0  0  0  0  0  0  0  0  0  0
   21.7469   15.1894   11.2760 H   0  0  0  0  0  0  0  0  0  0  0  0
   24.2908   19.1134   16.9402 H   0  0  0  0  0  0  0  0  0  0  0  0
   24.3425   17.4714   16.9235 H   0  0  0  0  0  0  0  0  0  0  0  0
   27.0674   18.2294   17.1715 H   0  0  0  0  0  0  0  0  0  0  0  0
   27.0463   17.8759   14.2725 H   0  0  0  0  0  0  0  0  0  0  0  0
   26.3472   16.5722   14.9871 H   0  0  0  0  0  0  0  0  0  0  0  0
   26.4916   21.5308   14.7738 H   0  0  0  0  0  0  0  0  0  0  0  0
   22.0534   15.4623    5.3496 H   0  0  0  0  0  0  0  0  0  0  0  0
  1  2  1  0
  2  3  1  0
  3  4  2  0
  4  5  1  0
  5  6  1  0
  6  7  2  0
  6  8  2  0
  6  9  1  0
  9 10  1  0
 10 11  1  0
 11 12  2  0
 12 13  1  0
 13 14  2  0
 14 15  1  0
 14 16  1  0
 16 17  1  0
 17 18  2  0
 17 19  1  0
 20 19  1  6
 20 21  1  0
 21 22  1  0
 22 23  1  0
 22 24  1  0
 24 25  2  0
 24 26  1  0
 26 27  1  0
 27 28  2  0
  5 29  1  0
 29 30  2  0
 30  3  1  0
 15 10  2  0
 23 20  1  0
 19 13  1  0
 27 20  1  0
  1 31  1  0
  1 32  1  0
  1 33  1  0
  2 34  1  0
  2 35  1  0
  4 36  1  0
 11 37  1  0
 12 38  1  0
 15 39  1  0
 21 40  1  0
 21 41  1  0
 22 42  1  1
 23 43  1  0
 23 44  1  0
 26 45  1  0
 29 46  1  0
M  END
>  <meeko>  (16) 
{"is_sidechain": [true], "free_energy": -11.76, "intermolecular_energy": 0.0, "internal_energy": -11.76, "cluster_size": 20, "cluster_id": 1, "rank_in_cluster": 1}

>  <_RMSD_MCS_to_ref>  (16) 
0.6793191035474017

$$$$
ligand
     RDKit          3D

 53 56  0  0  0  0  0  0  0  0999 V2000
   18.9090   19.1540    7.5370 C   0  0  0  0  0  0  0  0  0  0  0  0
   18.7730   17.6460    7.6780 C   0  0  0  0  0  0  0  0  0  0  0  0
   20.0940   16.9620    7.6970 C   0  0  0  0  0  0  0  0  0  0  0  0
   20.9880   16.8280    8.7420 C   0  0  0  0  0  0  0  0  0  0  0  0
   22.0320   16.1330    8.2040 N   0  0  0  0  0  0  0  0  0  0  0  0
   23.3250   15.4760    9.0510 S   0  0  0  0  0  6  0  0  0  0  0  0
   24.3940   16.4570    8.9860 O   0  0  0  0  0  0  0  0  0  0  0  0
   23.4850   14.1250    8.5480 O   0  0  0  0  0  0  0  0  0  0  0  0
   22.7350   15.3890   10.7200 C   0  0  0  0  0  0  0  0  0  0  0  0
   23.4960   16.0320   11.7120 C   0  0  0  0  0  0  0  0  0  0  0  0
   23.0980   15.9570   13.0470 C   0  0  0  0  0  0  0  0  0  0  0  0
   23.8690   16.6010   14.1460 C   0  0  0  0  0  0  0  0  0  0  0  0
   24.2110   15.9450   15.1220 O   0  0  0  0  0  0  0  0  0  0  0  0
   24.1350   17.9450   14.0120 N   0  0  0  0  0  0  0  0  0  0  0  0
   24.7530   18.6960   15.0980 C   0  0  1  0  0  0  0  0  0  0  0  0
   25.8950   17.9280   15.7550 C   0  0  0  0  0  0  0  0  0  0  0  0
   26.5210   18.7840   16.8450 C   0  0  0  0  0  0  0  0  0  0  0  0
   26.9780   20.1170   16.3020 C   0  0  0  0  0  0  0  0  0  0  0  0
   27.9670   20.7010   16.7370 O   0  0  0  0  0  0  0  0  0  0  0  0
   26.2130   20.6730   15.3090 N   0  0  0  0  0  0  0  0  0  0  0  0
   25.2980   20.0100   14.5300 C   0  0  0  0  0  0  0  0  0  0  0  0
   24.9340   20.4620   13.4440 O   0  0  0  0  0  0  0  0  0  0  0  0
   21.9640   15.2090   13.3800 C   0  0  0  0  0  0  0  0  0  0  0  0
   21.1930   14.5680   12.3900 C   0  0  0  0  0  0  0  0  0  0  0  0
   21.5470   14.7090   11.0360 C   0  0  0  0  0  0  0  0  0  0  0  0
   20.8050   14.0070   10.0290 N   0  0  0  0  0  0  0  0  0  0  0  0
   19.1960   13.6890   10.3400 S   0  0  0  0  0  6  0  0  0  0  0  0
   18.5060   14.9350   10.5670 O   0  0  0  0  0  0  0  0  0  0  0  0
   18.7270   12.7150    9.3900 O   0  0  0  0  0  0  0  0  0  0  0  0
   19.3880   12.9320   11.8080 N   0  0  0  0  0  0  0  0  0  0  0  0
   19.9790   13.7890   12.8350 C   0  0  0  0  0  0  0  0  0  0  0  0
   21.7480   15.8360    6.9090 C   0  0  0  0  0  0  0  0  0  0  0  0
   20.5780   16.3310    6.5670 N   0  0  0  0  0  0  0  0  0  0  0  0
   18.9504   19.6134    8.5356 H   0  0  0  0  0  0  0  0  0  0  0  0
   19.8320   19.3891    6.9867 H   0  0  0  0  0  0  0  0  0  0  0  0
   18.0430   19.5504    6.9867 H   0  0  0  0  0  0  0  0  0  0  0  0
   18.2457   17.4242    8.6175 H   0  0  0  0  0  0  0  0  0  0  0  0
   18.2129   17.2745    6.8072 H   0  0  0  0  0  0  0  0  0  0  0  0
   20.8823   17.1974    9.7727 H   0  0  0  0  0  0  0  0  0  0  0  0
   24.4018   16.5921   11.4366 H   0  0  0  0  0  0  0  0  0  0  0  0
   23.8944   18.4260   13.1335 H   0  0  0  0  0  0  0  0  0  0  0  0
   23.9881   18.8768   15.8676 H   0  0  0  0  0  0  0  0  0  0  0  0
   25.5056   16.9989   16.1968 H   0  0  0  0  0  0  0  0  0  0  0  0
   26.6554   17.6839   14.9986 H   0  0  0  0  0  0  0  0  0  0  0  0
   25.7772   18.9558   17.6370 H   0  0  0  0  0  0  0  0  0  0  0  0
   27.3979   18.2524   17.2429 H   0  0  0  0  0  0  0  0  0  0  0  0
   26.3363   21.6801   15.1316 H   0  0  0  0  0  0  0  0  0  0  0  0
   21.6682   15.1194   14.4357 H   0  0  0  0  0  0  0  0  0  0  0  0
   21.2480   13.7104    9.1477 H   0  0  0  0  0  0  0  0  0  0  0  0
   18.4632   12.6197   12.1369 H   0  0  0  0  0  0  0  0  0  0  0  0
   19.2132   14.5073   13.1631 H   0  0  0  0  0  0  0  0  0  0  0  0
   20.3193   13.1189   13.6382 H   0  0  0  0  0  0  0  0  0  0  0  0
   22.4050   15.2615    6.2395 H   0  0  0  0  0  0  0  0  0  0  0  0
  1  2  1  0
  2  3  1  0
  3  4  2  0
  4  5  1  0
  5  6  1  0
  6  7  2  0
  6  8  2  0
  6  9  1  0
  9 10  2  0
 10 11  1  0
 11 12  1  0
 12 13  2  0
 12 14  1  0
 14 15  1  0
 15 16  1  0
 16 17  1  0
 17 18  1  0
 18 19  2  0
 18 20  1  0
 20 21  1  0
 21 22  2  0
 11 23  2  0
 23 24  1  0
 24 25  2  0
 25 26  1  0
 26 27  1  0
 27 28  2  0
 27 29  2  0
 27 30  1  0
 30 31  1  0
  5 32  1  0
 32 33  2  0
 33  3  1  0
 25  9  1  0
 21 15  1  0
 31 24  1  0
  1 34  1  0
  1 35  1  0
  1 36  1  0
  2 37  1  0
  2 38  1  0
  4 39  1  0
 10 40  1  0
 14 41  1  0
 15 42  1  1
 16 43  1  0
 16 44  1  0
 17 45  1  0
 17 46  1  0
 20 47  1  0
 23 48  1  0
 26 49  1  0
 30 50  1  0
 31 51  1  0
 31 52  1  0
 32 53  1  0
M  END
>  <meeko>  (17) 
{"is_sidechain": [true], "free_energy": -11.75, "intermolecular_energy": 0.0, "internal_energy": -11.75, "cluster_size": 20, "cluster_id": 1, "rank_in_cluster": 1}

>  <_RMSD_MCS_to_ref>  (17) 
0.49680769809745234

$$$$
ligand
     RDKit          3D

 47 50  0  0  0  0  0  0  0  0999 V2000
   18.9090   19.1540    7.5370 C   0  0  0  0  0  0  0  0  0  0  0  0
   18.7730   17.6460    7.6780 C   0  0  0  0  0  0  0  0  0  0  0  0
   20.0580   16.9390    7.4210 C   0  0  0  0  0  0  0  0  0  0  0  0
   20.8620   16.2480    8.3060 C   0  0  0  0  0  0  0  0  0  0  0  0
   21.9080   15.8190    7.5420 N   0  0  0  0  0  0  0  0  0  0  0  0
   23.0950   14.7360    8.0280 S   0  0  0  0  0  6  0  0  0  0  0  0
   22.4130   13.6240    8.6550 O   0  0  0  0  0  0  0  0  0  0  0  0
   23.9730   14.5790    6.8830 O   0  0  0  0  0  0  0  0  0  0  0  0
   24.0000   15.6060    9.2650 C   0  0  0  0  0  0  0  0  0  0  0  0
   25.2440   16.1620    8.9680 C   0  0  0  0  0  0  0  0  0  0  0  0
   25.9260   16.8330    9.9720 C   0  0  0  0  0  0  0  0  0  0  0  0
   25.4880   17.0060   11.2350 N   0  0  0  0  0  0  0  0  0  0  0  0
   24.2670   16.4850   11.5120 C   0  0  0  0  0  0  0  0  0  0  0  0
   23.4750   16.4670   12.6920 C   0  0  0  0  0  0  0  0  0  0  0  0
   23.8000   17.0410   14.0030 C   0  0  0  0  0  0  0  0  0  0  0  0
   23.2770   16.7020   15.0600 O   0  0  0  0  0  0  0  0  0  0  0  0
   24.7580   18.0310   13.9410 N   0  0  0  0  0  0  0  0  0  0  0  0
   25.1090   18.8490   15.0850 C   0  0  1  0  0  0  0  0  0  0  0  0
   26.0540   18.1220   16.0370 C   0  0  0  0  0  0  0  0  0  0  0  0
   26.4000   19.0340   17.2040 C   0  0  0  0  0  0  0  0  0  0  0  0
   26.9860   20.3400   16.7230 C   0  0  0  0  0  0  0  0  0  0  0  0
   27.8370   20.9540   17.3600 O   0  0  0  0  0  0  0  0  0  0  0  0
   26.4950   20.8360   15.5420 N   0  0  0  0  0  0  0  0  0  0  0  0
   25.7810   20.1370   14.5990 C   0  0  0  0  0  0  0  0  0  0  0  0
   25.6850   20.5550   13.4460 O   0  0  0  0  0  0  0  0  0  0  0  0
   22.3050   15.8160   12.4830 N   0  0  0  0  0  0  0  0  0  0  0  0
   22.3630   15.4470   11.1920 N   0  0  0  0  0  0  0  0  0  0  0  0
   23.5230   15.8030   10.5620 C   0  0  0  0  0  0  0  0  0  0  0  0
   21.7120   16.2080    6.2560 C   0  0  0  0  0  0  0  0  0  0  0  0
   20.5950   16.8970    6.1500 N   0  0  0  0  0  0  0  0  0  0  0  0
   18.9504   19.6134    8.5356 H   0  0  0  0  0  0  0  0  0  0  0  0
   19.8320   19.3891    6.9867 H   0  0  0  0  0  0  0  0  0  0  0  0
   18.0430   19.5504    6.9867 H   0  0  0  0  0  0  0  0  0  0  0  0
   18.4395   17.4144    8.7003 H   0  0  0  0  0  0  0  0  0  0  0  0
   18.0427   17.3014    6.9311 H   0  0  0  0  0  0  0  0  0  0  0  0
   20.6970   16.0816    9.3807 H   0  0  0  0  0  0  0  0  0  0  0  0
   25.6747   16.0704    7.9600 H   0  0  0  0  0  0  0  0  0  0  0  0
   26.9069   17.2600    9.7161 H   0  0  0  0  0  0  0  0  0  0  0  0
   25.2428   18.1955   13.0473 H   0  0  0  0  0  0  0  0  0  0  0  0
   24.1826   19.0761   15.6329 H   0  0  0  0  0  0  0  0  0  0  0  0
   25.5648   17.2123   16.4153 H   0  0  0  0  0  0  0  0  0  0  0  0
   26.9746   17.8479   15.5009 H   0  0  0  0  0  0  0  0  0  0  0  0
   25.4862   19.2416   17.7800 H   0  0  0  0  0  0  0  0  0  0  0  0
   27.1481   18.5273   17.8314 H   0  0  0  0  0  0  0  0  0  0  0  0
   26.6797   21.8295   15.3427 H   0  0  0  0  0  0  0  0  0  0  0  0
   21.6009   14.9407   10.7190 H   0  0  0  0  0  0  0  0  0  0  0  0
   22.3905   15.9798    5.4208 H   0  0  0  0  0  0  0  0  0  0  0  0
  1  2  1  0
  2  3  1  0
  3  4  2  0
  4  5  1  0
  5  6  1  0
  6  7  2  0
  6  8  2  0
  6  9  1  0
  9 10  2  0
 10 11  1  0
 11 12  2  0
 12 13  1  0
 13 14  1  0
 14 15  1  0
 15 16  2  0
 15 17  1  0
 17 18  1  0
 18 19  1  0
 19 20  1  0
 20 21  1  0
 21 22  2  0
 21 23  1  0
 23 24  1  0
 24 25  2  0
 14 26  2  0
 26 27  1  0
 27 28  1  0
  5 29  1  0
 29 30  2  0
 30  3  1  0
 28  9  1  0
 28 13  2  0
 24 18  1  0
  1 31  1  0
  1 32  1  0
  1 33  1  0
  2 34  1  0
  2 35  1  0
  4 36  1  0
 10 37  1  0
 11 38  1  0
 17 39  1  0
 18 40  1  1
 19 41  1  0
 19 42  1  0
 20 43  1  0
 20 44  1  0
 23 45  1  0
 27 46  1  0
 29 47  1  0
M  END
>  <meeko>  (18) 
{"is_sidechain": [true], "free_energy": -11.75, "intermolecular_energy": 0.0, "internal_energy": -11.75, "cluster_size": 16, "cluster_id": 1, "rank_in_cluster": 1}

>  <_RMSD_MCS_to_ref>  (18) 
0.7134330927128185

$$$$
ligand
     RDKit          3D

 51 54  0  0  0  0  0  0  0  0999 V2000
   18.9090   19.1540    7.5370 C   0  0  0  0  0  0  0  0  0  0  0  0
   18.7730   17.6460    7.6780 C   0  0  0  0  0  0  0  0  0  0  0  0
   20.0480   16.9370    7.3810 C   0  0  0  0  0  0  0  0  0  0  0  0
   20.5320   15.7600    7.9150 C   0  0  0  0  0  0  0  0  0  0  0  0
   21.7230   15.5670    7.2770 N   0  0  0  0  0  0  0  0  0  0  0  0
   22.8760   14.4060    7.6670 S   0  0  0  0  0  6  0  0  0  0  0  0
   22.1490   13.3070    8.2700 O   0  0  0  0  0  0  0  0  0  0  0  0
   23.6760   14.2390    6.4670 O   0  0  0  0  0  0  0  0  0  0  0  0
   23.8510   15.1950    8.9180 C   0  0  0  0  0  0  0  0  0  0  0  0
   25.0400   15.8160    8.5090 C   0  0  0  0  0  0  0  0  0  0  0  0
   25.8650   16.4190    9.4520 C   0  0  0  0  0  0  0  0  0  0  0  0
   25.5070   16.4080   10.8010 C   0  0  0  0  0  0  0  0  0  0  0  0
   24.3150   15.8030   11.2270 C   0  0  0  0  0  0  0  0  0  0  0  0
   23.9080   15.7890   12.6460 C   0  0  0  0  0  0  0  0  0  0  0  0
   24.7630   16.3080   13.7520 C   0  0  0  0  0  0  0  0  0  0  0  0
   25.1920   15.5790   14.6380 O   0  0  0  0  0  0  0  0  0  0  0  0
   25.0620   17.6440   13.6630 N   0  0  0  0  0  0  0  0  0  0  0  0
   26.0100   18.2730   14.5730 C   0  0  2  0  0  0  0  0  0  0  0  0
   25.7120   17.9450   16.0320 C   0  0  0  0  0  0  0  0  0  0  0  0
   26.7120   18.6610   16.9270 C   0  0  0  0  0  0  0  0  0  0  0  0
   26.7110   20.1500   16.6720 C   0  0  0  0  0  0  0  0  0  0  0  0
   26.9240   20.9700   17.5600 O   0  0  0  0  0  0  0  0  0  0  0  0
   26.4910   20.5530   15.3790 N   0  0  0  0  0  0  0  0  0  0  0  0
   25.9410   19.7910   14.3790 C   0  0  0  0  0  0  0  0  0  0  0  0
   25.4370   20.3100   13.3840 O   0  0  0  0  0  0  0  0  0  0  0  0
   22.7530   15.2090   13.0110 C   0  0  0  0  0  0  0  0  0  0  0  0
   21.8460   14.6200   12.0110 C   0  0  0  0  0  0  0  0  0  0  0  0
   20.7750   14.1350   12.3550 O   0  0  0  0  0  0  0  0  0  0  0  0
   22.2610   14.6420   10.7120 N   0  0  0  0  0  0  0  0  0  0  0  0
   23.4710   15.2050   10.2690 C   0  0  0  0  0  0  0  0  0  0  0  0
   21.9530   16.6100    6.4380 C   0  0  0  0  0  0  0  0  0  0  0  0
   20.9460   17.4580    6.4710 N   0  0  0  0  0  0  0  0  0  0  0  0
   18.9504   19.6134    8.5356 H   0  0  0  0  0  0  0  0  0  0  0  0
   19.8320   19.3891    6.9867 H   0  0  0  0  0  0  0  0  0  0  0  0
   18.0430   19.5504    6.9867 H   0  0  0  0  0  0  0  0  0  0  0  0
   18.4695   17.4124    8.7092 H   0  0  0  0  0  0  0  0  0  0  0  0
   18.0197   17.3052    6.9525 H   0  0  0  0  0  0  0  0  0  0  0  0
   20.0645   15.1228    8.6802 H   0  0  0  0  0  0  0  0  0  0  0  0
   25.3192   15.8261    7.4451 H   0  0  0  0  0  0  0  0  0  0  0  0
   26.7997   16.9046    9.1349 H   0  0  0  0  0  0  0  0  0  0  0  0
   26.1693   16.8807   11.5412 H   0  0  0  0  0  0  0  0  0  0  0  0
   24.6062   18.2149   12.9369 H   0  0  0  0  0  0  0  0  0  0  0  0
   27.0132   17.8857   14.3416 H   0  0  0  0  0  0  0  0  0  0  0  0
   24.6933   18.2766   16.2817 H   0  0  0  0  0  0  0  0  0  0  0  0
   25.7925   16.8590   16.1876 H   0  0  0  0  0  0  0  0  0  0  0  0
   26.4467   18.4776   17.9787 H   0  0  0  0  0  0  0  0  0  0  0  0
   27.7166   18.2720   16.7048 H   0  0  0  0  0  0  0  0  0  0  0  0
   26.7638   21.5162   15.1366 H   0  0  0  0  0  0  0  0  0  0  0  0
   22.4794   15.1732   14.0758 H   0  0  0  0  0  0  0  0  0  0  0  0
   21.6444   14.2160   10.0054 H   0  0  0  0  0  0  0  0  0  0  0  0
   22.8538   16.7296    5.8181 H   0  0  0  0  0  0  0  0  0  0  0  0
  1  2  1  0
  2  3  1  0
  3  4  2  0
  4  5  1  0
  5  6  1  0
  6  7  2  0
  6  8  2  0
  6  9  1  0
  9 10  2  0
 10 11  1  0
 11 12  2  0
 12 13  1  0
 13 14  1  0
 14 15  1  0
 15 16  2  0
 15 17  1  0
 17 18  1  0
 18 19  1  0
 19 20  1  0
 20 21  1  0
 21 22  2  0
 21 23  1  0
 23 24  1  0
 24 25  2  0
 14 26  2  0
 26 27  1  0
 27 28  2  0
 27 29  1  0
 29 30  1  0
  5 31  1  0
 31 32  2  0
 32  3  1  0
 30  9  1  0
 30 13  2  0
 24 18  1  0
  1 33  1  0
  1 34  1  0
  1 35  1  0
  2 36  1  0
  2 37  1  0
  4 38  1  0
 10 39  1  0
 11 40  1  0
 12 41  1  0
 17 42  1  0
 18 43  1  6
 19 44  1  0
 19 45  1  0
 20 46  1  0
 20 47  1  0
 23 48  1  0
 26 49  1  0
 29 50  1  0
 31 51  1  0
M  END
>  <meeko>  (19) 
{"is_sidechain": [true], "free_energy": -11.75, "intermolecular_energy": 0.0, "internal_energy": -11.75, "cluster_size": 17, "cluster_id": 1, "rank_in_cluster": 1}

>  <_RMSD_MCS_to_ref>  (19) 
0.6756732445001308

$$$$
ligand
     RDKit          3D

 55 58  0  0  0  0  0  0  0  0999 V2000
   18.7970   18.8170    7.7190 C   0  0  0  0  0  0  0  0  0  0  0  0
   18.5280   17.3290    7.8810 C   0  0  0  0  0  0  0  0  0  0  0  0
   19.7810   16.5260    7.8450 C   0  0  0  0  0  0  0  0  0  0  0  0
   20.0840   15.3560    8.5120 C   0  0  0  0  0  0  0  0  0  0  0  0
   21.3520   15.0560    8.1040 N   0  0  0  0  0  0  0  0  0  0  0  0
   22.3300   13.8420    8.7270 S   0  0  0  0  0  6  0  0  0  0  0  0
   21.4260   12.7980    9.1640 O   0  0  0  0  0  0  0  0  0  0  0  0
   23.3480   13.6270    7.7170 O   0  0  0  0  0  0  0  0  0  0  0  0
   23.1520   14.4780   10.1890 C   0  0  0  0  0  0  0  0  0  0  0  0
   24.4370   15.0230   10.0710 C   0  0  0  0  0  0  0  0  0  0  0  0
   25.1010   15.4950   11.2000 C   0  0  0  0  0  0  0  0  0  0  0  0
   24.4970   15.4340   12.4600 C   0  0  0  0  0  0  0  0  0  0  0  0
   25.3160   15.9610   13.5810 C   0  0  0  0  0  0  0  0  0  0  0  0
   25.6750   15.1980   14.4700 O   0  0  0  0  0  0  0  0  0  0  0  0
   25.6930   17.2750   13.5040 N   0  0  0  0  0  0  0  0  0  0  0  0
   26.4560   17.9120   14.5660 C   0  0  2  0  0  0  0  0  0  0  0  0
   25.7980   17.7050   15.9270 C   0  0  0  0  0  0  0  0  0  0  0  0
   26.6180   18.4000   17.0000 C   0  0  0  0  0  0  0  0  0  0  0  0
   26.8030   19.8660   16.6860 C   0  0  0  0  0  0  0  0  0  0  0  0
   26.8890   20.7210   17.5620 O   0  0  0  0  0  0  0  0  0  0  0  0
   26.9090   20.2010   15.3600 N   0  0  0  0  0  0  0  0  0  0  0  0
   26.5740   19.4140   14.2840 C   0  0  0  0  0  0  0  0  0  0  0  0
   26.4110   19.9120   13.1710 O   0  0  0  0  0  0  0  0  0  0  0  0
   23.2130   14.8750   12.5880 C   0  0  0  0  0  0  0  0  0  0  0  0
   22.5000   14.4090   11.4550 C   0  0  0  0  0  0  0  0  0  0  0  0
   21.1130   13.7980   11.5610 C   0  0  0  0  0  0  0  0  0  0  0  0
   20.3210   14.1320   12.8190 C   0  0  0  0  0  0  0  0  0  0  0  0
   21.0900   13.7180   14.0500 C   0  0  0  0  0  0  0  0  0  0  0  0
   22.5410   14.7130   14.2220 S   0  0  0  0  0  6  0  0  0  0  0  0
   22.1200   16.0480   14.6090 O   0  0  0  0  0  0  0  0  0  0  0  0
   23.4910   13.9560   15.0110 O   0  0  0  0  0  0  0  0  0  0  0  0
   21.7870   16.0200    7.2520 C   0  0  0  0  0  0  0  0  0  0  0  0
   20.8560   16.9330    7.0780 N   0  0  0  0  0  0  0  0  0  0  0  0
   18.8815   19.2845    8.7111 H   0  0  0  0  0  0  0  0  0  0  0  0
   19.7359   18.9616    7.1643 H   0  0  0  0  0  0  0  0  0  0  0  0
   17.9682   19.2812    7.1643 H   0  0  0  0  0  0  0  0  0  0  0  0
   18.0274   17.1621    8.8462 H   0  0  0  0  0  0  0  0  0  0  0  0
   17.8946   17.0060    7.0417 H   0  0  0  0  0  0  0  0  0  0  0  0
   19.4489   14.7937    9.2123 H   0  0  0  0  0  0  0  0  0  0  0  0
   24.9220   15.0781    9.0852 H   0  0  0  0  0  0  0  0  0  0  0  0
   26.1106   15.9201   11.1001 H   0  0  0  0  0  0  0  0  0  0  0  0
   25.4300   17.8256   12.6742 H   0  0  0  0  0  0  0  0  0  0  0  0
   27.4542   17.4505   14.5911 H   0  0  0  0  0  0  0  0  0  0  0  0
   24.7826   18.1278   15.9109 H   0  0  0  0  0  0  0  0  0  0  0  0
   25.7451   16.6286   16.1474 H   0  0  0  0  0  0  0  0  0  0  0  0
   26.1003   18.3029   17.9657 H   0  0  0  0  0  0  0  0  0  0  0  0
   27.6097   17.9258   17.0407 H   0  0  0  0  0  0  0  0  0  0  0  0
   27.2777   21.1393   15.1488 H   0  0  0  0  0  0  0  0  0  0  0  0
   20.5281   14.1430   10.6956 H   0  0  0  0  0  0  0  0  0  0  0  0
   21.2743   12.7105   11.5968 H   0  0  0  0  0  0  0  0  0  0  0  0
   20.1367   15.2159   12.8542 H   0  0  0  0  0  0  0  0  0  0  0  0
   19.3659   13.5869   12.7947 H   0  0  0  0  0  0  0  0  0  0  0  0
   20.4530   13.8469   14.9375 H   0  0  0  0  0  0  0  0  0  0  0  0
   21.3860   12.6631   13.9521 H   0  0  0  0  0  0  0  0  0  0  0  0
   22.7780   16.0352    6.7748 H   0  0  0  0  0  0  0  0  0  0  0  0
  1  2  1  0
  2  3  1  0
  3  4  2  0
  4  5  1  0
  5  6  1  0
  6  7  2  0
  6  8  2  0
  6  9  1  0
  9 10  2  0
 10 11  1  0
 11 12  2  0
 12 13  1  0
 13 14  2  0
 13 15  1  0
 15 16  1  0
 16 17  1  0
 17 18  1  0
 18 19  1  0
 19 20  2  0
 19 21  1  0
 21 22  1  0
 22 23  2  0
 12 24  1  0
 24 25  2  0
 25 26  1  0
 26 27  1  0
 27 28  1  0
 28 29  1  0
 29 30  2  0
 29 31  2  0
  5 32  1  0
 32 33  2  0
 33  3  1  0
 25  9  1  0
 22 16  1  0
 29 24  1  0
  1 34  1  0
  1 35  1  0
  1 36  1  0
  2 37  1  0
  2 38  1  0
  4 39  1  0
 10 40  1  0
 11 41  1  0
 15 42  1  0
 16 43  1  1
 17 44  1  0
 17 45  1  0
 18 46  1  0
 18 47  1  0
 21 48  1  0
 26 49  1  0
 26 50  1  0
 27 51  1  0
 27 52  1  0
 28 53  1  0
 28 54  1  0
 32 55  1  0
M  END
>  <meeko>  (20) 
{"is_sidechain": [true], "free_energy": -11.71, "intermolecular_energy": 0.0, "internal_energy": -11.71, "cluster_size": 7, "cluster_id": 1, "rank_in_cluster": 1}

>  <_RMSD_MCS_to_ref>  (20) 
0.9849389151955908

$$$$
ligand
     RDKit          3D

 57 61  0  0  0  0  0  0  0  0999 V2000
   18.9090   19.1540    7.5370 C   0  0  0  0  0  0  0  0  0  0  0  0
   18.7730   17.6460    7.6780 C   0  0  0  0  0  0  0  0  0  0  0  0
   19.9950   16.9270    7.2260 C   0  0  0  0  0  0  0  0  0  0  0  0
   21.2280   16.8380    7.8420 C   0  0  0  0  0  0  0  0  0  0  0  0
   21.9740   16.0760    6.9890 N   0  0  0  0  0  0  0  0  0  0  0  0
   23.5020   15.4540    7.3090 S   0  0  0  0  0  6  0  0  0  0  0  0
   23.5010   14.1010    6.7890 O   0  0  0  0  0  0  0  0  0  0  0  0
   24.4400   16.4610    6.8510 O   0  0  0  0  0  0  0  0  0  0  0  0
   23.5620   15.3860    9.0760 C   0  0  0  0  0  0  0  0  0  0  0  0
   24.6160   15.9860    9.7580 C   0  0  0  0  0  0  0  0  0  0  0  0
   24.6450   15.9170   11.1490 C   0  0  0  0  0  0  0  0  0  0  0  0
   23.6280   15.2470   11.8750 C   0  0  0  0  0  0  0  0  0  0  0  0
   23.5920   15.1310   13.2870 C   0  0  0  0  0  0  0  0  0  0  0  0
   24.6490   15.7340   14.1290 C   0  0  0  0  0  0  0  0  0  0  0  0
   25.4240   15.0320   14.7640 O   0  0  0  0  0  0  0  0  0  0  0  0
   24.6770   17.1080   14.1400 N   0  0  0  0  0  0  0  0  0  0  0  0
   25.7370   17.8460   14.8070 C   0  0  2  0  0  0  0  0  0  0  0  0
   25.6280   17.7600   16.3250 C   0  0  0  0  0  0  0  0  0  0  0  0
   26.7420   18.5790   16.9590 C   0  0  0  0  0  0  0  0  0  0  0  0
   26.7200   20.0080   16.4690 C   0  0  0  0  0  0  0  0  0  0  0  0
   27.0370   20.9540   17.1820 O   0  0  0  0  0  0  0  0  0  0  0  0
   26.3500   20.2050   15.1620 N   0  0  0  0  0  0  0  0  0  0  0  0
   25.6570   19.3140   14.3800 C   0  0  0  0  0  0  0  0  0  0  0  0
   25.0230   19.6900   13.3950 O   0  0  0  0  0  0  0  0  0  0  0  0
   22.5410   14.4640   13.8920 C   0  0  0  0  0  0  0  0  0  0  0  0
   21.5710   13.9050   13.0820 C   0  0  0  0  0  0  0  0  0  0  0  0
   21.5660   13.9610   11.7420 N   0  0  0  0  0  0  0  0  0  0  0  0
   22.5720   14.6290   11.1550 C   0  0  0  0  0  0  0  0  0  0  0  0
   22.5610   14.7040    9.7710 C   0  0  0  0  0  0  0  0  0  0  0  0
   20.5230   13.1980   13.8940 C   0  0  0  0  0  0  0  0  0  0  0  0
   20.7490   13.8390   15.2690 C   0  0  0  0  0  0  0  0  0  0  0  0
   22.2370   14.2100   15.3340 C   0  0  0  0  0  0  0  0  0  0  0  0
   21.2000   15.6920    5.9420 C   0  0  0  0  0  0  0  0  0  0  0  0
   19.9920   16.2050    6.0490 N   0  0  0  0  0  0  0  0  0  0  0  0
   18.9504   19.6134    8.5356 H   0  0  0  0  0  0  0  0  0  0  0  0
   19.8320   19.3891    6.9867 H   0  0  0  0  0  0  0  0  0  0  0  0
   18.0430   19.5504    6.9867 H   0  0  0  0  0  0  0  0  0  0  0  0
   18.5903   17.4041    8.7354 H   0  0  0  0  0  0  0  0  0  0  0  0
   17.9357   17.3214    7.0428 H   0  0  0  0  0  0  0  0  0  0  0  0
   21.5381   17.2798    8.8004 H   0  0  0  0  0  0  0  0  0  0  0  0
   25.4136   16.5065    9.2076 H   0  0  0  0  0  0  0  0  0  0  0  0
   25.4735   16.3918   11.6951 H   0  0  0  0  0  0  0  0  0  0  0  0
   23.9271   17.6286   13.6630 H   0  0  0  0  0  0  0  0  0  0  0  0
   26.6996   17.4004   14.5157 H   0  0  0  0  0  0  0  0  0  0  0  0
   24.6532   18.1560   16.6459 H   0  0  0  0  0  0  0  0  0  0  0  0
   25.7185   16.7102   16.6409 H   0  0  0  0  0  0  0  0  0  0  0  0
   26.6140   18.5728   18.0515 H   0  0  0  0  0  0  0  0  0  0  0  0
   27.7061   18.1303   16.6775 H   0  0  0  0  0  0  0  0  0  0  0  0
   26.6159   21.1010   14.7292 H   0  0  0  0  0  0  0  0  0  0  0  0
   21.7493   14.2176    9.2101 H   0  0  0  0  0  0  0  0  0  0  0  0
   19.5108   13.4003   13.5139 H   0  0  0  0  0  0  0  0  0  0  0  0
   20.6001   12.1008   13.8833 H   0  0  0  0  0  0  0  0  0  0  0  0
   20.1271   14.7400   15.3757 H   0  0  0  0  0  0  0  0  0  0  0  0
   20.4737   13.1496   16.0808 H   0  0  0  0  0  0  0  0  0  0  0  0
   22.4009   15.1103   15.9444 H   0  0  0  0  0  0  0  0  0  0  0  0
   22.8722   13.4416   15.7989 H   0  0  0  0  0  0  0  0  0  0  0  0
   21.5350   15.0431    5.1194 H   0  0  0  0  0  0  0  0  0  0  0  0
  1  2  1  0
  2  3  1  0
  3  4  2  0
  4  5  1  0
  5  6  1  0
  6  7  2  0
  6  8  2  0
  6  9  1  0
  9 10  2  0
 10 11  1  0
 11 12  2  0
 12 13  1  0
 13 14  1  0
 14 15  2  0
 14 16  1  0
 16 17  1  0
 17 18  1  0
 18 19  1  0
 19 20  1  0
 20 21  2  0
 20 22  1  0
 22 23  1  0
 23 24  2  0
 13 25  2  0
 25 26  1  0
 26 27  2  0
 27 28  1  0
 28 29  2  0
 26 30  1  0
 30 31  1  0
 31 32  1  0
  5 33  1  0
 33 34  2  0
 34  3  1  0
 29  9  1  0
 28 12  1  0
 23 17  1  0
 32 25  1  0
  1 35  1  0
  1 36  1  0
  1 37  1  0
  2 38  1  0
  2 39  1  0
  4 40  1  0
 10 41  1  0
 11 42  1  0
 16 43  1  0
 17 44  1  6
 18 45  1  0
 18 46  1  0
 19 47  1  0
 19 48  1  0
 22 49  1  0
 29 50  1  0
 30 51  1  0
 30 52  1  0
 31 53  1  0
 31 54  1  0
 32 55  1  0
 32 56  1  0
 33 57  1  0
M  END
>  <meeko>  (21) 
{"is_sidechain": [true], "free_energy": -11.69, "intermolecular_energy": 0.0, "internal_energy": -11.69, "cluster_size": 17, "cluster_id": 1, "rank_in_cluster": 1}

>  <_RMSD_MCS_to_ref>  (21) 
0.6207444119764586

$$$$
ligand
     RDKit          3D

 55 59  0  0  0  0  0  0  0  0999 V2000
   18.7970   18.8170    7.7190 C   0  0  0  0  0  0  0  0  0  0  0  0
   18.5280   17.3290    7.8810 C   0  0  0  0  0  0  0  0  0  0  0  0
   19.7630   16.5140    7.7270 C   0  0  0  0  0  0  0  0  0  0  0  0
   20.3960   15.7100    8.6540 C   0  0  0  0  0  0  0  0  0  0  0  0
   21.4860   15.2270    7.9910 N   0  0  0  0  0  0  0  0  0  0  0  0
   22.5210   14.0260    8.5470 S   0  0  0  0  0  6  0  0  0  0  0  0
   23.6970   14.0960    7.7010 O   0  0  0  0  0  0  0  0  0  0  0  0
   21.7180   12.8250    8.6610 O   0  0  0  0  0  0  0  0  0  0  0  0
   22.9620   14.5750   10.1720 C   0  0  0  0  0  0  0  0  0  0  0  0
   24.1060   15.3520   10.3440 C   0  0  0  0  0  0  0  0  0  0  0  0
   24.3960   15.7370   11.6360 C   0  0  0  0  0  0  0  0  0  0  0  0
   23.6000   15.4010   12.7350 C   0  0  0  0  0  0  0  0  0  0  0  0
   22.4300   14.6540   12.5820 C   0  0  0  0  0  0  0  0  0  0  0  0
   21.5540   14.3200   13.7190 C   0  0  0  0  0  0  0  0  0  0  0  0
   20.9860   13.0560   13.8870 C   0  0  0  0  0  0  0  0  0  0  0  0
   20.1740   12.8150   14.9930 C   0  0  0  0  0  0  0  0  0  0  0  0
   19.9450   13.8360   15.9040 C   0  0  0  0  0  0  0  0  0  0  0  0
   20.5380   15.0630   15.6690 C   0  0  0  0  0  0  0  0  0  0  0  0
   21.3260   15.3260   14.6010 N   0  0  0  0  0  0  0  0  0  0  0  0
   22.1310   14.2380   11.2660 C   0  0  0  0  0  0  0  0  0  0  0  0
   24.1940   15.9940   13.9780 C   0  0  0  0  0  0  0  0  0  0  0  0
   25.4060   16.6370   13.4820 N   0  0  0  0  0  0  0  0  0  0  0  0
   26.1900   17.5790   14.2700 C   0  0  2  0  0  0  0  0  0  0  0  0
   26.0050   17.3830   15.7720 C   0  0  0  0  0  0  0  0  0  0  0  0
   26.9120   18.3450   16.5230 C   0  0  0  0  0  0  0  0  0  0  0  0
   26.6550   19.7750   16.1060 C   0  0  0  0  0  0  0  0  0  0  0  0
   26.7300   20.7120   16.8950 O   0  0  0  0  0  0  0  0  0  0  0  0
   26.3510   19.9840   14.7860 N   0  0  0  0  0  0  0  0  0  0  0  0
   25.8650   19.0390   13.9090 C   0  0  0  0  0  0  0  0  0  0  0  0
   25.2200   19.3840   12.9210 O   0  0  0  0  0  0  0  0  0  0  0  0
   25.5150   16.5580   12.1060 C   0  0  0  0  0  0  0  0  0  0  0  0
   26.3570   17.0600   11.3860 O   0  0  0  0  0  0  0  0  0  0  0  0
   21.4680   15.6840    6.7120 C   0  0  0  0  0  0  0  0  0  0  0  0
   20.4370   16.4800    6.5220 N   0  0  0  0  0  0  0  0  0  0  0  0
   18.8815   19.2845    8.7111 H   0  0  0  0  0  0  0  0  0  0  0  0
   19.7359   18.9616    7.1643 H   0  0  0  0  0  0  0  0  0  0  0  0
   17.9682   19.2812    7.1643 H   0  0  0  0  0  0  0  0  0  0  0  0
   18.1094   17.1518    8.8827 H   0  0  0  0  0  0  0  0  0  0  0  0
   17.8232   17.0258    7.0928 H   0  0  0  0  0  0  0  0  0  0  0  0
   20.0909   15.5055    9.6909 H   0  0  0  0  0  0  0  0  0  0  0  0
   24.7429   15.6424    9.4955 H   0  0  0  0  0  0  0  0  0  0  0  0
   21.1776   12.2587   13.1538 H   0  0  0  0  0  0  0  0  0  0  0  0
   19.7188   11.8248   15.1426 H   0  0  0  0  0  0  0  0  0  0  0  0
   19.3101   13.6742   16.7876 H   0  0  0  0  0  0  0  0  0  0  0  0
   20.3587   15.8721   16.3923 H   0  0  0  0  0  0  0  0  0  0  0  0
   21.2280   13.6360   11.0869 H   0  0  0  0  0  0  0  0  0  0  0  0
   23.5125   16.7290   14.4311 H   0  0  0  0  0  0  0  0  0  0  0  0
   24.3864   15.2510   14.7660 H   0  0  0  0  0  0  0  0  0  0  0  0
   27.2400   17.3692   14.0181 H   0  0  0  0  0  0  0  0  0  0  0  0
   24.9570   17.5808   16.0415 H   0  0  0  0  0  0  0  0  0  0  0  0
   26.2634   16.3484   16.0418 H   0  0  0  0  0  0  0  0  0  0  0  0
   26.7245   18.2466   17.6024 H   0  0  0  0  0  0  0  0  0  0  0  0
   27.9570   18.0953   16.2871 H   0  0  0  0  0  0  0  0  0  0  0  0
   26.4993   20.9338   14.4160 H   0  0  0  0  0  0  0  0  0  0  0  0
   22.2107   15.4252    5.9430 H   0  0  0  0  0  0  0  0  0  0  0  0
  1  2  1  0
  2  3  1  0
  3  4  2  0
  4  5  1  0
  5  6  1  0
  6  7  2  0
  6  8  2  0
  6  9  1  0
  9 10  2  0
 10 11  1  0
 11 12  2  0
 12 13  1  0
 13 14  1  0
 14 15  2  0
 15 16  1  0
 16 17  2  0
 17 18  1  0
 18 19  2  0
 13 20  2  0
 12 21  1  0
 21 22  1  0
 22 23  1  0
 23 24  1  0
 24 25  1  0
 25 26  1  0
 26 27  2  0
 26 28  1  0
 28 29  1  0
 29 30  2  0
 22 31  1  0
 31 32  2  0
  5 33  1  0
 33 34  2  0
 34  3  1  0
 20  9  1  0
 29 23  1  0
 31 11  1  0
 19 14  1  0
  1 35  1  0
  1 36  1  0
  1 37  1  0
  2 38  1  0
  2 39  1  0
  4 40  1  0
 10 41  1  0
 15 42  1  0
 16 43  1  0
 17 44  1  0
 18 45  1  0
 20 46  1  0
 21 47  1  0
 21 48  1  0
 23 49  1  1
 24 50  1  0
 24 51  1  0
 25 52  1  0
 25 53  1  0
 28 54  1  0
 33 55  1  0
M  END
>  <meeko>  (22) 
{"is_sidechain": [true], "free_energy": -11.68, "intermolecular_energy": 0.0, "internal_energy": -11.68, "cluster_size": 16, "cluster_id": 1, "rank_in_cluster": 1}

>  <_RMSD_MCS_to_ref>  (22) 
1.9949432044268551

$$$$
ligand
     RDKit          3D

 50 53  0  0  0  0  0  0  0  0999 V2000
   18.9090   19.1540    7.5370 C   0  0  0  0  0  0  0  0  0  0  0  0
   18.7730   17.6460    7.6780 C   0  0  0  0  0  0  0  0  0  0  0  0
   20.0350   16.9330    7.3390 C   0  0  0  0  0  0  0  0  0  0  0  0
   20.9400   16.3190    8.1820 C   0  0  0  0  0  0  0  0  0  0  0  0
   21.9130   15.8510    7.3460 N   0  0  0  0  0  0  0  0  0  0  0  0
   23.1920   14.8540    7.7800 S   0  0  0  0  0  6  0  0  0  0  0  0
   22.5740   13.6400    8.2740 O   0  0  0  0  0  0  0  0  0  0  0  0
   24.0830   14.8640    6.6360 O   0  0  0  0  0  0  0  0  0  0  0  0
   24.0570   15.6130    9.1450 C   0  0  0  0  0  0  0  0  0  0  0  0
   25.2880   16.2390    8.9160 C   0  0  0  0  0  0  0  0  0  0  0  0
   25.9610   16.8320    9.9720 C   0  0  0  0  0  0  0  0  0  0  0  0
   25.4120   16.7990   11.2520 C   0  0  0  0  0  0  0  0  0  0  0  0
   24.1710   16.1730   11.5320 C   0  0  0  0  0  0  0  0  0  0  0  0
   23.5600   16.1050   12.8130 C   0  0  0  0  0  0  0  0  0  0  0  0
   24.1770   16.6830   14.0770 C   0  0  0  0  0  0  0  0  0  0  0  0
   24.3260   16.0620   15.1210 O   0  0  0  0  0  0  0  0  0  0  0  0
   24.5490   18.0080   13.9580 N   0  0  0  0  0  0  0  0  0  0  0  0
   24.9860   18.8060   15.0880 C   0  0  1  0  0  0  0  0  0  0  0  0
   26.0430   18.0860   15.9180 C   0  0  0  0  0  0  0  0  0  0  0  0
   26.4730   18.9750   17.0750 C   0  0  0  0  0  0  0  0  0  0  0  0
   26.9650   20.3150   16.5830 C   0  0  0  0  0  0  0  0  0  0  0  0
   27.8530   20.9410   17.1540 O   0  0  0  0  0  0  0  0  0  0  0  0
   26.3430   20.8280   15.4730 N   0  0  0  0  0  0  0  0  0  0  0  0
   25.5650   20.1320   14.5800 C   0  0  0  0  0  0  0  0  0  0  0  0
   25.3430   20.5800   13.4560 O   0  0  0  0  0  0  0  0  0  0  0  0
   22.3550   15.5100   13.0620 N   0  0  0  0  0  0  0  0  0  0  0  0
   21.7240   14.9510   12.0230 C   0  0  0  0  0  0  0  0  0  0  0  0
   22.2300   14.9540   10.7360 C   0  0  0  0  0  0  0  0  0  0  0  0
   23.4730   15.5680   10.4500 C   0  0  0  0  0  0  0  0  0  0  0  0
   21.5830   16.1530    6.0630 C   0  0  0  0  0  0  0  0  0  0  0  0
   20.4400   16.8050    6.0250 N   0  0  0  0  0  0  0  0  0  0  0  0
   18.9504   19.6134    8.5356 H   0  0  0  0  0  0  0  0  0  0  0  0
   19.8320   19.3891    6.9867 H   0  0  0  0  0  0  0  0  0  0  0  0
   18.0430   19.5504    6.9867 H   0  0  0  0  0  0  0  0  0  0  0  0
   18.5015   17.4106    8.7176 H   0  0  0  0  0  0  0  0  0  0  0  0
   17.9963   17.3100    6.9752 H   0  0  0  0  0  0  0  0  0  0  0  0
   20.8888   16.2277    9.2770 H   0  0  0  0  0  0  0  0  0  0  0  0
   25.7183   16.2600    7.9039 H   0  0  0  0  0  0  0  0  0  0  0  0
   26.9275   17.3282    9.7999 H   0  0  0  0  0  0  0  0  0  0  0  0
   25.9619   17.2765   12.0763 H   0  0  0  0  0  0  0  0  0  0  0  0
   24.5147   18.4481   13.0274 H   0  0  0  0  0  0  0  0  0  0  0  0
   24.1115   18.9851   15.7309 H   0  0  0  0  0  0  0  0  0  0  0  0
   25.6235   17.1487   16.3123 H   0  0  0  0  0  0  0  0  0  0  0  0
   26.9145   17.8609   15.2856 H   0  0  0  0  0  0  0  0  0  0  0  0
   25.6145   19.1322   17.7445 H   0  0  0  0  0  0  0  0  0  0  0  0
   27.2961   18.4771   17.6084 H   0  0  0  0  0  0  0  0  0  0  0  0
   26.4720   21.8336   15.2914 H   0  0  0  0  0  0  0  0  0  0  0  0
   20.7537   14.4645   12.2015 H   0  0  0  0  0  0  0  0  0  0  0  0
   21.6607   14.4743    9.9262 H   0  0  0  0  0  0  0  0  0  0  0  0
   22.1855   15.8900    5.1811 H   0  0  0  0  0  0  0  0  0  0  0  0
  1  2  1  0
  2  3  1  0
  3  4  2  0
  4  5  1  0
  5  6  1  0
  6  7  2  0
  6  8  2  0
  6  9  1  0
  9 10  2  0
 10 11  1  0
 11 12  2  0
 12 13  1  0
 13 14  2  0
 14 15  1  0
 15 16  2  0
 15 17  1  0
 17 18  1  0
 18 19  1  0
 19 20  1  0
 20 21  1  0
 21 22  2  0
 21 23  1  0
 23 24  1  0
 24 25  2  0
 14 26  1  0
 26 27  2  0
 27 28  1  0
 28 29  2  0
  5 30  1  0
 30 31  2  0
 31  3  1  0
 29  9  1  0
 29 13  1  0
 24 18  1  0
  1 32  1  0
  1 33  1  0
  1 34  1  0
  2 35  1  0
  2 36  1  0
  4 37  1  0
 10 38  1  0
 11 39  1  0
 12 40  1  0
 17 41  1  0
 18 42  1  1
 19 43  1  0
 19 44  1  0
 20 45  1  0
 20 46  1  0
 23 47  1  0
 27 48  1  0
 28 49  1  0
 30 50  1  0
M  END
>  <meeko>  (23) 
{"is_sidechain": [true], "free_energy": -11.67, "intermolecular_energy": 0.0, "internal_energy": -11.67, "cluster_size": 9, "cluster_id": 1, "rank_in_cluster": 1}

>  <_RMSD_MCS_to_ref>  (23) 
0.593005621108828

$$$$
ligand
     RDKit          3D

 48 51  0  0  0  0  0  0  0  0999 V2000
   18.9090   19.1540    7.5370 C   0  0  0  0  0  0  0  0  0  0  0  0
   18.7730   17.6460    7.6780 C   0  0  0  0  0  0  0  0  0  0  0  0
   20.0620   16.9410    7.4420 C   0  0  0  0  0  0  0  0  0  0  0  0
   20.7760   16.1250    8.2970 C   0  0  0  0  0  0  0  0  0  0  0  0
   21.8800   15.7700    7.5780 N   0  0  0  0  0  0  0  0  0  0  0  0
   23.0210   14.6260    8.0340 S   0  0  0  0  0  6  0  0  0  0  0  0
   22.3020   13.5760    8.7270 O   0  0  0  0  0  0  0  0  0  0  0  0
   23.8220   14.3790    6.8470 O   0  0  0  0  0  0  0  0  0  0  0  0
   24.0470   15.4750    9.2000 C   0  0  0  0  0  0  0  0  0  0  0  0
   25.2810   15.9990    8.7880 C   0  0  0  0  0  0  0  0  0  0  0  0
   26.1100   16.6600    9.6940 C   0  0  0  0  0  0  0  0  0  0  0  0
   25.7280   16.8230   11.0320 C   0  0  0  0  0  0  0  0  0  0  0  0
   24.4830   16.3210   11.4600 C   0  0  0  0  0  0  0  0  0  0  0  0
   23.7510   16.2870   12.6830 C   0  0  0  0  0  0  0  0  0  0  0  0
   24.1600   16.8340   13.9860 C   0  0  0  0  0  0  0  0  0  0  0  0
   23.9490   16.2700   15.0550 O   0  0  0  0  0  0  0  0  0  0  0  0
   24.7930   18.0530   13.8940 N   0  0  0  0  0  0  0  0  0  0  0  0
   25.1360   18.8480   15.0570 C   0  0  1  0  0  0  0  0  0  0  0  0
   26.0980   18.1130   15.9840 C   0  0  0  0  0  0  0  0  0  0  0  0
   26.4360   18.9990   17.1730 C   0  0  0  0  0  0  0  0  0  0  0  0
   26.9960   20.3280   16.7250 C   0  0  0  0  0  0  0  0  0  0  0  0
   27.8350   20.9420   17.3760 O   0  0  0  0  0  0  0  0  0  0  0  0
   26.4910   20.8450   15.5580 N   0  0  0  0  0  0  0  0  0  0  0  0
   25.7810   20.1610   14.6010 C   0  0  0  0  0  0  0  0  0  0  0  0
   25.6650   20.6110   13.4620 O   0  0  0  0  0  0  0  0  0  0  0  0
   22.5650   15.6600   12.5260 N   0  0  0  0  0  0  0  0  0  0  0  0
   22.5440   15.3180   11.2280 N   0  0  0  0  0  0  0  0  0  0  0  0
   23.6750   15.6690   10.5380 C   0  0  0  0  0  0  0  0  0  0  0  0
   21.8010   16.3180    6.3390 C   0  0  0  0  0  0  0  0  0  0  0  0
   20.7080   17.0440    6.2250 N   0  0  0  0  0  0  0  0  0  0  0  0
   18.9504   19.6134    8.5356 H   0  0  0  0  0  0  0  0  0  0  0  0
   19.8320   19.3891    6.9867 H   0  0  0  0  0  0  0  0  0  0  0  0
   18.0430   19.5504    6.9867 H   0  0  0  0  0  0  0  0  0  0  0  0
   18.4241   17.4153    8.6954 H   0  0  0  0  0  0  0  0  0  0  0  0
   18.0548   17.2993    6.9204 H   0  0  0  0  0  0  0  0  0  0  0  0
   20.5144   15.8287    9.3236 H   0  0  0  0  0  0  0  0  0  0  0  0
   25.5979   15.8876    7.7405 H   0  0  0  0  0  0  0  0  0  0  0  0
   27.0769   17.0588    9.3534 H   0  0  0  0  0  0  0  0  0  0  0  0
   26.3932   17.3376   11.7411 H   0  0  0  0  0  0  0  0  0  0  0  0
   25.0329   18.4154   12.9602 H   0  0  0  0  0  0  0  0  0  0  0  0
   24.2093   19.0452   15.6159 H   0  0  0  0  0  0  0  0  0  0  0  0
   25.6262   17.1855   16.3407 H   0  0  0  0  0  0  0  0  0  0  0  0
   27.0199   17.8692   15.4357 H   0  0  0  0  0  0  0  0  0  0  0  0
   25.5226   19.1746   17.7602 H   0  0  0  0  0  0  0  0  0  0  0  0
   27.1973   18.4886   17.7812 H   0  0  0  0  0  0  0  0  0  0  0  0
   26.6613   21.8455   15.3822 H   0  0  0  0  0  0  0  0  0  0  0  0
   21.7476   14.8342   10.7891 H   0  0  0  0  0  0  0  0  0  0  0  0
   22.5454   16.1758    5.5417 H   0  0  0  0  0  0  0  0  0  0  0  0
  1  2  1  0
  2  3  1  0
  3  4  2  0
  4  5  1  0
  5  6  1  0
  6  7  2  0
  6  8  2  0
  6  9  1  0
  9 10  2  0
 10 11  1  0
 11 12  2  0
 12 13  1  0
 13 14  1  0
 14 15  1  0
 15 16  2  0
 15 17  1  0
 17 18  1  0
 18 19  1  0
 19 20  1  0
 20 21  1  0
 21 22  2  0
 21 23  1  0
 23 24  1  0
 24 25  2  0
 14 26  2  0
 26 27  1  0
 27 28  1  0
  5 29  1  0
 29 30  2  0
 30  3  1  0
 28  9  1  0
 28 13  2  0
 24 18  1  0
  1 31  1  0
  1 32  1  0
  1 33  1  0
  2 34  1  0
  2 35  1  0
  4 36  1  0
 10 37  1  0
 11 38  1  0
 12 39  1  0
 17 40  1  0
 18 41  1  1
 19 42  1  0
 19 43  1  0
 20 44  1  0
 20 45  1  0
 23 46  1  0
 27 47  1  0
 29 48  1  0
M  END
>  <meeko>  (24) 
{"is_sidechain": [true], "free_energy": -11.66, "intermolecular_energy": 0.0, "internal_energy": -11.66, "cluster_size": 19, "cluster_id": 1, "rank_in_cluster": 1}

>  <_RMSD_MCS_to_ref>  (24) 
0.7098871584820908

$$$$
ligand
     RDKit          3D

 51 54  0  0  0  0  0  0  0  0999 V2000
   18.9090   19.1540    7.5370 C   0  0  0  0  0  0  0  0  0  0  0  0
   18.7730   17.6460    7.6780 C   0  0  0  0  0  0  0  0  0  0  0  0
   20.0660   16.9430    7.4640 C   0  0  0  0  0  0  0  0  0  0  0  0
   20.6410   15.9330    8.2100 C   0  0  0  0  0  0  0  0  0  0  0  0
   21.8060   15.6520    7.5560 N   0  0  0  0  0  0  0  0  0  0  0  0
   22.9970   14.5940    8.0900 S   0  0  0  0  0  6  0  0  0  0  0  0
   22.3320   13.3130    8.2470 O   0  0  0  0  0  0  0  0  0  0  0  0
   24.1310   14.7590    7.1980 O   0  0  0  0  0  0  0  0  0  0  0  0
   23.4280   15.2020    9.6880 C   0  0  0  0  0  0  0  0  0  0  0  0
   22.5690   14.9800   10.7720 C   0  0  0  0  0  0  0  0  0  0  0  0
   22.8880   15.4880   12.0420 C   0  0  0  0  0  0  0  0  0  0  0  0
   24.0710   16.2170   12.2450 C   0  0  0  0  0  0  0  0  0  0  0  0
   24.4060   16.7930   13.5760 C   0  0  0  0  0  0  0  0  0  0  0  0
   24.2000   16.1640   14.6060 O   0  0  0  0  0  0  0  0  0  0  0  0
   24.9230   18.0700   13.5720 N   0  0  0  0  0  0  0  0  0  0  0  0
   25.1430   18.7940   14.8170 C   0  0  1  0  0  0  0  0  0  0  0  0
   26.1230   18.0770   15.7390 C   0  0  0  0  0  0  0  0  0  0  0  0
   26.3360   18.9080   16.9960 C   0  0  0  0  0  0  0  0  0  0  0  0
   26.8020   20.3050   16.6560 C   0  0  0  0  0  0  0  0  0  0  0  0
   27.5780   20.9320   17.3700 O   0  0  0  0  0  0  0  0  0  0  0  0
   26.2880   20.8640   15.5130 N   0  0  0  0  0  0  0  0  0  0  0  0
   25.7010   20.1810   14.4780 C   0  0  0  0  0  0  0  0  0  0  0  0
   25.6220   20.6710   13.3520 O   0  0  0  0  0  0  0  0  0  0  0  0
   24.9140   16.4130   11.1540 C   0  0  0  0  0  0  0  0  0  0  0  0
   24.6150   15.8890    9.8890 C   0  0  0  0  0  0  0  0  0  0  0  0
   25.5750   16.2500    8.9120 N   0  0  0  0  0  0  0  0  0  0  0  0
   26.7270   16.7020    9.7130 C   0  0  0  0  0  0  0  0  0  0  0  0
   26.1930   17.1820   11.0700 C   0  0  0  0  0  0  0  0  0  0  0  0
   21.9390   16.5000    6.5030 C   0  0  0  0  0  0  0  0  0  0  0  0
   20.8850   17.2840    6.4060 N   0  0  0  0  0  0  0  0  0  0  0  0
   18.9504   19.6134    8.5356 H   0  0  0  0  0  0  0  0  0  0  0  0
   19.8320   19.3891    6.9867 H   0  0  0  0  0  0  0  0  0  0  0  0
   18.0430   19.5504    6.9867 H   0  0  0  0  0  0  0  0  0  0  0  0
   18.4081   17.4163    8.6900 H   0  0  0  0  0  0  0  0  0  0  0  0
   18.0676   17.2972    6.9094 H   0  0  0  0  0  0  0  0  0  0  0  0
   20.2493   15.4619    9.1236 H   0  0  0  0  0  0  0  0  0  0  0  0
   21.6417   14.4060   10.6281 H   0  0  0  0  0  0  0  0  0  0  0  0
   22.2045   15.3131   12.8859 H   0  0  0  0  0  0  0  0  0  0  0  0
   25.1575   18.5196   12.6755 H   0  0  0  0  0  0  0  0  0  0  0  0
   24.1813   18.8642   15.3463 H   0  0  0  0  0  0  0  0  0  0  0  0
   25.7150   17.0933   16.0143 H   0  0  0  0  0  0  0  0  0  0  0  0
   27.0838   17.9428   15.2205 H   0  0  0  0  0  0  0  0  0  0  0  0
   25.3874   18.9710   17.5493 H   0  0  0  0  0  0  0  0  0  0  0  0
   27.1105   18.4219   17.6075 H   0  0  0  0  0  0  0  0  0  0  0  0
   26.3483   21.8884   15.4241 H   0  0  0  0  0  0  0  0  0  0  0  0
   25.4887   16.2069    7.8865 H   0  0  0  0  0  0  0  0  0  0  0  0
   27.4304   15.8693    9.8606 H   0  0  0  0  0  0  0  0  0  0  0  0
   27.2581   17.5163    9.1983 H   0  0  0  0  0  0  0  0  0  0  0  0
   26.8776   16.9203   11.8902 H   0  0  0  0  0  0  0  0  0  0  0  0
   26.0757   18.2725   11.1540 H   0  0  0  0  0  0  0  0  0  0  0  0
   22.8056   16.5280    5.8261 H   0  0  0  0  0  0  0  0  0  0  0  0
  1  2  1  0
  2  3  1  0
  3  4  2  0
  4  5  1  0
  5  6  1  0
  6  7  2  0
  6  8  2  0
  6  9  1  0
  9 10  2  0
 10 11  1  0
 11 12  2  0
 12 13  1  0
 13 14  2  0
 13 15  1  0
 15 16  1  0
 16 17  1  0
 17 18  1  0
 18 19  1  0
 19 20  2  0
 19 21  1  0
 21 22  1  0
 22 23  2  0
 12 24  1  0
 24 25  2  0
 25 26  1  0
 26 27  1  0
 27 28  1  0
  5 29  1  0
 29 30  2  0
 30  3  1  0
 25  9  1  0
 22 16  1  0
 28 24  1  0
  1 31  1  0
  1 32  1  0
  1 33  1  0
  2 34  1  0
  2 35  1  0
  4 36  1  0
 10 37  1  0
 11 38  1  0
 15 39  1  0
 16 40  1  1
 17 41  1  0
 17 42  1  0
 18 43  1  0
 18 44  1  0
 21 45  1  0
 26 46  1  0
 27 47  1  0
 27 48  1  0
 28 49  1  0
 28 50  1  0
 29 51  1  0
M  END
>  <meeko>  (25) 
{"is_sidechain": [true], "free_energy": -11.63, "intermolecular_energy": 0.0, "internal_energy": -11.63, "cluster_size": 16, "cluster_id": 1, "rank_in_cluster": 1}

>  <_RMSD_MCS_to_ref>  (25) 
0.615026015709905

$$$$
ligand
     RDKit          3D

 53 57  0  0  0  0  0  0  0  0999 V2000
   18.9090   19.1530    7.5370 C   0  0  0  0  0  0  0  0  0  0  0  0
   18.7730   17.6470    7.6780 C   0  0  0  0  0  0  0  0  0  0  0  0
   19.9980   16.9220    7.2440 C   0  0  0  0  0  0  0  0  0  0  0  0
   20.5010   15.7150    7.6890 C   0  0  0  0  0  0  0  0  0  0  0  0
   21.6180   15.5190    6.9300 N   0  0  0  0  0  0  0  0  0  0  0  0
   22.7340   14.2800    7.0900 S   0  0  0  0  0  6  0  0  0  0  0  0
   22.5400   13.7000    8.4030 O   0  0  0  0  0  0  0  0  0  0  0  0
   22.6430   13.5130    5.8640 O   0  0  0  0  0  0  0  0  0  0  0  0
   24.3160   14.9220    7.1060 C   0  0  0  0  0  0  0  0  0  0  0  0
   25.2240   14.8420    6.0390 C   0  0  0  0  0  0  0  0  0  0  0  0
   26.3720   15.4640    6.3120 N   0  0  0  0  0  0  0  0  0  0  0  0
   26.1970   15.9240    7.5640 N   0  0  0  0  0  0  0  0  0  0  0  0
   24.9670   15.6290    8.1010 C   0  0  0  0  0  0  0  0  0  0  0  0
   24.5860   16.0280    9.4460 C   0  0  0  0  0  0  0  0  0  0  0  0
   23.3010   15.7110    9.9410 C   0  0  0  0  0  0  0  0  0  0  0  0
   22.9040   16.0820   11.2320 C   0  0  0  0  0  0  0  0  0  0  0  0
   23.8100   16.7660   12.0200 C   0  0  0  0  0  0  0  0  0  0  0  0
   25.0780   17.0670   11.5260 C   0  0  0  0  0  0  0  0  0  0  0  0
   25.4940   16.7210   10.2540 C   0  0  0  0  0  0  0  0  0  0  0  0
   25.8110   17.7980   12.5640 C   0  0  0  0  0  0  0  0  0  0  0  0
   26.9270   18.2610   12.4350 O   0  0  0  0  0  0  0  0  0  0  0  0
   24.9760   17.8740   13.6660 N   0  0  0  0  0  0  0  0  0  0  0  0
   25.2920   18.7000   14.8290 C   0  0  1  0  0  0  0  0  0  0  0  0
   26.3310   18.0110   15.7150 C   0  0  0  0  0  0  0  0  0  0  0  0
   26.5530   18.8250   16.9790 C   0  0  0  0  0  0  0  0  0  0  0  0
   26.9580   20.2420   16.6510 C   0  0  0  0  0  0  0  0  0  0  0  0
   27.7230   20.8880   17.3590 O   0  0  0  0  0  0  0  0  0  0  0  0
   26.4010   20.7920   15.5250 N   0  0  0  0  0  0  0  0  0  0  0  0
   25.7630   20.1260   14.5040 C   0  0  0  0  0  0  0  0  0  0  0  0
   25.5770   20.6890   13.4270 O   0  0  0  0  0  0  0  0  0  0  0  0
   23.6650   17.2850   13.4140 C   0  0  0  0  0  0  0  0  0  0  0  0
   21.7840   16.5760    6.0970 C   0  0  0  0  0  0  0  0  0  0  0  0
   20.8140   17.4500    6.2620 N   0  0  0  0  0  0  0  0  0  0  0  0
   18.9505   19.6125    8.5356 H   0  0  0  0  0  0  0  0  0  0  0  0
   19.8320   19.3879    6.9867 H   0  0  0  0  0  0  0  0  0  0  0  0
   18.0430   19.5494    6.9867 H   0  0  0  0  0  0  0  0  0  0  0  0
   18.5765   17.4077    8.7335 H   0  0  0  0  0  0  0  0  0  0  0  0
   17.9453   17.3236    7.0296 H   0  0  0  0  0  0  0  0  0  0  0  0
   20.0944   15.0616    8.4750 H   0  0  0  0  0  0  0  0  0  0  0  0
   25.0139   14.3273    5.0898 H   0  0  0  0  0  0  0  0  0  0  0  0
   26.9204   16.4503    8.0745 H   0  0  0  0  0  0  0  0  0  0  0  0
   22.5974   15.1611    9.2987 H   0  0  0  0  0  0  0  0  0  0  0  0
   21.8999   15.8360   11.6078 H   0  0  0  0  0  0  0  0  0  0  0  0
   26.4996   16.9803    9.8912 H   0  0  0  0  0  0  0  0  0  0  0  0
   24.3355   18.8091   15.3612 H   0  0  0  0  0  0  0  0  0  0  0  0
   25.9716   17.0073   15.9858 H   0  0  0  0  0  0  0  0  0  0  0  0
   27.2800   17.9298   15.1648 H   0  0  0  0  0  0  0  0  0  0  0  0
   25.6204   18.8441   17.5620 H   0  0  0  0  0  0  0  0  0  0  0  0
   27.3624   18.3562   17.5579 H   0  0  0  0  0  0  0  0  0  0  0  0
   26.4676   21.8158   15.4336 H   0  0  0  0  0  0  0  0  0  0  0  0
   23.4518   16.4705   14.1219 H   0  0  0  0  0  0  0  0  0  0  0  0
   22.8333   17.9947   13.5349 H   0  0  0  0  0  0  0  0  0  0  0  0
   22.6135   16.6874    5.3831 H   0  0  0  0  0  0  0  0  0  0  0  0
  1  2  1  0
  2  3  1  0
  3  4  2  0
  4  5  1  0
  5  6  1  0
  6  7  2  0
  6  8  2  0
  6  9  1  0
  9 10  1  0
 10 11  2  0
 11 12  1  0
 12 13  1  0
 13 14  1  0
 14 15  2  0
 15 16  1  0
 16 17  2  0
 17 18  1  0
 18 19  2  0
 18 20  1  0
 20 21  2  0
 20 22  1  0
 22 23  1  0
 23 24  1  0
 24 25  1  0
 25 26  1  0
 26 27  2  0
 26 28  1  0
 28 29  1  0
 29 30  2  0
 22 31  1  0
  5 32  1  0
 32 33  2  0
 33  3  1  0
 13  9  2  0
 19 14  1  0
 29 23  1  0
 31 17  1  0
  1 34  1  0
  1 35  1  0
  1 36  1  0
  2 37  1  0
  2 38  1  0
  4 39  1  0
 10 40  1  0
 12 41  1  0
 15 42  1  0
 16 43  1  0
 19 44  1  0
 23 45  1  1
 24 46  1  0
 24 47  1  0
 25 48  1  0
 25 49  1  0
 28 50  1  0
 31 51  1  0
 31 52  1  0
 32 53  1  0
M  END
>  <meeko>  (26) 
{"is_sidechain": [true], "free_energy": -11.63, "intermolecular_energy": 0.0, "internal_energy": -11.63, "cluster_size": 7, "cluster_id": 1, "rank_in_cluster": 1}

>  <_RMSD_MCS_to_ref>  (26) 
1.9079014649609136

$$$$
ligand
     RDKit          3D

 52 56  0  0  0  0  0  0  0  0999 V2000
   18.9090   19.1540    7.5370 C   0  0  0  0  0  0  0  0  0  0  0  0
   18.7730   17.6460    7.6780 C   0  0  0  0  0  0  0  0  0  0  0  0
   20.0870   16.9800    7.8970 C   0  0  0  0  0  0  0  0  0  0  0  0
   21.0940   16.7330    6.9870 C   0  0  0  0  0  0  0  0  0  0  0  0
   22.0690   16.1250    7.7220 N   0  0  0  0  0  0  0  0  0  0  0  0
   23.6420   15.8280    7.2270 S   0  0  0  0  0  6  0  0  0  0  0  0
   24.4690   16.8840    7.7710 O   0  0  0  0  0  0  0  0  0  0  0  0
   23.5750   15.5270    5.8110 O   0  0  0  0  0  0  0  0  0  0  0  0
   24.2250   14.3640    7.9510 C   0  0  0  0  0  0  0  0  0  0  0  0
   24.5900   13.3010    7.1720 N   0  0  0  0  0  0  0  0  0  0  0  0
   24.9470   12.2410    7.9110 N   0  0  0  0  0  0  0  0  0  0  0  0
   24.8420   12.5920    9.1850 N   0  0  0  0  0  0  0  0  0  0  0  0
   24.4280   13.8940    9.2290 C   0  0  0  0  0  0  0  0  0  0  0  0
   24.1790   14.6160   10.4540 C   0  0  0  0  0  0  0  0  0  0  0  0
   22.9710   14.3900   11.1510 C   0  0  0  0  0  0  0  0  0  0  0  0
   22.6650   15.1160   12.3040 C   0  0  0  0  0  0  0  0  0  0  0  0
   23.5900   16.0500   12.7290 C   0  0  0  0  0  0  0  0  0  0  0  0
   24.8000   16.2690   12.0710 C   0  0  0  0  0  0  0  0  0  0  0  0
   25.1140   15.5520   10.9290 C   0  0  0  0  0  0  0  0  0  0  0  0
   25.5810   17.3320   12.7710 C   0  0  0  0  0  0  0  0  0  0  0  0
   24.6770   17.7260   13.8460 N   0  0  0  0  0  0  0  0  0  0  0  0
   25.0340   18.6560   14.9130 C   0  0  1  0  0  0  0  0  0  0  0  0
   25.9880   18.0020   15.9140 C   0  0  0  0  0  0  0  0  0  0  0  0
   26.2500   18.9540   17.0690 C   0  0  0  0  0  0  0  0  0  0  0  0
   26.7860   20.2770   16.5770 C   0  0  0  0  0  0  0  0  0  0  0  0
   27.5690   20.9550   17.2340 O   0  0  0  0  0  0  0  0  0  0  0  0
   26.3250   20.7110   15.3600 N   0  0  0  0  0  0  0  0  0  0  0  0
   25.6300   19.9840   14.4200 C   0  0  0  0  0  0  0  0  0  0  0  0
   25.4880   20.4240   13.2810 O   0  0  0  0  0  0  0  0  0  0  0  0
   23.5260   16.9580   13.8800 C   0  0  0  0  0  0  0  0  0  0  0  0
   22.6270   16.9910   14.6980 O   0  0  0  0  0  0  0  0  0  0  0  0
   21.6570   16.0210    9.0110 C   0  0  0  0  0  0  0  0  0  0  0  0
   20.4510   16.5290    9.1510 N   0  0  0  0  0  0  0  0  0  0  0  0
   18.9504   19.6134    8.5356 H   0  0  0  0  0  0  0  0  0  0  0  0
   19.8320   19.3891    6.9867 H   0  0  0  0  0  0  0  0  0  0  0  0
   18.0430   19.5504    6.9867 H   0  0  0  0  0  0  0  0  0  0  0  0
   18.1184   17.4280    8.5347 H   0  0  0  0  0  0  0  0  0  0  0  0
   18.3493   17.2563    6.7406 H   0  0  0  0  0  0  0  0  0  0  0  0
   21.1076   16.9719    5.9133 H   0  0  0  0  0  0  0  0  0  0  0  0
   24.5906   13.3133    6.1421 H   0  0  0  0  0  0  0  0  0  0  0  0
   22.2633   13.6334   10.7812 H   0  0  0  0  0  0  0  0  0  0  0  0
   21.7254   14.9509   12.8517 H   0  0  0  0  0  0  0  0  0  0  0  0
   26.0694   15.7105   10.4074 H   0  0  0  0  0  0  0  0  0  0  0  0
   26.5255   16.9343   13.1706 H   0  0  0  0  0  0  0  0  0  0  0  0
   25.8756   18.1652   12.1160 H   0  0  0  0  0  0  0  0  0  0  0  0
   24.0826   18.9048   15.4059 H   0  0  0  0  0  0  0  0  0  0  0  0
   25.5357   17.0760   16.2988 H   0  0  0  0  0  0  0  0  0  0  0  0
   26.9384   17.7681   15.4120 H   0  0  0  0  0  0  0  0  0  0  0  0
   25.3087   19.1277   17.6111 H   0  0  0  0  0  0  0  0  0  0  0  0
   27.0014   18.4990   17.7311 H   0  0  0  0  0  0  0  0  0  0  0  0
   26.5214   21.6937   15.1222 H   0  0  0  0  0  0  0  0  0  0  0  0
   22.2480   15.5748    9.8244 H   0  0  0  0  0  0  0  0  0  0  0  0
  1  2  1  0
  2  3  1  0
  3  4  2  0
  4  5  1  0
  5  6  1  0
  6  7  2  0
  6  8  2  0
  6  9  1  0
  9 10  1  0
 10 11  1  0
 11 12  2  0
 12 13  1  0
 13 14  1  0
 14 15  2  0
 15 16  1  0
 16 17  2  0
 17 18  1  0
 18 19  2  0
 18 20  1  0
 20 21  1  0
 21 22  1  0
 22 23  1  0
 23 24  1  0
 24 25  1  0
 25 26  2  0
 25 27  1  0
 27 28  1  0
 28 29  2  0
 21 30  1  0
 30 31  2  0
  5 32  1  0
 32 33  2  0
 33  3  1  0
 13  9  2  0
 19 14  1  0
 28 22  1  0
 30 17  1  0
  1 34  1  0
  1 35  1  0
  1 36  1  0
  2 37  1  0
  2 38  1  0
  4 39  1  0
 10 40  1  0
 15 41  1  0
 16 42  1  0
 19 43  1  0
 20 44  1  0
 20 45  1  0
 22 46  1  1
 23 47  1  0
 23 48  1  0
 24 49  1  0
 24 50  1  0
 27 51  1  0
 32 52  1  0
M  END
>  <meeko>  (27) 
{"is_sidechain": [true], "free_energy": -11.63, "intermolecular_energy": 0.0, "internal_energy": -11.63, "cluster_size": 20, "cluster_id": 1, "rank_in_cluster": 1}

>  <_RMSD_MCS_to_ref>  (27) 
0.7920360191023862

$$$$
ligand
     RDKit          3D

 51 55  0  0  0  0  0  0  0  0999 V2000
   18.9090   19.1530    7.5370 C   0  0  0  0  0  0  0  0  0  0  0  0
   18.7730   17.6470    7.6780 C   0  0  0  0  0  0  0  0  0  0  0  0
   20.0270   16.9280    7.3190 C   0  0  0  0  0  0  0  0  0  0  0  0
   20.4620   15.6830    7.7280 C   0  0  0  0  0  0  0  0  0  0  0  0
   21.6760   15.5360    7.1220 N   0  0  0  0  0  0  0  0  0  0  0  0
   22.5730   14.1190    7.0730 S   0  0  0  0  0  6  0  0  0  0  0  0
   22.3200   13.4310    8.3240 O   0  0  0  0  0  0  0  0  0  0  0  0
   22.3010   13.5370    5.7760 O   0  0  0  0  0  0  0  0  0  0  0  0
   24.2910   14.5490    7.0900 C   0  0  0  0  0  0  0  0  0  0  0  0
   25.0670   14.3010    5.9820 O   0  0  0  0  0  0  0  0  0  0  0  0
   26.3600   14.7430    6.1880 N   0  0  0  0  0  0  0  0  0  0  0  0
   26.3720   15.2490    7.4190 C   0  0  0  0  0  0  0  0  0  0  0  0
   25.1130   15.1440    8.0370 C   0  0  0  0  0  0  0  0  0  0  0  0
   24.6790   15.5930    9.3390 C   0  0  0  0  0  0  0  0  0  0  0  0
   23.3850   15.2600    9.8080 C   0  0  0  0  0  0  0  0  0  0  0  0
   22.9260   15.7280   11.0450 C   0  0  0  0  0  0  0  0  0  0  0  0
   23.7860   16.5220   11.7790 C   0  0  0  0  0  0  0  0  0  0  0  0
   25.0560   16.8300   11.3310 C   0  0  0  0  0  0  0  0  0  0  0  0
   25.5400   16.3770   10.1190 C   0  0  0  0  0  0  0  0  0  0  0  0
   25.6910   17.6620   12.3490 C   0  0  0  0  0  0  0  0  0  0  0  0
   26.8390   18.0600   12.2830 O   0  0  0  0  0  0  0  0  0  0  0  0
   24.7600   17.8640   13.3310 N   0  0  0  0  0  0  0  0  0  0  0  0
   25.0730   18.5310   14.5850 C   0  0  1  0  0  0  0  0  0  0  0  0
   26.1280   17.8200   15.4280 C   0  0  0  0  0  0  0  0  0  0  0  0
   26.3380   18.5950   16.7210 C   0  0  0  0  0  0  0  0  0  0  0  0
   26.7200   20.0310   16.4450 C   0  0  0  0  0  0  0  0  0  0  0  0
   27.3980   20.6910   17.2280 O   0  0  0  0  0  0  0  0  0  0  0  0
   26.2210   20.5910   15.2960 N   0  0  0  0  0  0  0  0  0  0  0  0
   25.5110   19.9710   14.2930 C   0  0  0  0  0  0  0  0  0  0  0  0
   25.2130   20.5820   13.2690 O   0  0  0  0  0  0  0  0  0  0  0  0
   23.6120   17.1610   13.0820 C   0  0  0  0  0  0  0  0  0  0  0  0
   22.6240   17.0280   13.7770 O   0  0  0  0  0  0  0  0  0  0  0  0
   21.9400   16.6410    6.3780 C   0  0  0  0  0  0  0  0  0  0  0  0
   20.9470   17.5010    6.4600 N   0  0  0  0  0  0  0  0  0  0  0  0
   18.9505   19.6125    8.5356 H   0  0  0  0  0  0  0  0  0  0  0  0
   19.8320   19.3879    6.9867 H   0  0  0  0  0  0  0  0  0  0  0  0
   18.0430   19.5494    6.9867 H   0  0  0  0  0  0  0  0  0  0  0  0
   18.5171   17.4115    8.7216 H   0  0  0  0  0  0  0  0  0  0  0  0
   17.9857   17.3148    6.9853 H   0  0  0  0  0  0  0  0  0  0  0  0
   19.9475   14.9719    8.3910 H   0  0  0  0  0  0  0  0  0  0  0  0
   27.2580   15.6947    7.8947 H   0  0  0  0  0  0  0  0  0  0  0  0
   22.7315   14.6249    9.1919 H   0  0  0  0  0  0  0  0  0  0  0  0
   21.9224   15.4741   11.4171 H   0  0  0  0  0  0  0  0  0  0  0  0
   26.5577   16.6212    9.7805 H   0  0  0  0  0  0  0  0  0  0  0  0
   24.1537   18.5132   15.1888 H   0  0  0  0  0  0  0  0  0  0  0  0
   25.7874   16.8003   15.6610 H   0  0  0  0  0  0  0  0  0  0  0  0
   27.0744   17.7673   14.8698 H   0  0  0  0  0  0  0  0  0  0  0  0
   25.4055   18.5781   17.3043 H   0  0  0  0  0  0  0  0  0  0  0  0
   27.1565   18.1197   17.2815 H   0  0  0  0  0  0  0  0  0  0  0  0
   26.3994   21.5974   15.1686 H   0  0  0  0  0  0  0  0  0  0  0  0
   22.8560   16.7957    5.7890 H   0  0  0  0  0  0  0  0  0  0  0  0
  1  2  1  0
  2  3  1  0
  3  4  2  0
  4  5  1  0
  5  6  1  0
  6  7  2  0
  6  8  2  0
  6  9  1  0
  9 10  1  0
 10 11  1  0
 11 12  2  0
 12 13  1  0
 13 14  1  0
 14 15  2  0
 15 16  1  0
 16 17  2  0
 17 18  1  0
 18 19  2  0
 18 20  1  0
 20 21  2  0
 20 22  1  0
 22 23  1  0
 23 24  1  0
 24 25  1  0
 25 26  1  0
 26 27  2  0
 26 28  1  0
 28 29  1  0
 29 30  2  0
 22 31  1  0
 31 32  2  0
  5 33  1  0
 33 34  2  0
 34  3  1  0
 13  9  2  0
 19 14  1  0
 29 23  1  0
 31 17  1  0
  1 35  1  0
  1 36  1  0
  1 37  1  0
  2 38  1  0
  2 39  1  0
  4 40  1  0
 12 41  1  0
 15 42  1  0
 16 43  1  0
 19 44  1  0
 23 45  1  1
 24 46  1  0
 24 47  1  0
 25 48  1  0
 25 49  1  0
 28 50  1  0
 33 51  1  0
M  END
>  <meeko>  (28) 
{"is_sidechain": [true], "free_energy": -11.59, "intermolecular_energy": 0.0, "internal_energy": -11.59, "cluster_size": 20, "cluster_id": 1, "rank_in_cluster": 1}

>  <_RMSD_MCS_to_ref>  (28) 
0.4396529731983004

$$$$
ligand
     RDKit          3D

 47 50  0  0  0  0  0  0  0  0999 V2000
   18.9090   19.1540    7.5370 C   0  0  0  0  0  0  0  0  0  0  0  0
   18.7730   17.6460    7.6780 C   0  0  0  0  0  0  0  0  0  0  0  0
   20.0550   16.9400    7.4080 C   0  0  0  0  0  0  0  0  0  0  0  0
   20.6220   15.8780    8.0840 C   0  0  0  0  0  0  0  0  0  0  0  0
   21.7840   15.6360    7.4100 N   0  0  0  0  0  0  0  0  0  0  0  0
   22.9730   14.5460    7.8770 S   0  0  0  0  0  6  0  0  0  0  0  0
   23.8450   14.3610    6.7360 O   0  0  0  0  0  0  0  0  0  0  0  0
   22.2460   13.4420    8.4770 O   0  0  0  0  0  0  0  0  0  0  0  0
   23.8720   15.3970    9.1510 C   0  0  0  0  0  0  0  0  0  0  0  0
   25.0960   15.9930    8.8030 C   0  0  0  0  0  0  0  0  0  0  0  0
   25.8530   16.6690    9.7500 C   0  0  0  0  0  0  0  0  0  0  0  0
   25.4020   16.7710   11.0670 C   0  0  0  0  0  0  0  0  0  0  0  0
   24.1660   16.1970   11.4580 C   0  0  0  0  0  0  0  0  0  0  0  0
   23.4740   16.1670   12.7380 C   0  0  0  0  0  0  0  0  0  0  0  0
   23.9600   16.7700   13.9950 C   0  0  0  0  0  0  0  0  0  0  0  0
   23.8510   16.2290   15.0920 O   0  0  0  0  0  0  0  0  0  0  0  0
   24.5420   18.0090   13.8410 N   0  0  0  0  0  0  0  0  0  0  0  0
   24.9450   18.8300   14.9660 C   0  0  1  0  0  0  0  0  0  0  0  0
   25.9370   18.1090   15.8720 C   0  0  0  0  0  0  0  0  0  0  0  0
   26.3380   19.0250   17.0190 C   0  0  0  0  0  0  0  0  0  0  0  0
   26.8940   20.3330   16.5080 C   0  0  0  0  0  0  0  0  0  0  0  0
   27.7710   20.9520   17.1020 O   0  0  0  0  0  0  0  0  0  0  0  0
   26.3430   20.8240   15.3510 N   0  0  0  0  0  0  0  0  0  0  0  0
   25.5880   20.1200   14.4450 C   0  0  0  0  0  0  0  0  0  0  0  0
   25.4340   20.5310   13.2970 O   0  0  0  0  0  0  0  0  0  0  0  0
   22.2990   15.5260   12.7400 N   0  0  0  0  0  0  0  0  0  0  0  0
   21.9790   14.9570   11.2330 S   0  0  0  0  0  0  0  0  0  0  0  0
   23.4190   15.5210   10.4810 C   0  0  0  0  0  0  0  0  0  0  0  0
   21.9000   16.5170    6.3860 C   0  0  0  0  0  0  0  0  0  0  0  0
   20.8650   17.3300    6.3600 N   0  0  0  0  0  0  0  0  0  0  0  0
   18.9504   19.6134    8.5356 H   0  0  0  0  0  0  0  0  0  0  0  0
   19.8320   19.3891    6.9867 H   0  0  0  0  0  0  0  0  0  0  0  0
   18.0430   19.5504    6.9867 H   0  0  0  0  0  0  0  0  0  0  0  0
   18.4493   17.4135    8.7033 H   0  0  0  0  0  0  0  0  0  0  0  0
   18.0349   17.3021    6.9384 H   0  0  0  0  0  0  0  0  0  0  0  0
   20.2277   15.3484    8.9638 H   0  0  0  0  0  0  0  0  0  0  0  0
   25.4589   15.9230    7.7670 H   0  0  0  0  0  0  0  0  0  0  0  0
   26.8113   17.1257    9.4617 H   0  0  0  0  0  0  0  0  0  0  0  0
   26.0131   17.3033   11.8107 H   0  0  0  0  0  0  0  0  0  0  0  0
   24.6972   18.3668   12.8877 H   0  0  0  0  0  0  0  0  0  0  0  0
   24.0456   19.0542   15.5583 H   0  0  0  0  0  0  0  0  0  0  0  0
   25.4695   17.1990   16.2762 H   0  0  0  0  0  0  0  0  0  0  0  0
   26.8310   17.8364   15.2919 H   0  0  0  0  0  0  0  0  0  0  0  0
   25.4535   19.2298   17.6400 H   0  0  0  0  0  0  0  0  0  0  0  0
   27.1191   18.5222   17.6081 H   0  0  0  0  0  0  0  0  0  0  0  0
   26.5123   21.8182   15.1415 H   0  0  0  0  0  0  0  0  0  0  0  0
   22.7404   16.5480    5.6770 H   0  0  0  0  0  0  0  0  0  0  0  0
  1  2  1  0
  2  3  1  0
  3  4  2  0
  4  5  1  0
  5  6  1  0
  6  7  2  0
  6  8  2  0
  6  9  1  0
  9 10  2  0
 10 11  1  0
 11 12  2  0
 12 13  1  0
 13 14  1  0
 14 15  1  0
 15 16  2  0
 15 17  1  0
 17 18  1  0
 18 19  1  0
 19 20  1  0
 20 21  1  0
 21 22  2  0
 21 23  1  0
 23 24  1  0
 24 25  2  0
 14 26  2  0
 26 27  1  0
 27 28  1  0
  5 29  1  0
 29 30  2  0
 30  3  1  0
 28  9  1  0
 28 13  2  0
 24 18  1  0
  1 31  1  0
  1 32  1  0
  1 33  1  0
  2 34  1  0
  2 35  1  0
  4 36  1  0
 10 37  1  0
 11 38  1  0
 12 39  1  0
 17 40  1  0
 18 41  1  1
 19 42  1  0
 19 43  1  0
 20 44  1  0
 20 45  1  0
 23 46  1  0
 29 47  1  0
M  END
>  <meeko>  (29) 
{"is_sidechain": [true], "free_energy": -11.59, "intermolecular_energy": 0.0, "internal_energy": -11.59, "cluster_size": 15, "cluster_id": 1, "rank_in_cluster": 1}

>  <_RMSD_MCS_to_ref>  (29) 
0.5704936458892422

$$$$
ligand
     RDKit          3D

 56 60  0  0  0  0  0  0  0  0999 V2000
   18.8250   19.0170    7.5350 C   0  0  0  0  0  0  0  0  0  0  0  0
   18.5200   17.5420    7.7330 C   0  0  0  0  0  0  0  0  0  0  0  0
   19.7460   16.6990    7.7270 C   0  0  0  0  0  0  0  0  0  0  0  0
   20.1800   15.7880    8.6710 C   0  0  0  0  0  0  0  0  0  0  0  0
   21.3620   15.3260    8.1710 N   0  0  0  0  0  0  0  0  0  0  0  0
   22.4260   14.2740    8.9280 S   0  0  0  0  0  6  0  0  0  0  0  0
   21.6140   13.1070    9.2190 O   0  0  0  0  0  0  0  0  0  0  0  0
   23.6110   14.1870    8.0970 O   0  0  0  0  0  0  0  0  0  0  0  0
   22.8820   15.0330   10.4770 C   0  0  0  0  0  0  0  0  0  0  0  0
   21.8500   15.1490   11.4460 C   0  0  0  0  0  0  0  0  0  0  0  0
   22.0950   15.7280   12.6890 C   0  0  0  0  0  0  0  0  0  0  0  0
   23.3790   16.1660   12.9360 C   0  0  0  0  0  0  0  0  0  0  0  0
   24.4090   16.0560   12.0020 C   0  0  0  0  0  0  0  0  0  0  0  0
   24.1960   15.4870   10.7410 C   0  0  0  0  0  0  0  0  0  0  0  0
   25.3230   15.3880    9.8090 C   0  0  0  0  0  0  0  0  0  0  0  0
   26.2160   14.3070    9.8690 C   0  0  0  0  0  0  0  0  0  0  0  0
   27.3100   14.2360    9.0050 C   0  0  0  0  0  0  0  0  0  0  0  0
   27.5360   15.2510    8.0800 C   0  0  0  0  0  0  0  0  0  0  0  0
   26.6670   16.3380    8.0160 C   0  0  0  0  0  0  0  0  0  0  0  0
   25.5680   16.4060    8.8750 C   0  0  0  0  0  0  0  0  0  0  0  0
   25.6650   16.6290   12.5850 C   0  0  0  0  0  0  0  0  0  0  0  0
   25.2710   16.9700   13.9440 N   0  0  0  0  0  0  0  0  0  0  0  0
   26.1320   17.7840   14.7980 C   0  0  2  0  0  0  0  0  0  0  0  0
   25.7550   17.7410   16.2770 C   0  0  0  0  0  0  0  0  0  0  0  0
   26.7510   18.5680   17.0740 C   0  0  0  0  0  0  0  0  0  0  0  0
   26.8160   19.9880   16.5650 C   0  0  0  0  0  0  0  0  0  0  0  0
   27.1950   20.9190   17.2710 O   0  0  0  0  0  0  0  0  0  0  0  0
   26.5080   20.1840   15.2430 N   0  0  0  0  0  0  0  0  0  0  0  0
   26.1900   19.2360   14.2990 C   0  0  0  0  0  0  0  0  0  0  0  0
   26.0680   19.5520   13.1140 O   0  0  0  0  0  0  0  0  0  0  0  0
   23.9110   16.8010   14.1460 C   0  0  0  0  0  0  0  0  0  0  0  0
   23.2410   17.1180   15.1090 O   0  0  0  0  0  0  0  0  0  0  0  0
   21.6400   15.9740    7.0100 C   0  0  0  0  0  0  0  0  0  0  0  0
   20.6550   16.7870    6.6880 N   0  0  0  0  0  0  0  0  0  0  0  0
   18.9260   19.5054    8.5155 H   0  0  0  0  0  0  0  0  0  0  0  0
   19.7645   19.1250    6.9731 H   0  0  0  0  0  0  0  0  0  0  0  0
   18.0054   19.4887    6.9731 H   0  0  0  0  0  0  0  0  0  0  0  0
   18.0092   17.4143    8.6988 H   0  0  0  0  0  0  0  0  0  0  0  0
   17.8876   17.2167    6.8938 H   0  0  0  0  0  0  0  0  0  0  0  0
   19.6854   15.5010    9.6107 H   0  0  0  0  0  0  0  0  0  0  0  0
   20.8421   14.7760   11.2113 H   0  0  0  0  0  0  0  0  0  0  0  0
   21.2988   15.8313   13.4409 H   0  0  0  0  0  0  0  0  0  0  0  0
   26.0519   13.5065   10.6054 H   0  0  0  0  0  0  0  0  0  0  0  0
   27.9946   13.3765    9.0553 H   0  0  0  0  0  0  0  0  0  0  0  0
   28.3993   15.1951    7.4006 H   0  0  0  0  0  0  0  0  0  0  0  0
   26.8466   17.1432    7.2884 H   0  0  0  0  0  0  0  0  0  0  0  0
   24.8865   17.2676    8.8187 H   0  0  0  0  0  0  0  0  0  0  0  0
   26.4761   15.8860   12.5835 H   0  0  0  0  0  0  0  0  0  0  0  0
   26.0526   17.4883   12.0181 H   0  0  0  0  0  0  0  0  0  0  0  0
   27.1328   17.3335   14.7239 H   0  0  0  0  0  0  0  0  0  0  0  0
   24.7443   18.1541   16.4107 H   0  0  0  0  0  0  0  0  0  0  0  0
   25.7734   16.6999   16.6317 H   0  0  0  0  0  0  0  0  0  0  0  0
   26.4434   18.5795   18.1301 H   0  0  0  0  0  0  0  0  0  0  0  0
   27.7467   18.1136   16.9638 H   0  0  0  0  0  0  0  0  0  0  0  0
   26.5158   21.1611   14.9173 H   0  0  0  0  0  0  0  0  0  0  0  0
   22.5592   15.8387    6.4211 H   0  0  0  0  0  0  0  0  0  0  0  0
  1  2  1  0
  2  3  1  0
  3  4  2  0
  4  5  1  0
  5  6  1  0
  6  7  2  0
  6  8  2  0
  6  9  1  0
  9 10  2  0
 10 11  1  0
 11 12  2  0
 12 13  1  0
 13 14  2  0
 14 15  1  0
 15 16  2  0
 16 17  1  0
 17 18  2  0
 18 19  1  0
 19 20  2  0
 13 21  1  0
 21 22  1  0
 22 23  1  0
 23 24  1  0
 24 25  1  0
 25 26  1  0
 26 27  2  0
 26 28  1  0
 28 29  1  0
 29 30  2  0
 22 31  1  0
 31 32  2  0
  5 33  1  0
 33 34  2  0
 34  3  1  0
 14  9  1  0
 20 15  1  0
 29 23  1  0
 31 12  1  0
  1 35  1  0
  1 36  1  0
  1 37  1  0
  2 38  1  0
  2 39  1  0
  4 40  1  0
 10 41  1  0
 11 42  1  0
 16 43  1  0
 17 44  1  0
 18 45  1  0
 19 46  1  0
 20 47  1  0
 21 48  1  0
 21 49  1  0
 23 50  1  1
 24 51  1  0
 24 52  1  0
 25 53  1  0
 25 54  1  0
 28 55  1  0
 33 56  1  0
M  END
>  <meeko>  (30) 
{"is_sidechain": [true], "free_energy": -11.58, "intermolecular_energy": 0.0, "internal_energy": -11.58, "cluster_size": 12, "cluster_id": 1, "rank_in_cluster": 1}

>  <_RMSD_MCS_to_ref>  (30) 
0.8696307326165009

$$$$
ligand
     RDKit          3D

 50 53  0  0  0  0  0  0  0  0999 V2000
   18.9090   19.1540    7.5370 C   0  0  0  0  0  0  0  0  0  0  0  0
   18.7730   17.6460    7.6780 C   0  0  0  0  0  0  0  0  0  0  0  0
   20.0530   16.9380    7.4030 C   0  0  0  0  0  0  0  0  0  0  0  0
   20.9610   16.4050    8.2960 C   0  0  0  0  0  0  0  0  0  0  0  0
   21.9390   15.8800    7.5010 N   0  0  0  0  0  0  0  0  0  0  0  0
   23.2880   15.0340    8.0390 S   0  0  0  0  0  6  0  0  0  0  0  0
   22.9960   13.6250    7.8710 O   0  0  0  0  0  0  0  0  0  0  0  0
   24.4010   15.6690    7.3580 O   0  0  0  0  0  0  0  0  0  0  0  0
   23.3910   15.4020    9.7640 C   0  0  0  0  0  0  0  0  0  0  0  0
   24.4100   16.2620   10.1380 C   0  0  0  0  0  0  0  0  0  0  0  0
   24.5890   16.6930   11.3980 N   0  0  0  0  0  0  0  0  0  0  0  0
   23.7170   16.2430   12.3510 C   0  0  0  0  0  0  0  0  0  0  0  0
   24.0190   16.8300   13.7200 C   0  0  0  0  0  0  0  0  0  0  0  0
   23.6260   16.3580   14.7790 O   0  0  0  0  0  0  0  0  0  0  0  0
   24.7730   17.9860   13.6740 N   0  0  0  0  0  0  0  0  0  0  0  0
   25.0250   18.8060   14.8440 C   0  0  1  0  0  0  0  0  0  0  0  0
   25.9140   18.0930   15.8590 C   0  0  0  0  0  0  0  0  0  0  0  0
   26.1600   19.0060   17.0500 C   0  0  0  0  0  0  0  0  0  0  0  0
   26.7510   20.3270   16.6160 C   0  0  0  0  0  0  0  0  0  0  0  0
   27.5420   20.9540   17.3150 O   0  0  0  0  0  0  0  0  0  0  0  0
   26.3340   20.8190   15.4060 N   0  0  0  0  0  0  0  0  0  0  0  0
   25.7040   20.1100   14.4120 C   0  0  0  0  0  0  0  0  0  0  0  0
   25.6820   20.5310   13.2560 O   0  0  0  0  0  0  0  0  0  0  0  0
   22.6530   15.3420   12.0870 C   0  0  0  0  0  0  0  0  0  0  0  0
   21.7460   14.8520   13.0660 C   0  0  0  0  0  0  0  0  0  0  0  0
   20.7250   13.9580   12.7550 C   0  0  0  0  0  0  0  0  0  0  0  0
   20.5830   13.5120   11.4550 C   0  0  0  0  0  0  0  0  0  0  0  0
   21.4560   13.9700   10.4690 C   0  0  0  0  0  0  0  0  0  0  0  0
   22.4950   14.8980   10.7410 C   0  0  0  0  0  0  0  0  0  0  0  0
   21.6360   16.1160    6.2000 C   0  0  0  0  0  0  0  0  0  0  0  0
   20.4810   16.7410    6.1040 N   0  0  0  0  0  0  0  0  0  0  0  0
   18.9504   19.6134    8.5356 H   0  0  0  0  0  0  0  0  0  0  0  0
   19.8320   19.3891    6.9867 H   0  0  0  0  0  0  0  0  0  0  0  0
   18.0430   19.5504    6.9867 H   0  0  0  0  0  0  0  0  0  0  0  0
   18.4530   17.4136    8.7045 H   0  0  0  0  0  0  0  0  0  0  0  0
   18.0323   17.3033    6.9405 H   0  0  0  0  0  0  0  0  0  0  0  0
   20.9086   16.4036    9.3948 H   0  0  0  0  0  0  0  0  0  0  0  0
   25.1091   16.6103    9.3634 H   0  0  0  0  0  0  0  0  0  0  0  0
   25.1733   18.2783   12.7711 H   0  0  0  0  0  0  0  0  0  0  0  0
   24.0573   19.0121   15.3248 H   0  0  0  0  0  0  0  0  0  0  0  0
   25.4163   17.1730   16.1994 H   0  0  0  0  0  0  0  0  0  0  0  0
   26.8752   17.8385   15.3884 H   0  0  0  0  0  0  0  0  0  0  0  0
   25.2045   19.1919   17.5624 H   0  0  0  0  0  0  0  0  0  0  0  0
   26.8737   18.5113   17.7252 H   0  0  0  0  0  0  0  0  0  0  0  0
   26.5102   21.8175   15.2246 H   0  0  0  0  0  0  0  0  0  0  0  0
   21.8548   15.1914   14.1067 H   0  0  0  0  0  0  0  0  0  0  0  0
   20.0363   13.6092   13.5386 H   0  0  0  0  0  0  0  0  0  0  0  0
   19.7852   12.7992   11.1992 H   0  0  0  0  0  0  0  0  0  0  0  0
   21.3349   13.5979    9.4410 H   0  0  0  0  0  0  0  0  0  0  0  0
   22.2660   15.8263    5.3461 H   0  0  0  0  0  0  0  0  0  0  0  0
  1  2  1  0
  2  3  1  0
  3  4  2  0
  4  5  1  0
  5  6  1  0
  6  7  2  0
  6  8  2  0
  6  9  1  0
  9 10  2  0
 10 11  1  0
 11 12  2  0
 12 13  1  0
 13 14  2  0
 13 15  1  0
 15 16  1  0
 16 17  1  0
 17 18  1  0
 18 19  1  0
 19 20  2  0
 19 21  1  0
 21 22  1  0
 22 23  2  0
 12 24  1  0
 24 25  2  0
 25 26  1  0
 26 27  2  0
 27 28  1  0
 28 29  2  0
  5 30  1  0
 30 31  2  0
 31  3  1  0
 29  9  1  0
 22 16  1  0
 29 24  1  0
  1 32  1  0
  1 33  1  0
  1 34  1  0
  2 35  1  0
  2 36  1  0
  4 37  1  0
 10 38  1  0
 15 39  1  0
 16 40  1  1
 17 41  1  0
 17 42  1  0
 18 43  1  0
 18 44  1  0
 21 45  1  0
 25 46  1  0
 26 47  1  0
 27 48  1  0
 28 49  1  0
 30 50  1  0
M  END
>  <meeko>  (31) 
{"is_sidechain": [true], "free_energy": -11.57, "intermolecular_energy": 0.0, "internal_energy": -11.57, "cluster_size": 13, "cluster_id": 1, "rank_in_cluster": 1}

>  <_RMSD_MCS_to_ref>  (31) 
0.594654334700234

$$$$
ligand
     RDKit          3D

 51 55  0  0  0  0  0  0  0  0999 V2000
   18.7970   18.8170    7.7190 C   0  0  0  0  0  0  0  0  0  0  0  0
   18.5280   17.3290    7.8810 C   0  0  0  0  0  0  0  0  0  0  0  0
   19.7730   16.5200    7.7870 C   0  0  0  0  0  0  0  0  0  0  0  0
   20.3650   15.7180    8.7420 C   0  0  0  0  0  0  0  0  0  0  0  0
   21.4860   15.2360    8.1290 N   0  0  0  0  0  0  0  0  0  0  0  0
   22.4830   14.0230    8.7240 S   0  0  0  0  0  6  0  0  0  0  0  0
   21.6490   12.8460    8.8590 O   0  0  0  0  0  0  0  0  0  0  0  0
   23.6710   14.0460    7.8930 O   0  0  0  0  0  0  0  0  0  0  0  0
   22.9210   14.6000   10.3440 C   0  0  0  0  0  0  0  0  0  0  0  0
   24.0810   15.3550   10.5060 C   0  0  0  0  0  0  0  0  0  0  0  0
   24.3690   15.7710   11.7890 C   0  0  0  0  0  0  0  0  0  0  0  0
   23.5550   15.4860   12.8890 C   0  0  0  0  0  0  0  0  0  0  0  0
   22.3730   14.7580   12.7400 C   0  0  0  0  0  0  0  0  0  0  0  0
   21.5140   14.4820   13.9020 C   0  0  0  0  0  0  0  0  0  0  0  0
   20.9410   15.4120   14.6450 N   0  0  0  0  0  0  0  0  0  0  0  0
   20.1650   14.8920   15.6600 N   0  0  0  0  0  0  0  0  0  0  0  0
   20.1690   13.5790   15.6490 C   0  0  0  0  0  0  0  0  0  0  0  0
   21.1190   12.8800   14.4090 S   0  0  0  0  0  0  0  0  0  0  0  0
   22.0710   14.3110   11.4370 C   0  0  0  0  0  0  0  0  0  0  0  0
   24.1510   16.1060   14.1180 C   0  0  0  0  0  0  0  0  0  0  0  0
   25.3890   16.6910   13.6180 N   0  0  0  0  0  0  0  0  0  0  0  0
   26.1830   17.6480   14.3810 C   0  0  2  0  0  0  0  0  0  0  0  0
   25.9950   17.4980   15.8880 C   0  0  0  0  0  0  0  0  0  0  0  0
   26.9130   18.4730   16.6100 C   0  0  0  0  0  0  0  0  0  0  0  0
   26.6750   19.8920   16.1510 C   0  0  0  0  0  0  0  0  0  0  0  0
   26.7810   20.8530   16.9060 O   0  0  0  0  0  0  0  0  0  0  0  0
   26.3570   20.0650   14.8270 N   0  0  0  0  0  0  0  0  0  0  0  0
   25.8690   19.0990   13.9770 C   0  0  0  0  0  0  0  0  0  0  0  0
   25.2300   19.4160   12.9760 O   0  0  0  0  0  0  0  0  0  0  0  0
   25.5080   16.5730   12.2460 C   0  0  0  0  0  0  0  0  0  0  0  0
   26.3680   17.0290   11.5190 O   0  0  0  0  0  0  0  0  0  0  0  0
   21.5280   15.6960    6.8520 C   0  0  0  0  0  0  0  0  0  0  0  0
   20.5030   16.4880    6.6150 N   0  0  0  0  0  0  0  0  0  0  0  0
   18.8815   19.2845    8.7111 H   0  0  0  0  0  0  0  0  0  0  0  0
   19.7359   18.9616    7.1643 H   0  0  0  0  0  0  0  0  0  0  0  0
   17.9682   19.2812    7.1643 H   0  0  0  0  0  0  0  0  0  0  0  0
   18.0672   17.1573    8.8650 H   0  0  0  0  0  0  0  0  0  0  0  0
   17.8590   17.0158    7.0659 H   0  0  0  0  0  0  0  0  0  0  0  0
   20.0137   15.5137    9.7642 H   0  0  0  0  0  0  0  0  0  0  0  0
   24.7323   15.6058    9.6558 H   0  0  0  0  0  0  0  0  0  0  0  0
   19.6070   12.9768   16.3781 H   0  0  0  0  0  0  0  0  0  0  0  0
   21.1554   13.7254   11.2672 H   0  0  0  0  0  0  0  0  0  0  0  0
   23.4874   16.8787   14.5334 H   0  0  0  0  0  0  0  0  0  0  0  0
   24.3087   15.3869   14.9353 H   0  0  0  0  0  0  0  0  0  0  0  0
   27.2315   17.4208   14.1381 H   0  0  0  0  0  0  0  0  0  0  0  0
   24.9492   17.7149   16.1510 H   0  0  0  0  0  0  0  0  0  0  0  0
   26.2413   16.4690   16.1889 H   0  0  0  0  0  0  0  0  0  0  0  0
   26.7236   18.4096   17.6917 H   0  0  0  0  0  0  0  0  0  0  0  0
   27.9547   18.2038   16.3813 H   0  0  0  0  0  0  0  0  0  0  0  0
   26.4967   21.0062   14.4326 H   0  0  0  0  0  0  0  0  0  0  0  0
   22.3081   15.4428    6.1190 H   0  0  0  0  0  0  0  0  0  0  0  0
  1  2  1  0
  2  3  1  0
  3  4  2  0
  4  5  1  0
  5  6  1  0
  6  7  2  0
  6  8  2  0
  6  9  1  0
  9 10  2  0
 10 11  1  0
 11 12  2  0
 12 13  1  0
 13 14  1  0
 14 15  2  0
 15 16  1  0
 16 17  2  0
 17 18  1  0
 13 19  2  0
 12 20  1  0
 20 21  1  0
 21 22  1  0
 22 23  1  0
 23 24  1  0
 24 25  1  0
 25 26  2  0
 25 27  1  0
 27 28  1  0
 28 29  2  0
 21 30  1  0
 30 31  2  0
  5 32  1  0
 32 33  2  0
 33  3  1  0
 19  9  1  0
 28 22  1  0
 30 11  1  0
 18 14  1  0
  1 34  1  0
  1 35  1  0
  1 36  1  0
  2 37  1  0
  2 38  1  0
  4 39  1  0
 10 40  1  0
 17 41  1  0
 19 42  1  0
 20 43  1  0
 20 44  1  0
 22 45  1  1
 23 46  1  0
 23 47  1  0
 24 48  1  0
 24 49  1  0
 27 50  1  0
 32 51  1  0
M  END
>  <meeko>  (32) 
{"is_sidechain": [true], "free_energy": -11.56, "intermolecular_energy": 0.0, "internal_energy": -11.56, "cluster_size": 18, "cluster_id": 1, "rank_in_cluster": 1}

>  <_RMSD_MCS_to_ref>  (32) 
1.9784881292991818

$$$$
ligand
     RDKit          3D

 47 50  0  0  0  0  0  0  0  0999 V2000
   18.9090   19.1540    7.5370 C   0  0  0  0  0  0  0  0  0  0  0  0
   18.7730   17.6460    7.6780 C   0  0  0  0  0  0  0  0  0  0  0  0
   20.0210   16.9300    7.2990 C   0  0  0  0  0  0  0  0  0  0  0  0
   20.7150   15.9620    7.9970 C   0  0  0  0  0  0  0  0  0  0  0  0
   21.7910   15.6820    7.2040 N   0  0  0  0  0  0  0  0  0  0  0  0
   22.8620   14.3980    7.4180 S   0  0  0  0  0  6  0  0  0  0  0  0
   24.1100   14.8560    6.8370 O   0  0  0  0  0  0  0  0  0  0  0  0
   22.1610   13.2390    6.8970 O   0  0  0  0  0  0  0  0  0  0  0  0
   23.0490   14.2320    9.0290 O   0  0  0  0  0  0  0  0  0  0  0  0
   23.8260   15.0790    9.7790 C   0  0  0  0  0  0  0  0  0  0  0  0
   24.9540   15.7790    9.3070 C   0  0  0  0  0  0  0  0  0  0  0  0
   25.6830   16.6270   10.1550 C   0  0  0  0  0  0  0  0  0  0  0  0
   25.2650   16.7580   11.4680 C   0  0  0  0  0  0  0  0  0  0  0  0
   24.1520   16.0680   11.9190 C   0  0  0  0  0  0  0  0  0  0  0  0
   23.4140   15.2250   11.1080 C   0  0  0  0  0  0  0  0  0  0  0  0
   23.8470   16.4200   13.5920 S   0  0  0  0  0  6  0  0  0  0  0  0
   22.6420   17.2050   13.6940 O   0  0  0  0  0  0  0  0  0  0  0  0
   24.0840   15.2260   14.3670 O   0  0  0  0  0  0  0  0  0  0  0  0
   25.1930   17.4180   13.7300 N   0  0  0  0  0  0  0  0  0  0  0  0
   25.2640   18.3070   14.8970 C   0  0  1  0  0  0  0  0  0  0  0  0
   26.3040   17.7950   15.8870 C   0  0  0  0  0  0  0  0  0  0  0  0
   26.3940   18.7490   17.0700 C   0  0  0  0  0  0  0  0  0  0  0  0
   26.7110   20.1540   16.6150 C   0  0  0  0  0  0  0  0  0  0  0  0
   27.3100   20.9540   17.3270 O   0  0  0  0  0  0  0  0  0  0  0  0
   26.2360   20.5190   15.3800 N   0  0  0  0  0  0  0  0  0  0  0  0
   25.6010   19.7290   14.4510 C   0  0  0  0  0  0  0  0  0  0  0  0
   25.3030   20.1830   13.3460 O   0  0  0  0  0  0  0  0  0  0  0  0
   25.8890   17.5950   12.5100 C   0  0  0  0  0  0  0  0  0  0  0  0
   26.8530   18.3190   12.3470 O   0  0  0  0  0  0  0  0  0  0  0  0
   21.6900   16.3930    6.0520 C   0  0  0  0  0  0  0  0  0  0  0  0
   20.6370   17.1820    6.0880 N   0  0  0  0  0  0  0  0  0  0  0  0
   18.9504   19.6134    8.5356 H   0  0  0  0  0  0  0  0  0  0  0  0
   19.8320   19.3891    6.9867 H   0  0  0  0  0  0  0  0  0  0  0  0
   18.0430   19.5504    6.9867 H   0  0  0  0  0  0  0  0  0  0  0  0
   18.5326   17.4086    8.7248 H   0  0  0  0  0  0  0  0  0  0  0  0
   17.9744   17.3145    6.9981 H   0  0  0  0  0  0  0  0  0  0  0  0
   20.4595   15.5175    8.9702 H   0  0  0  0  0  0  0  0  0  0  0  0
   25.2676   15.6592    8.2595 H   0  0  0  0  0  0  0  0  0  0  0  0
   26.5635   17.1733    9.7858 H   0  0  0  0  0  0  0  0  0  0  0  0
   22.5347   14.6886   11.4941 H   0  0  0  0  0  0  0  0  0  0  0  0
   24.2847   18.3190   15.3979 H   0  0  0  0  0  0  0  0  0  0  0  0
   26.0104   16.7965   16.2431 H   0  0  0  0  0  0  0  0  0  0  0  0
   27.2836   17.7347   15.3902 H   0  0  0  0  0  0  0  0  0  0  0  0
   25.4313   18.7527   17.6022 H   0  0  0  0  0  0  0  0  0  0  0  0
   27.2021   18.4067   17.7332 H   0  0  0  0  0  0  0  0  0  0  0  0
   26.3719   21.5055   15.1170 H   0  0  0  0  0  0  0  0  0  0  0  0
   22.3901   16.3200    5.2067 H   0  0  0  0  0  0  0  0  0  0  0  0
  1  2  1  0
  2  3  1  0
  3  4  2  0
  4  5  1  0
  5  6  1  0
  6  7  2  0
  6  8  2  0
  6  9  1  0
  9 10  1  0
 10 11  2  0
 11 12  1  0
 12 13  2  0
 13 14  1  0
 14 15  2  0
 14 16  1  0
 16 17  2  0
 16 18  2  0
 16 19  1  0
 19 20  1  0
 20 21  1  0
 21 22  1  0
 22 23  1  0
 23 24  2  0
 23 25  1  0
 25 26  1  0
 26 27  2  0
 19 28  1  0
 28 29  2  0
  5 30  1  0
 30 31  2  0
 31  3  1  0
 15 10  1  0
 26 20  1  0
 28 13  1  0
  1 32  1  0
  1 33  1  0
  1 34  1  0
  2 35  1  0
  2 36  1  0
  4 37  1  0
 11 38  1  0
 12 39  1  0
 15 40  1  0
 20 41  1  1
 21 42  1  0
 21 43  1  0
 22 44  1  0
 22 45  1  0
 25 46  1  0
 30 47  1  0
M  END
>  <meeko>  (33) 
{"is_sidechain": [true], "free_energy": -11.56, "intermolecular_energy": 0.0, "internal_energy": -11.56, "cluster_size": 20, "cluster_id": 1, "rank_in_cluster": 1}

>  <_RMSD_MCS_to_ref>  (33) 
0.43262994194422844

$$$$
ligand
     RDKit          3D

 53 57  0  0  0  0  0  0  0  0999 V2000
   18.9090   19.1540    7.5370 C   0  0  0  0  0  0  0  0  0  0  0  0
   18.7730   17.6460    7.6780 C   0  0  0  0  0  0  0  0  0  0  0  0
   20.0370   16.9340    7.3490 C   0  0  0  0  0  0  0  0  0  0  0  0
   20.4750   15.6960    7.7770 C   0  0  0  0  0  0  0  0  0  0  0  0
   21.6990   15.5530    7.1880 N   0  0  0  0  0  0  0  0  0  0  0  0
   22.6200   14.1540    7.1950 S   0  0  0  0  0  6  0  0  0  0  0  0
   22.3170   13.4450    8.4190 O   0  0  0  0  0  0  0  0  0  0  0  0
   22.4660   13.5630    5.8800 O   0  0  0  0  0  0  0  0  0  0  0  0
   24.3170   14.5680    7.2900 C   0  0  0  0  0  0  0  0  0  0  0  0
   25.1350   14.2680    6.2350 N   0  0  0  0  0  0  0  0  0  0  0  0
   26.4020   14.6890    6.3870 N   0  0  0  0  0  0  0  0  0  0  0  0
   26.4060   15.2430    7.6010 C   0  0  0  0  0  0  0  0  0  0  0  0
   25.1380   15.1880    8.2160 C   0  0  0  0  0  0  0  0  0  0  0  0
   24.7000   15.6960    9.4930 C   0  0  0  0  0  0  0  0  0  0  0  0
   23.3760   15.4510    9.9220 C   0  0  0  0  0  0  0  0  0  0  0  0
   22.9250   15.9030   11.1680 C   0  0  0  0  0  0  0  0  0  0  0  0
   23.8100   16.6040   11.9670 C   0  0  0  0  0  0  0  0  0  0  0  0
   25.1100   16.8470   11.5280 C   0  0  0  0  0  0  0  0  0  0  0  0
   25.5850   16.4130   10.3050 C   0  0  0  0  0  0  0  0  0  0  0  0
   25.8050   17.6170   12.5640 C   0  0  0  0  0  0  0  0  0  0  0  0
   26.9320   18.0590   12.4680 O   0  0  0  0  0  0  0  0  0  0  0  0
   24.9160   17.7680   13.6160 N   0  0  0  0  0  0  0  0  0  0  0  0
   25.1860   18.6560   14.7430 C   0  0  1  0  0  0  0  0  0  0  0  0
   26.1680   18.0060   15.7210 C   0  0  0  0  0  0  0  0  0  0  0  0
   26.3270   18.8830   16.9520 C   0  0  0  0  0  0  0  0  0  0  0  0
   26.7640   20.2770   16.5750 C   0  0  0  0  0  0  0  0  0  0  0  0
   27.5000   20.9520   17.2870 O   0  0  0  0  0  0  0  0  0  0  0  0
   26.2720   20.7750   15.3950 N   0  0  0  0  0  0  0  0  0  0  0  0
   25.6990   20.0560   14.3700 C   0  0  0  0  0  0  0  0  0  0  0  0
   25.6060   20.5560   13.2510 O   0  0  0  0  0  0  0  0  0  0  0  0
   23.6080   17.1910   13.3270 C   0  0  0  0  0  0  0  0  0  0  0  0
   21.9530   16.6390    6.4160 C   0  0  0  0  0  0  0  0  0  0  0  0
   20.9630   17.5040    6.4970 N   0  0  0  0  0  0  0  0  0  0  0  0
   18.9504   19.6134    8.5356 H   0  0  0  0  0  0  0  0  0  0  0  0
   19.8320   19.3891    6.9867 H   0  0  0  0  0  0  0  0  0  0  0  0
   18.0430   19.5504    6.9867 H   0  0  0  0  0  0  0  0  0  0  0  0
   18.4940   17.4111    8.7158 H   0  0  0  0  0  0  0  0  0  0  0  0
   18.0018   17.3091    6.9697 H   0  0  0  0  0  0  0  0  0  0  0  0
   19.9569   14.9876    8.4402 H   0  0  0  0  0  0  0  0  0  0  0  0
   24.8084   13.7640    5.3982 H   0  0  0  0  0  0  0  0  0  0  0  0
   27.2955   15.6908    8.0681 H   0  0  0  0  0  0  0  0  0  0  0  0
   22.6887   14.8962    9.2664 H   0  0  0  0  0  0  0  0  0  0  0  0
   21.8956   15.7061   11.5021 H   0  0  0  0  0  0  0  0  0  0  0  0
   26.6159   16.6226    9.9835 H   0  0  0  0  0  0  0  0  0  0  0  0
   24.2021   18.8078   15.2108 H   0  0  0  0  0  0  0  0  0  0  0  0
   25.7842   17.0201   16.0224 H   0  0  0  0  0  0  0  0  0  0  0  0
   27.1454   17.8897   15.2299 H   0  0  0  0  0  0  0  0  0  0  0  0
   25.3634   18.9392   17.4796 H   0  0  0  0  0  0  0  0  0  0  0  0
   27.0977   18.4390   17.5992 H   0  0  0  0  0  0  0  0  0  0  0  0
   26.3383   21.7942   15.2619 H   0  0  0  0  0  0  0  0  0  0  0  0
   23.3446   16.4147   14.0605 H   0  0  0  0  0  0  0  0  0  0  0  0
   22.7858   17.9202   13.3735 H   0  0  0  0  0  0  0  0  0  0  0  0
   22.8588   16.7778    5.8076 H   0  0  0  0  0  0  0  0  0  0  0  0
  1  2  1  0
  2  3  1  0
  3  4  2  0
  4  5  1  0
  5  6  1  0
  6  7  2  0
  6  8  2  0
  6  9  1  0
  9 10  1  0
 10 11  1  0
 11 12  2  0
 12 13  1  0
 13 14  1  0
 14 15  2  0
 15 16  1  0
 16 17  2  0
 17 18  1  0
 18 19  2  0
 18 20  1  0
 20 21  2  0
 20 22  1  0
 22 23  1  0
 23 24  1  0
 24 25  1  0
 25 26  1  0
 26 27  2  0
 26 28  1  0
 28 29  1  0
 29 30  2  0
 22 31  1  0
  5 32  1  0
 32 33  2  0
 33  3  1  0
 13  9  2  0
 19 14  1  0
 29 23  1  0
 31 17  1  0
  1 34  1  0
  1 35  1  0
  1 36  1  0
  2 37  1  0
  2 38  1  0
  4 39  1  0
 10 40  1  0
 12 41  1  0
 15 42  1  0
 16 43  1  0
 19 44  1  0
 23 45  1  1
 24 46  1  0
 24 47  1  0
 25 48  1  0
 25 49  1  0
 28 50  1  0
 31 51  1  0
 31 52  1  0
 32 53  1  0
M  END
>  <meeko>  (34) 
{"is_sidechain": [true], "free_energy": -11.56, "intermolecular_energy": 0.0, "internal_energy": -11.56, "cluster_size": 20, "cluster_id": 1, "rank_in_cluster": 1}

>  <_RMSD_MCS_to_ref>  (34) 
1.847332491278528

$$$$
ligand
     RDKit          3D

 56 60  0  0  0  0  0  0  0  0999 V2000
   18.9090   19.1530    7.5370 C   0  0  0  0  0  0  0  0  0  0  0  0
   18.7730   17.6470    7.6780 C   0  0  0  0  0  0  0  0  0  0  0  0
   20.0830   16.9440    7.6080 C   0  0  0  0  0  0  0  0  0  0  0  0
   20.6940   16.1490    8.5580 C   0  0  0  0  0  0  0  0  0  0  0  0
   21.8550   15.7500    7.9630 N   0  0  0  0  0  0  0  0  0  0  0  0
   22.9800   14.6690    8.5800 S   0  0  0  0  0  6  0  0  0  0  0  0
   22.2610   13.7390    9.4270 O   0  0  0  0  0  0  0  0  0  0  0  0
   23.7070   14.2230    7.4060 O   0  0  0  0  0  0  0  0  0  0  0  0
   24.0960   15.6160    9.5950 C   0  0  0  0  0  0  0  0  0  0  0  0
   23.6280   15.9610   10.8760 C   0  0  0  0  0  0  0  0  0  0  0  0
   24.4760   16.6770   11.6960 C   0  0  0  0  0  0  0  0  0  0  0  0
   25.7480   17.0680   11.3010 C   0  0  0  0  0  0  0  0  0  0  0  0
   26.2120   16.7460   10.0370 C   0  0  0  0  0  0  0  0  0  0  0  0
   25.3880   16.0090    9.1520 C   0  0  0  0  0  0  0  0  0  0  0  0
   25.9330   15.7260    7.8170 C   0  0  0  0  0  0  0  0  0  0  0  0
   25.6200   16.5540    6.7280 C   0  0  0  0  0  0  0  0  0  0  0  0
   26.1040   16.2660    5.4500 C   0  0  0  0  0  0  0  0  0  0  0  0
   26.9060   15.1470    5.2430 C   0  0  0  0  0  0  0  0  0  0  0  0
   27.2190   14.3100    6.3110 C   0  0  0  0  0  0  0  0  0  0  0  0
   26.7300   14.5940    7.5870 C   0  0  0  0  0  0  0  0  0  0  0  0
   26.4070   17.8490   12.3900 C   0  0  0  0  0  0  0  0  0  0  0  0
   25.4290   17.7720   13.4680 N   0  0  0  0  0  0  0  0  0  0  0  0
   25.4890   18.6000   14.6680 C   0  0  1  0  0  0  0  0  0  0  0  0
   26.3440   17.9760   15.7660 C   0  0  0  0  0  0  0  0  0  0  0  0
   26.2870   18.8520   17.0080 C   0  0  0  0  0  0  0  0  0  0  0  0
   26.7100   20.2680   16.6970 C   0  0  0  0  0  0  0  0  0  0  0  0
   27.3520   20.9520   17.4890 O   0  0  0  0  0  0  0  0  0  0  0  0
   26.3280   20.7680   15.4790 N   0  0  0  0  0  0  0  0  0  0  0  0
   26.0130   20.0150   14.3710 C   0  0  0  0  0  0  0  0  0  0  0  0
   26.1680   20.4750   13.2420 O   0  0  0  0  0  0  0  0  0  0  0  0
   24.2510   17.1620   13.0620 C   0  0  0  0  0  0  0  0  0  0  0  0
   23.2170   17.0350   13.6860 O   0  0  0  0  0  0  0  0  0  0  0  0
   21.9010   16.2450    6.6980 C   0  0  0  0  0  0  0  0  0  0  0  0
   20.8590   17.0140    6.4650 N   0  0  0  0  0  0  0  0  0  0  0  0
   18.9505   19.6125    8.5356 H   0  0  0  0  0  0  0  0  0  0  0  0
   19.8320   19.3879    6.9867 H   0  0  0  0  0  0  0  0  0  0  0  0
   18.0430   19.5494    6.9867 H   0  0  0  0  0  0  0  0  0  0  0  0
   18.3057   17.4250    8.6487 H   0  0  0  0  0  0  0  0  0  0  0  0
   18.1578   17.2885    6.8395 H   0  0  0  0  0  0  0  0  0  0  0  0
   20.3282   15.8956    9.5640 H   0  0  0  0  0  0  0  0  0  0  0  0
   22.6217   15.6703   11.2121 H   0  0  0  0  0  0  0  0  0  0  0  0
   27.2173   17.0616    9.7212 H   0  0  0  0  0  0  0  0  0  0  0  0
   24.9864   17.4398    6.8827 H   0  0  0  0  0  0  0  0  0  0  0  0
   25.8512   16.9243    4.6057 H   0  0  0  0  0  0  0  0  0  0  0  0
   27.2919   14.9243    4.2373 H   0  0  0  0  0  0  0  0  0  0  0  0
   27.8517   13.4249    6.1490 H   0  0  0  0  0  0  0  0  0  0  0  0
   26.9725   13.9218    8.4233 H   0  0  0  0  0  0  0  0  0  0  0  0
   27.3622   17.3907   12.6861 H   0  0  0  0  0  0  0  0  0  0  0  0
   26.6603   18.8794   12.0998 H   0  0  0  0  0  0  0  0  0  0  0  0
   24.4507   18.6682   15.0248 H   0  0  0  0  0  0  0  0  0  0  0  0
   25.9597   16.9736   16.0057 H   0  0  0  0  0  0  0  0  0  0  0  0
   27.3851   17.8949   15.4203 H   0  0  0  0  0  0  0  0  0  0  0  0
   25.2568   18.8617   17.3934 H   0  0  0  0  0  0  0  0  0  0  0  0
   26.9776   18.4387   17.7579 H   0  0  0  0  0  0  0  0  0  0  0  0
   26.2721   21.7922   15.3854 H   0  0  0  0  0  0  0  0  0  0  0  0
   22.6982   16.0324    5.9704 H   0  0  0  0  0  0  0  0  0  0  0  0
  1  2  1  0
  2  3  1  0
  3  4  2  0
  4  5  1  0
  5  6  1  0
  6  7  2  0
  6  8  2  0
  6  9  1  0
  9 10  2  0
 10 11  1  0
 11 12  2  0
 12 13  1  0
 13 14  2  0
 14 15  1  0
 15 16  2  0
 16 17  1  0
 17 18  2  0
 18 19  1  0
 19 20  2  0
 12 21  1  0
 21 22  1  0
 22 23  1  0
 23 24  1  0
 24 25  1  0
 25 26  1  0
 26 27  2  0
 26 28  1  0
 28 29  1  0
 29 30  2  0
 22 31  1  0
 31 32  2  0
  5 33  1  0
 33 34  2  0
 34  3  1  0
 14  9  1  0
 20 15  1  0
 29 23  1  0
 31 11  1  0
  1 35  1  0
  1 36  1  0
  1 37  1  0
  2 38  1  0
  2 39  1  0
  4 40  1  0
 10 41  1  0
 13 42  1  0
 16 43  1  0
 17 44  1  0
 18 45  1  0
 19 46  1  0
 20 47  1  0
 21 48  1  0
 21 49  1  0
 23 50  1  1
 24 51  1  0
 24 52  1  0
 25 53  1  0
 25 54  1  0
 28 55  1  0
 33 56  1  0
M  END
>  <meeko>  (35) 
{"is_sidechain": [true], "free_energy": -11.56, "intermolecular_energy": 0.0, "internal_energy": -11.56, "cluster_size": 20, "cluster_id": 1, "rank_in_cluster": 1}

>  <_RMSD_MCS_to_ref>  (35) 
0.8271100961245192

$$$$
ligand
     RDKit          3D

 59 63  0  0  0  0  0  0  0  0999 V2000
   18.8250   19.0170    7.5350 C   0  0  0  0  0  0  0  0  0  0  0  0
   18.5200   17.5420    7.7330 C   0  0  0  0  0  0  0  0  0  0  0  0
   19.7540   16.7090    7.7440 C   0  0  0  0  0  0  0  0  0  0  0  0
   20.2540   15.9140    8.7560 C   0  0  0  0  0  0  0  0  0  0  0  0
   21.4070   15.4020    8.2360 N   0  0  0  0  0  0  0  0  0  0  0  0
   22.4580   14.3350    8.9890 S   0  0  0  0  0  6  0  0  0  0  0  0
   23.6310   14.3360    8.1340 O   0  0  0  0  0  0  0  0  0  0  0  0
   21.7100   13.1220    9.2540 O   0  0  0  0  0  0  0  0  0  0  0  0
   22.8960   15.0790   10.5460 C   0  0  0  0  0  0  0  0  0  0  0  0
   21.8360   15.2980   11.4640 C   0  0  0  0  0  0  0  0  0  0  0  0
   22.0750   15.8840   12.7080 C   0  0  0  0  0  0  0  0  0  0  0  0
   23.3750   16.2410   12.9980 C   0  0  0  0  0  0  0  0  0  0  0  0
   24.4290   16.0460   12.1060 C   0  0  0  0  0  0  0  0  0  0  0  0
   24.2180   15.4660   10.8530 C   0  0  0  0  0  0  0  0  0  0  0  0
   25.3850   15.3040    9.9770 C   0  0  0  0  0  0  0  0  0  0  0  0
   26.1950   14.2410   10.1390 C   0  0  0  0  0  0  0  0  0  0  0  0
   27.4540   14.0920    9.3280 C   0  0  0  0  0  0  0  0  0  0  0  0
   27.5590   15.1220    8.1920 C   0  0  0  0  0  0  0  0  0  0  0  0
   27.1350   16.4530    8.6380 N   0  0  0  0  0  0  0  0  0  0  0  0
   25.7160   16.4340    9.0240 C   0  0  0  0  0  0  0  0  0  0  0  0
   25.6920   16.5780   12.7120 C   0  0  0  0  0  0  0  0  0  0  0  0
   25.2710   16.9760   14.0480 N   0  0  0  0  0  0  0  0  0  0  0  0
   26.1440   17.7690   14.9080 C   0  0  2  0  0  0  0  0  0  0  0  0
   25.7060   17.7950   16.3720 C   0  0  0  0  0  0  0  0  0  0  0  0
   26.7160   18.5910   17.1840 C   0  0  0  0  0  0  0  0  0  0  0  0
   26.8820   19.9890   16.6360 C   0  0  0  0  0  0  0  0  0  0  0  0
   27.2790   20.9210   17.3290 O   0  0  0  0  0  0  0  0  0  0  0  0
   26.6450   20.1580   15.2940 N   0  0  0  0  0  0  0  0  0  0  0  0
   26.3030   19.1990   14.3680 C   0  0  0  0  0  0  0  0  0  0  0  0
   26.2350   19.4860   13.1730 O   0  0  0  0  0  0  0  0  0  0  0  0
   23.8990   16.8790   14.2090 C   0  0  0  0  0  0  0  0  0  0  0  0
   23.2150   17.2500   15.1420 O   0  0  0  0  0  0  0  0  0  0  0  0
   21.5460   15.8230    6.9530 C   0  0  0  0  0  0  0  0  0  0  0  0
   20.5760   16.6550    6.6340 N   0  0  0  0  0  0  0  0  0  0  0  0
   18.9260   19.5054    8.5155 H   0  0  0  0  0  0  0  0  0  0  0  0
   19.7645   19.1250    6.9731 H   0  0  0  0  0  0  0  0  0  0  0  0
   18.0054   19.4887    6.9731 H   0  0  0  0  0  0  0  0  0  0  0  0
   17.9976   17.4140    8.6926 H   0  0  0  0  0  0  0  0  0  0  0  0
   17.8961   17.2101    6.8901 H   0  0  0  0  0  0  0  0  0  0  0  0
   19.8224   15.7347    9.7518 H   0  0  0  0  0  0  0  0  0  0  0  0
   20.8123   15.0019   11.1914 H   0  0  0  0  0  0  0  0  0  0  0  0
   21.2602   16.0540   13.4272 H   0  0  0  0  0  0  0  0  0  0  0  0
   25.9322   13.4683   10.8765 H   0  0  0  0  0  0  0  0  0  0  0  0
   28.3188   14.2170    9.9962 H   0  0  0  0  0  0  0  0  0  0  0  0
   27.4337   13.0933    8.8673 H   0  0  0  0  0  0  0  0  0  0  0  0
   28.6036   15.1743    7.8513 H   0  0  0  0  0  0  0  0  0  0  0  0
   26.8976   14.8036    7.3727 H   0  0  0  0  0  0  0  0  0  0  0  0
   27.7038   16.7370    9.4484 H   0  0  0  0  0  0  0  0  0  0  0  0
   25.4711   17.3890    9.5118 H   0  0  0  0  0  0  0  0  0  0  0  0
   25.1246   16.2814    8.1091 H   0  0  0  0  0  0  0  0  0  0  0  0
   26.4675   15.7992   12.7573 H   0  0  0  0  0  0  0  0  0  0  0  0
   26.1371   17.4014   12.1341 H   0  0  0  0  0  0  0  0  0  0  0  0
   27.1208   17.2636   14.8863 H   0  0  0  0  0  0  0  0  0  0  0  0
   24.7161   18.2680   16.4512 H   0  0  0  0  0  0  0  0  0  0  0  0
   25.6503   16.7667   16.7586 H   0  0  0  0  0  0  0  0  0  0  0  0
   26.3686   18.6535   18.2258 H   0  0  0  0  0  0  0  0  0  0  0  0
   27.6877   18.0785   17.1276 H   0  0  0  0  0  0  0  0  0  0  0  0
   26.7341   21.1200   14.9368 H   0  0  0  0  0  0  0  0  0  0  0  0
   22.3549   15.5129    6.2751 H   0  0  0  0  0  0  0  0  0  0  0  0
  1  2  1  0
  2  3  1  0
  3  4  2  0
  4  5  1  0
  5  6  1  0
  6  7  2  0
  6  8  2  0
  6  9  1  0
  9 10  2  0
 10 11  1  0
 11 12  2  0
 12 13  1  0
 13 14  2  0
 14 15  1  0
 15 16  2  0
 16 17  1  0
 17 18  1  0
 18 19  1  0
 19 20  1  0
 13 21  1  0
 21 22  1  0
 22 23  1  0
 23 24  1  0
 24 25  1  0
 25 26  1  0
 26 27  2  0
 26 28  1  0
 28 29  1  0
 29 30  2  0
 22 31  1  0
 31 32  2  0
  5 33  1  0
 33 34  2  0
 34  3  1  0
 14  9  1  0
 20 15  1  0
 29 23  1  0
 31 12  1  0
  1 35  1  0
  1 36  1  0
  1 37  1  0
  2 38  1  0
  2 39  1  0
  4 40  1  0
 10 41  1  0
 11 42  1  0
 16 43  1  0
 17 44  1  0
 17 45  1  0
 18 46  1  0
 18 47  1  0
 19 48  1  0
 20 49  1  0
 20 50  1  0
 21 51  1  0
 21 52  1  0
 23 53  1  1
 24 54  1  0
 24 55  1  0
 25 56  1  0
 25 57  1  0
 28 58  1  0
 33 59  1  0
M  END
>  <meeko>  (36) 
{"is_sidechain": [true], "free_energy": -11.55, "intermolecular_energy": 0.0, "internal_energy": -11.55, "cluster_size": 4, "cluster_id": 1, "rank_in_cluster": 1}

>  <_RMSD_MCS_to_ref>  (36) 
0.9263454779100748

$$$$
ligand
     RDKit          3D

 57 61  0  0  0  0  0  0  0  0999 V2000
   18.9090   19.1540    7.5370 C   0  0  0  0  0  0  0  0  0  0  0  0
   18.7730   17.6460    7.6780 C   0  0  0  0  0  0  0  0  0  0  0  0
   20.0850   16.9510    7.5720 C   0  0  0  0  0  0  0  0  0  0  0  0
   20.6590   16.0410    8.4370 C   0  0  0  0  0  0  0  0  0  0  0  0
   21.8450   15.7160    7.8430 N   0  0  0  0  0  0  0  0  0  0  0  0
   23.1000   14.8630    8.5710 S   0  0  0  0  0  6  0  0  0  0  0  0
   22.6990   13.4720    8.5300 O   0  0  0  0  0  0  0  0  0  0  0  0
   24.3220   15.3480    7.9610 O   0  0  0  0  0  0  0  0  0  0  0  0
   23.0550   15.4300   10.2500 C   0  0  0  0  0  0  0  0  0  0  0  0
   22.1570   14.8230   11.1550 C   0  0  0  0  0  0  0  0  0  0  0  0
   22.1260   15.2250   12.4990 C   0  0  0  0  0  0  0  0  0  0  0  0
   21.2190   14.5860   13.4830 C   0  0  0  0  0  0  0  0  0  0  0  0
   20.3450   15.2610   14.0150 O   0  0  0  0  0  0  0  0  0  0  0  0
   21.4190   13.2460   13.7520 N   0  0  0  0  0  0  0  0  0  0  0  0
   20.8060   12.5480   14.8870 C   0  0  0  0  0  0  0  0  0  0  0  0
   21.9240   11.5150   14.7360 C   0  0  0  0  0  0  0  0  0  0  0  0
   22.7030   12.5610   13.9350 C   0  0  0  0  0  0  0  0  0  0  0  0
   22.9530   16.2660   12.8940 C   0  0  0  0  0  0  0  0  0  0  0  0
   23.8220   16.8560   11.9750 C   0  0  0  0  0  0  0  0  0  0  0  0
   23.9030   16.4650   10.6520 C   0  0  0  0  0  0  0  0  0  0  0  0
   24.6010   17.8810   12.6750 C   0  0  0  0  0  0  0  0  0  0  0  0
   25.5010   18.5270   12.1750 O   0  0  0  0  0  0  0  0  0  0  0  0
   24.1240   17.9310   13.9730 N   0  0  0  0  0  0  0  0  0  0  0  0
   24.8430   18.6280   15.0320 C   0  0  1  0  0  0  0  0  0  0  0  0
   26.0530   17.8480   15.5360 C   0  0  0  0  0  0  0  0  0  0  0  0
   26.6990   18.6050   16.6870 C   0  0  0  0  0  0  0  0  0  0  0  0
   27.0650   20.0130   16.2790 C   0  0  0  0  0  0  0  0  0  0  0  0
   28.0610   20.5840   16.7130 O   0  0  0  0  0  0  0  0  0  0  0  0
   26.2130   20.6420   15.4070 N   0  0  0  0  0  0  0  0  0  0  0  0
   25.3000   20.0270   14.5820 C   0  0  0  0  0  0  0  0  0  0  0  0
   24.9050   20.5900   13.5630 O   0  0  0  0  0  0  0  0  0  0  0  0
   23.1200   16.9040   14.2350 C   0  0  0  0  0  0  0  0  0  0  0  0
   21.9800   16.4320    6.6970 C   0  0  0  0  0  0  0  0  0  0  0  0
   20.9270   17.1980    6.5040 N   0  0  0  0  0  0  0  0  0  0  0  0
   18.9504   19.6134    8.5356 H   0  0  0  0  0  0  0  0  0  0  0  0
   19.8320   19.3891    6.9867 H   0  0  0  0  0  0  0  0  0  0  0  0
   18.0430   19.5504    6.9867 H   0  0  0  0  0  0  0  0  0  0  0  0
   18.3309   17.4204    8.6596 H   0  0  0  0  0  0  0  0  0  0  0  0
   18.1331   17.2865    6.8587 H   0  0  0  0  0  0  0  0  0  0  0  0
   20.2537   15.6638    9.3875 H   0  0  0  0  0  0  0  0  0  0  0  0
   21.4785   14.0312   10.8047 H   0  0  0  0  0  0  0  0  0  0  0  0
   20.8175   13.1068   15.8344 H   0  0  0  0  0  0  0  0  0  0  0  0
   19.7431   12.2651   14.8973 H   0  0  0  0  0  0  0  0  0  0  0  0
   22.4001   11.2147   15.6811 H   0  0  0  0  0  0  0  0  0  0  0  0
   21.7288   10.5100   14.3338 H   0  0  0  0  0  0  0  0  0  0  0  0
   23.4497   13.1247   14.5135 H   0  0  0  0  0  0  0  0  0  0  0  0
   23.3497   12.2896   13.0876 H   0  0  0  0  0  0  0  0  0  0  0  0
   24.6007   16.9450    9.9500 H   0  0  0  0  0  0  0  0  0  0  0  0
   24.1253   18.7249   15.8599 H   0  0  0  0  0  0  0  0  0  0  0  0
   25.7307   16.8557   15.8844 H   0  0  0  0  0  0  0  0  0  0  0  0
   26.7805   17.7306   14.7193 H   0  0  0  0  0  0  0  0  0  0  0  0
   25.9928   18.6478   17.5293 H   0  0  0  0  0  0  0  0  0  0  0  0
   27.6190   18.0768   16.9780 H   0  0  0  0  0  0  0  0  0  0  0  0
   26.2614   21.6701   15.3662 H   0  0  0  0  0  0  0  0  0  0  0  0
   23.4790   16.1776   14.9790 H   0  0  0  0  0  0  0  0  0  0  0  0
   22.1829   17.3026   14.6509 H   0  0  0  0  0  0  0  0  0  0  0  0
   22.8483   16.3792    6.0238 H   0  0  0  0  0  0  0  0  0  0  0  0
  1  2  1  0
  2  3  1  0
  3  4  2  0
  4  5  1  0
  5  6  1  0
  6  7  2  0
  6  8  2  0
  6  9  1  0
  9 10  2  0
 10 11  1  0
 11 12  1  0
 12 13  2  0
 12 14  1  0
 14 15  1  0
 15 16  1  0
 16 17  1  0
 11 18  2  0
 18 19  1  0
 19 20  2  0
 19 21  1  0
 21 22  2  0
 21 23  1  0
 23 24  1  0
 24 25  1  0
 25 26  1  0
 26 27  1  0
 27 28  2  0
 27 29  1  0
 29 30  1  0
 30 31  2  0
 23 32  1  0
  5 33  1  0
 33 34  2  0
 34  3  1  0
 20  9  1  0
 30 24  1  0
 17 14  1  0
 32 18  1  0
  1 35  1  0
  1 36  1  0
  1 37  1  0
  2 38  1  0
  2 39  1  0
  4 40  1  0
 10 41  1  0
 15 42  1  0
 15 43  1  0
 16 44  1  0
 16 45  1  0
 17 46  1  0
 17 47  1  0
 20 48  1  0
 24 49  1  1
 25 50  1  0
 25 51  1  0
 26 52  1  0
 26 53  1  0
 29 54  1  0
 32 55  1  0
 32 56  1  0
 33 57  1  0
M  END
>  <meeko>  (37) 
{"is_sidechain": [true], "free_energy": -11.55, "intermolecular_energy": 0.0, "internal_energy": -11.55, "cluster_size": 15, "cluster_id": 1, "rank_in_cluster": 1}

>  <_RMSD_MCS_to_ref>  (37) 
1.978964923051105

$$$$
ligand
     RDKit          3D

 56 60  0  0  0  0  0  0  0  0999 V2000
   18.9090   19.1540    7.5370 C   0  0  0  0  0  0  0  0  0  0  0  0
   18.7730   17.6460    7.6780 C   0  0  0  0  0  0  0  0  0  0  0  0
   20.0660   16.9950    8.0250 C   0  0  0  0  0  0  0  0  0  0  0  0
   21.3060   17.1580    7.4380 C   0  0  0  0  0  0  0  0  0  0  0  0
   22.1310   16.3530    8.1710 N   0  0  0  0  0  0  0  0  0  0  0  0
   23.7200   15.9560    7.7790 S   0  0  0  0  0  6  0  0  0  0  0  0
   23.7220   14.5080    7.6600 O   0  0  0  0  0  0  0  0  0  0  0  0
   24.0470   16.8080    6.6510 O   0  0  0  0  0  0  0  0  0  0  0  0
   24.6210   16.3960    9.0630 O   0  0  0  0  0  0  0  0  0  0  0  0
   24.7790   15.5920   10.1650 C   0  0  0  0  0  0  0  0  0  0  0  0
   25.5190   14.4190    9.9360 C   0  0  0  0  0  0  0  0  0  0  0  0
   25.7740   13.5140   10.9690 C   0  0  0  0  0  0  0  0  0  0  0  0
   25.2680   13.7960   12.2260 C   0  0  0  0  0  0  0  0  0  0  0  0
   24.5290   14.9610   12.4650 C   0  0  0  0  0  0  0  0  0  0  0  0
   24.2760   15.8670   11.4410 C   0  0  0  0  0  0  0  0  0  0  0  0
   24.1420   15.0470   13.9250 C   0  0  2  0  0  0  0  0  0  0  0  0
   24.3530   13.5880   14.3780 C   0  0  0  0  0  0  0  0  0  0  0  0
   25.4580   13.0060   13.4830 C   0  0  0  0  0  0  0  0  0  0  0  0
   22.7390   15.5730   14.1990 C   0  0  0  0  0  0  0  0  0  0  0  0
   22.9750   16.9900   14.6420 C   0  0  0  0  0  0  0  0  0  0  0  0
   22.0830   17.8000   14.8360 O   0  0  0  0  0  0  0  0  0  0  0  0
   24.3090   17.1790   14.8630 N   0  0  0  0  0  0  0  0  0  0  0  0
   24.8710   18.3400   15.5380 C   0  0  1  0  0  0  0  0  0  0  0  0
   25.7330   18.0120   16.7540 C   0  0  0  0  0  0  0  0  0  0  0  0
   26.2150   19.3100   17.3870 C   0  0  0  0  0  0  0  0  0  0  0  0
   26.9610   20.1650   16.3880 C   0  0  0  0  0  0  0  0  0  0  0  0
   27.8390   20.9530   16.7260 O   0  0  0  0  0  0  0  0  0  0  0  0
   26.5700   20.0630   15.0760 N   0  0  0  0  0  0  0  0  0  0  0  0
   25.6720   19.1730   14.5310 C   0  0  0  0  0  0  0  0  0  0  0  0
   25.5100   19.1130   13.3130 O   0  0  0  0  0  0  0  0  0  0  0  0
   25.0240   16.0270   14.6730 C   0  0  0  0  0  0  0  0  0  0  0  0
   26.1830   15.8350   15.0130 O   0  0  0  0  0  0  0  0  0  0  0  0
   21.3930   15.6820    9.0920 C   0  0  0  0  0  0  0  0  0  0  0  0
   20.1360   16.0680    9.0460 N   0  0  0  0  0  0  0  0  0  0  0  0
   18.9504   19.6134    8.5356 H   0  0  0  0  0  0  0  0  0  0  0  0
   19.8320   19.3891    6.9867 H   0  0  0  0  0  0  0  0  0  0  0  0
   18.0430   19.5504    6.9867 H   0  0  0  0  0  0  0  0  0  0  0  0
   18.0428   17.4288    8.4715 H   0  0  0  0  0  0  0  0  0  0  0  0
   18.4421   17.2446    6.7088 H   0  0  0  0  0  0  0  0  0  0  0  0
   21.5687   17.7910    6.5776 H   0  0  0  0  0  0  0  0  0  0  0  0
   25.9036   14.2104    8.9268 H   0  0  0  0  0  0  0  0  0  0  0  0
   26.3613   12.6016   10.7883 H   0  0  0  0  0  0  0  0  0  0  0  0
   23.6929   16.7803   11.6302 H   0  0  0  0  0  0  0  0  0  0  0  0
   24.6643   13.5593   15.4326 H   0  0  0  0  0  0  0  0  0  0  0  0
   23.4234   13.0067   14.2893 H   0  0  0  0  0  0  0  0  0  0  0  0
   26.4555   13.1726   13.9158 H   0  0  0  0  0  0  0  0  0  0  0  0
   25.3955   11.9168   13.3429 H   0  0  0  0  0  0  0  0  0  0  0  0
   22.1232   15.5434   13.2880 H   0  0  0  0  0  0  0  0  0  0  0  0
   22.1961   14.9756   14.9462 H   0  0  0  0  0  0  0  0  0  0  0  0
   24.0173   18.9108   15.9322 H   0  0  0  0  0  0  0  0  0  0  0  0
   25.1384   17.4443   17.4848 H   0  0  0  0  0  0  0  0  0  0  0  0
   26.5979   17.4075   16.4433 H   0  0  0  0  0  0  0  0  0  0  0  0
   25.3455   19.8711   17.7601 H   0  0  0  0  0  0  0  0  0  0  0  0
   26.9003   19.0609   18.2106 H   0  0  0  0  0  0  0  0  0  0  0  0
   26.9997   20.7321   14.4213 H   0  0  0  0  0  0  0  0  0  0  0  0
   21.7904   14.9218    9.7805 H   0  0  0  0  0  0  0  0  0  0  0  0
  1  2  1  0
  2  3  1  0
  3  4  2  0
  4  5  1  0
  5  6  1  0
  6  7  2  0
  6  8  2  0
  6  9  1  0
  9 10  1  0
 10 11  2  0
 11 12  1  0
 12 13  2  0
 13 14  1  0
 14 15  2  0
 14 16  1  0
 16 17  1  1
 17 18  1  0
 16 19  1  0
 19 20  1  0
 20 21  2  0
 20 22  1  0
 22 23  1  0
 23 24  1  0
 24 25  1  0
 25 26  1  0
 26 27  2  0
 26 28  1  0
 28 29  1  0
 29 30  2  0
 22 31  1  0
 31 32  2  0
  5 33  1  0
 33 34  2  0
 34  3  1  0
 15 10  1  0
 31 16  1  0
 18 13  1  0
 29 23  1  0
  1 35  1  0
  1 36  1  0
  1 37  1  0
  2 38  1  0
  2 39  1  0
  4 40  1  0
 11 41  1  0
 12 42  1  0
 15 43  1  0
 17 44  1  0
 17 45  1  0
 18 46  1  0
 18 47  1  0
 19 48  1  0
 19 49  1  0
 23 50  1  1
 24 51  1  0
 24 52  1  0
 25 53  1  0
 25 54  1  0
 28 55  1  0
 33 56  1  0
M  END
>  <meeko>  (38) 
{"is_sidechain": [true], "free_energy": -11.55, "intermolecular_energy": 0.0, "internal_energy": -11.55, "cluster_size": 20, "cluster_id": 1, "rank_in_cluster": 1}

>  <_RMSD_MCS_to_ref>  (38) 
1.7979714495323147

$$$$
ligand
     RDKit          3D

 47 50  0  0  0  0  0  0  0  0999 V2000
   18.9090   19.1540    7.5370 C   0  0  0  0  0  0  0  0  0  0  0  0
   18.7730   17.6460    7.6780 C   0  0  0  0  0  0  0  0  0  0  0  0
   20.0050   16.9280    7.2510 C   0  0  0  0  0  0  0  0  0  0  0  0
   21.1310   16.6170    7.9890 C   0  0  0  0  0  0  0  0  0  0  0  0
   21.9290   15.9410    7.1120 N   0  0  0  0  0  0  0  0  0  0  0  0
   23.5110   15.4760    7.3880 S   0  0  0  0  0  6  0  0  0  0  0  0
   23.6160   14.0910    6.9570 O   0  0  0  0  0  0  0  0  0  0  0  0
   24.3530   16.5170    6.8300 O   0  0  0  0  0  0  0  0  0  0  0  0
   23.7930   15.4570    9.1290 C   0  0  0  0  0  0  0  0  0  0  0  0
   23.1740   14.6370    9.9190 N   0  0  0  0  0  0  0  0  0  0  0  0
   23.5180   14.7720   11.2280 C   0  0  0  0  0  0  0  0  0  0  0  0
   22.7910   13.7950   12.4130 S   0  0  0  0  0  0  0  0  0  0  0  0
   23.6900   14.5400   13.6530 C   0  0  0  0  0  0  0  0  0  0  0  0
   24.5620   15.5230   13.2040 C   0  0  0  0  0  0  0  0  0  0  0  0
   25.4080   16.2260   14.1800 C   0  0  0  0  0  0  0  0  0  0  0  0
   25.9210   15.6310   15.1260 O   0  0  0  0  0  0  0  0  0  0  0  0
   25.6250   17.5630   13.9860 N   0  0  0  0  0  0  0  0  0  0  0  0
   26.4840   18.3430   14.8620 C   0  0  2  0  0  0  0  0  0  0  0  0
   26.1490   18.0970   16.3290 C   0  0  0  0  0  0  0  0  0  0  0  0
   27.0550   18.9440   17.2070 C   0  0  0  0  0  0  0  0  0  0  0  0
   26.9540   20.4070   16.8490 C   0  0  0  0  0  0  0  0  0  0  0  0
   27.0820   21.2990   17.6830 O   0  0  0  0  0  0  0  0  0  0  0  0
   26.7440   20.7030   15.5250 N   0  0  0  0  0  0  0  0  0  0  0  0
   26.3280   19.8350   14.5450 C   0  0  0  0  0  0  0  0  0  0  0  0
   25.8900   20.2590   13.4770 O   0  0  0  0  0  0  0  0  0  0  0  0
   24.4360   15.6590   11.7670 C   0  0  0  0  0  0  0  0  0  0  0  0
   25.0950   16.5570   10.8350 C   0  0  0  0  0  0  0  0  0  0  0  0
   25.9270   17.3960   11.1590 O   0  0  0  0  0  0  0  0  0  0  0  0
   24.7210   16.3960    9.5260 N   0  0  0  0  0  0  0  0  0  0  0  0
   21.3310   15.9150    5.8940 C   0  0  0  0  0  0  0  0  0  0  0  0
   20.1460   16.4870    5.9510 N   0  0  0  0  0  0  0  0  0  0  0  0
   18.9504   19.6134    8.5356 H   0  0  0  0  0  0  0  0  0  0  0  0
   19.8320   19.3891    6.9867 H   0  0  0  0  0  0  0  0  0  0  0  0
   18.0430   19.5504    6.9867 H   0  0  0  0  0  0  0  0  0  0  0  0
   18.5702   17.4056    8.7321 H   0  0  0  0  0  0  0  0  0  0  0  0
   17.9488   17.3189    7.0271 H   0  0  0  0  0  0  0  0  0  0  0  0
   21.3371   16.8588    9.0421 H   0  0  0  0  0  0  0  0  0  0  0  0
   23.5890   14.2671   14.7138 H   0  0  0  0  0  0  0  0  0  0  0  0
   25.1646   18.0323   13.1931 H   0  0  0  0  0  0  0  0  0  0  0  0
   27.5238   18.0293   14.6878 H   0  0  0  0  0  0  0  0  0  0  0  0
   25.0996   18.3690   16.5156 H   0  0  0  0  0  0  0  0  0  0  0  0
   26.3010   17.0335   16.5654 H   0  0  0  0  0  0  0  0  0  0  0  0
   26.7609   18.8113   18.2586 H   0  0  0  0  0  0  0  0  0  0  0  0
   28.0940   18.6189   17.0495 H   0  0  0  0  0  0  0  0  0  0  0  0
   26.9162   21.6767   15.2366 H   0  0  0  0  0  0  0  0  0  0  0  0
   25.1503   17.0004    8.8109 H   0  0  0  0  0  0  0  0  0  0  0  0
   21.7737   15.4778    4.9869 H   0  0  0  0  0  0  0  0  0  0  0  0
  1  2  1  0
  2  3  1  0
  3  4  2  0
  4  5  1  0
  5  6  1  0
  6  7  2  0
  6  8  2  0
  6  9  1  0
  9 10  2  0
 10 11  1  0
 11 12  1  0
 12 13  1  0
 13 14  2  0
 14 15  1  0
 15 16  2  0
 15 17  1  0
 17 18  1  0
 18 19  1  0
 19 20  1  0
 20 21  1  0
 21 22  2  0
 21 23  1  0
 23 24  1  0
 24 25  2  0
 14 26  1  0
 26 27  1  0
 27 28  2  0
 27 29  1  0
  5 30  1  0
 30 31  2  0
 31  3  1  0
 29  9  1  0
 26 11  2  0
 24 18  1  0
  1 32  1  0
  1 33  1  0
  1 34  1  0
  2 35  1  0
  2 36  1  0
  4 37  1  0
 13 38  1  0
 17 39  1  0
 18 40  1  1
 19 41  1  0
 19 42  1  0
 20 43  1  0
 20 44  1  0
 23 45  1  0
 29 46  1  0
 30 47  1  0
M  END
>  <meeko>  (39) 
{"is_sidechain": [true], "free_energy": -11.55, "intermolecular_energy": 0.0, "internal_energy": -11.55, "cluster_size": 18, "cluster_id": 1, "rank_in_cluster": 1}

>  <_RMSD_MCS_to_ref>  (39) 
1.0641162739308354

$$$$
ligand
     RDKit          3D

 46 49  0  0  0  0  0  0  0  0999 V2000
   18.9090   19.1540    7.5370 C   0  0  0  0  0  0  0  0  0  0  0  0
   18.7730   17.6460    7.6780 C   0  0  0  0  0  0  0  0  0  0  0  0
   19.9670   16.9240    7.1620 C   0  0  0  0  0  0  0  0  0  0  0  0
   20.9640   16.2780    7.8670 C   0  0  0  0  0  0  0  0  0  0  0  0
   21.7790   15.7640    6.8990 N   0  0  0  0  0  0  0  0  0  0  0  0
   23.2980   15.0790    7.1540 S   0  0  0  0  0  6  0  0  0  0  0  0
   23.2890   13.8600    6.3660 O   0  0  0  0  0  0  0  0  0  0  0  0
   24.2370   16.1520    6.8840 O   0  0  0  0  0  0  0  0  0  0  0  0
   23.3570   14.6970    8.7380 O   0  0  0  0  0  0  0  0  0  0  0  0
   23.9910   15.4810    9.6660 C   0  0  0  0  0  0  0  0  0  0  0  0
   25.2980   15.9590    9.5670 C   0  0  0  0  0  0  0  0  0  0  0  0
   25.8260   16.7500   10.5900 C   0  0  0  0  0  0  0  0  0  0  0  0
   25.0410   17.0540   11.7070 C   0  0  0  0  0  0  0  0  0  0  0  0
   25.5400   17.8780   12.8030 C   0  0  0  0  0  0  0  0  0  0  0  0
   26.6820   18.3260   12.7650 O   0  0  0  0  0  0  0  0  0  0  0  0
   24.6400   18.1110   13.8280 N   0  0  0  0  0  0  0  0  0  0  0  0
   25.0980   18.8050   15.0300 C   0  0  1  0  0  0  0  0  0  0  0  0
   26.1920   18.0480   15.7850 C   0  0  0  0  0  0  0  0  0  0  0  0
   26.5750   18.8300   17.0320 C   0  0  0  0  0  0  0  0  0  0  0  0
   27.0130   20.2330   16.6850 C   0  0  0  0  0  0  0  0  0  0  0  0
   27.8370   20.8490   17.3540 O   0  0  0  0  0  0  0  0  0  0  0  0
   26.4080   20.8120   15.5970 N   0  0  0  0  0  0  0  0  0  0  0  0
   25.6020   20.2030   14.6590 C   0  0  0  0  0  0  0  0  0  0  0  0
   25.3000   20.8020   13.6290 O   0  0  0  0  0  0  0  0  0  0  0  0
   23.3880   17.5610   13.8740 N   0  0  0  0  0  0  0  0  0  0  0  0
   22.9370   16.8740   12.9340 N   0  0  0  0  0  0  0  0  0  0  0  0
   23.7430   16.5900   11.8270 C   0  0  0  0  0  0  0  0  0  0  0  0
   23.2240   15.7980   10.7950 C   0  0  0  0  0  0  0  0  0  0  0  0
   21.3300   16.1640    5.6820 C   0  0  0  0  0  0  0  0  0  0  0  0
   20.2150   16.8520    5.8050 N   0  0  0  0  0  0  0  0  0  0  0  0
   18.9504   19.6134    8.5356 H   0  0  0  0  0  0  0  0  0  0  0  0
   19.8320   19.3891    6.9867 H   0  0  0  0  0  0  0  0  0  0  0  0
   18.0430   19.5504    6.9867 H   0  0  0  0  0  0  0  0  0  0  0  0
   18.6426   17.3999    8.7422 H   0  0  0  0  0  0  0  0  0  0  0  0
   17.9032   17.3281    7.0844 H   0  0  0  0  0  0  0  0  0  0  0  0
   21.0759   16.1963    8.9582 H   0  0  0  0  0  0  0  0  0  0  0  0
   25.9103   15.7139    8.6867 H   0  0  0  0  0  0  0  0  0  0  0  0
   26.8549   17.1323   10.5175 H   0  0  0  0  0  0  0  0  0  0  0  0
   24.2328   18.8725   15.7060 H   0  0  0  0  0  0  0  0  0  0  0  0
   25.8187   17.0546   16.0744 H   0  0  0  0  0  0  0  0  0  0  0  0
   27.0737   17.9317   15.1376 H   0  0  0  0  0  0  0  0  0  0  0  0
   25.7057   18.8816   17.7040 H   0  0  0  0  0  0  0  0  0  0  0  0
   27.4144   18.3146   17.5217 H   0  0  0  0  0  0  0  0  0  0  0  0
   26.5761   21.8197   15.4663 H   0  0  0  0  0  0  0  0  0  0  0  0
   22.1948   15.4176   10.8722 H   0  0  0  0  0  0  0  0  0  0  0  0
   21.8285   15.9438    4.7265 H   0  0  0  0  0  0  0  0  0  0  0  0
  1  2  1  0
  2  3  1  0
  3  4  2  0
  4  5  1  0
  5  6  1  0
  6  7  2  0
  6  8  2  0
  6  9  1  0
  9 10  1  0
 10 11  2  0
 11 12  1  0
 12 13  2  0
 13 14  1  0
 14 15  2  0
 14 16  1  0
 16 17  1  0
 17 18  1  0
 18 19  1  0
 19 20  1  0
 20 21  2  0
 20 22  1  0
 22 23  1  0
 23 24  2  0
 16 25  1  0
 25 26  2  0
 26 27  1  0
 27 28  2  0
  5 29  1  0
 29 30  2  0
 30  3  1  0
 28 10  1  0
 27 13  1  0
 23 17  1  0
  1 31  1  0
  1 32  1  0
  1 33  1  0
  2 34  1  0
  2 35  1  0
  4 36  1  0
 11 37  1  0
 12 38  1  0
 17 39  1  1
 18 40  1  0
 18 41  1  0
 19 42  1  0
 19 43  1  0
 22 44  1  0
 28 45  1  0
 29 46  1  0
M  END
>  <meeko>  (40) 
{"is_sidechain": [true], "free_energy": -11.54, "intermolecular_energy": 0.0, "internal_energy": -11.54, "cluster_size": 20, "cluster_id": 1, "rank_in_cluster": 1}

>  <_RMSD_MCS_to_ref>  (40) 
0.6292280985461473

$$$$
ligand
     RDKit          3D

 55 58  0  0  0  0  0  0  0  0999 V2000
   18.9090   19.1540    7.5370 C   0  0  0  0  0  0  0  0  0  0  0  0
   18.7730   17.6460    7.6780 C   0  0  0  0  0  0  0  0  0  0  0  0
   20.0940   16.9610    7.6850 C   0  0  0  0  0  0  0  0  0  0  0  0
   20.9970   16.8240    8.7210 C   0  0  0  0  0  0  0  0  0  0  0  0
   22.0380   16.1350    8.1670 N   0  0  0  0  0  0  0  0  0  0  0  0
   23.4210   15.6330    8.9900 S   0  0  0  0  0  6  0  0  0  0  0  0
   24.3280   16.7620    8.8320 O   0  0  0  0  0  0  0  0  0  0  0  0
   23.7760   14.3480    8.4120 O   0  0  0  0  0  0  0  0  0  0  0  0
   23.0520   15.4430   10.6600 C   0  0  0  0  0  0  0  0  0  0  0  0
   23.9330   15.8450   11.5870 C   0  0  0  0  0  0  0  0  0  0  0  0
   23.6500   15.6930   12.9990 C   0  0  0  0  0  0  0  0  0  0  0  0
   24.6480   16.1970   13.9930 C   0  0  0  0  0  0  0  0  0  0  0  0
   25.2540   15.4490   14.7500 O   0  0  0  0  0  0  0  0  0  0  0  0
   24.8230   17.5570   13.9540 N   0  0  0  0  0  0  0  0  0  0  0  0
   25.8590   18.2110   14.7400 C   0  0  2  0  0  0  0  0  0  0  0  0
   25.6950   17.9580   16.2350 C   0  0  0  0  0  0  0  0  0  0  0  0
   26.7830   18.7000   16.9960 C   0  0  0  0  0  0  0  0  0  0  0  0
   26.7770   20.1740   16.6680 C   0  0  0  0  0  0  0  0  0  0  0  0
   27.0800   21.0330   17.4910 O   0  0  0  0  0  0  0  0  0  0  0  0
   26.4440   20.5170   15.3820 N   0  0  0  0  0  0  0  0  0  0  0  0
   25.7920   19.7180   14.4770 C   0  0  0  0  0  0  0  0  0  0  0  0
   25.2010   20.1960   13.5090 O   0  0  0  0  0  0  0  0  0  0  0  0
   22.4780   15.1550   13.4080 C   0  0  0  0  0  0  0  0  0  0  0  0
   21.5440   14.7270   12.4480 N   0  0  0  0  0  0  0  0  0  0  0  0
   21.7930   14.7970   11.0670 C   0  0  0  0  0  0  0  0  0  0  0  0
   21.0250   14.3570   10.2170 O   0  0  0  0  0  0  0  0  0  0  0  0
   20.3180   14.0230   12.8270 C   0  0  0  0  0  0  0  0  0  0  0  0
   19.8760   14.2130   14.2670 C   0  0  0  0  0  0  0  0  0  0  0  0
   21.0570   13.9810   15.1860 C   0  0  0  0  0  0  0  0  0  0  0  0
   22.1370   15.0100   14.8810 C   0  0  0  0  0  0  0  0  0  0  0  0
   21.7440   15.8420    6.8740 C   0  0  0  0  0  0  0  0  0  0  0  0
   20.5720   16.3470    6.5440 N   0  0  0  0  0  0  0  0  0  0  0  0
   18.9504   19.6134    8.5356 H   0  0  0  0  0  0  0  0  0  0  0  0
   19.8320   19.3891    6.9867 H   0  0  0  0  0  0  0  0  0  0  0  0
   18.0430   19.5504    6.9867 H   0  0  0  0  0  0  0  0  0  0  0  0
   18.2537   17.4238    8.6219 H   0  0  0  0  0  0  0  0  0  0  0  0
   18.2050   17.2756    6.8119 H   0  0  0  0  0  0  0  0  0  0  0  0
   20.9000   17.1866    9.7550 H   0  0  0  0  0  0  0  0  0  0  0  0
   24.8846   16.2969   11.2705 H   0  0  0  0  0  0  0  0  0  0  0  0
   24.2083   18.1274   13.3559 H   0  0  0  0  0  0  0  0  0  0  0  0
   26.8314   17.7952   14.4374 H   0  0  0  0  0  0  0  0  0  0  0  0
   24.7082   18.3177   16.5619 H   0  0  0  0  0  0  0  0  0  0  0  0
   25.7766   16.8796   16.4360 H   0  0  0  0  0  0  0  0  0  0  0  0
   26.6150   18.5729   18.0756 H   0  0  0  0  0  0  0  0  0  0  0  0
   27.7575   18.2835   16.7011 H   0  0  0  0  0  0  0  0  0  0  0  0
   26.7078   21.4615   15.0669 H   0  0  0  0  0  0  0  0  0  0  0  0
   19.5073   14.3778   12.1736 H   0  0  0  0  0  0  0  0  0  0  0  0
   20.5380   12.9509   12.7167 H   0  0  0  0  0  0  0  0  0  0  0  0
   19.4991   15.2373   14.4039 H   0  0  0  0  0  0  0  0  0  0  0  0
   19.0763   13.4963   14.5054 H   0  0  0  0  0  0  0  0  0  0  0  0
   20.7349   14.0846   16.2327 H   0  0  0  0  0  0  0  0  0  0  0  0
   21.4557   12.9681   15.0277 H   0  0  0  0  0  0  0  0  0  0  0  0
   21.7933   15.9873   15.2509 H   0  0  0  0  0  0  0  0  0  0  0  0
   23.0522   14.6563   15.3783 H   0  0  0  0  0  0  0  0  0  0  0  0
   22.3920   15.2650    6.1979 H   0  0  0  0  0  0  0  0  0  0  0  0
  1  2  1  0
  2  3  1  0
  3  4  2  0
  4  5  1  0
  5  6  1  0
  6  7  2  0
  6  8  2  0
  6  9  1  0
  9 10  2  0
 10 11  1  0
 11 12  1  0
 12 13  2  0
 12 14  1  0
 14 15  1  0
 15 16  1  0
 16 17  1  0
 17 18  1  0
 18 19  2  0
 18 20  1  0
 20 21  1  0
 21 22  2  0
 11 23  2  0
 23 24  1  0
 24 25  1  0
 25 26  2  0
 24 27  1  0
 27 28  1  0
 28 29  1  0
 29 30  1  0
  5 31  1  0
 31 32  2  0
 32  3  1  0
 25  9  1  0
 21 15  1  0
 30 23  1  0
  1 33  1  0
  1 34  1  0
  1 35  1  0
  2 36  1  0
  2 37  1  0
  4 38  1  0
 10 39  1  0
 14 40  1  0
 15 41  1  6
 16 42  1  0
 16 43  1  0
 17 44  1  0
 17 45  1  0
 20 46  1  0
 27 47  1  0
 27 48  1  0
 28 49  1  0
 28 50  1  0
 29 51  1  0
 29 52  1  0
 30 53  1  0
 30 54  1  0
 31 55  1  0
M  END
>  <meeko>  (41) 
{"is_sidechain": [true], "free_energy": -11.54, "intermolecular_energy": 0.0, "internal_energy": -11.54, "cluster_size": 20, "cluster_id": 1, "rank_in_cluster": 1}

>  <_RMSD_MCS_to_ref>  (41) 
0.6151441565465237

$$$$
ligand
     RDKit          3D

 54 58  0  0  0  0  0  0  0  0999 V2000
   18.9090   19.1540    7.5370 C   0  0  0  0  0  0  0  0  0  0  0  0
   18.7730   17.6460    7.6780 C   0  0  0  0  0  0  0  0  0  0  0  0
   20.0820   16.9500    7.5570 C   0  0  0  0  0  0  0  0  0  0  0  0
   20.5770   15.8950    8.2980 C   0  0  0  0  0  0  0  0  0  0  0  0
   21.8020   15.6450    7.7500 N   0  0  0  0  0  0  0  0  0  0  0  0
   22.9660   14.6060    8.3720 S   0  0  0  0  0  6  0  0  0  0  0  0
   22.3420   13.3010    8.4520 O   0  0  0  0  0  0  0  0  0  0  0  0
   24.1670   14.8460    7.5960 O   0  0  0  0  0  0  0  0  0  0  0  0
   23.2290   15.2050   10.0190 C   0  0  0  0  0  0  0  0  0  0  0  0
   24.2800   16.0900   10.2610 C   0  0  0  0  0  0  0  0  0  0  0  0
   24.4310   16.5270   11.5630 C   0  0  0  0  0  0  0  0  0  0  0  0
   23.5940   16.1270   12.6060 C   0  0  0  0  0  0  0  0  0  0  0  0
   22.5370   15.2580   12.3680 C   0  0  0  0  0  0  0  0  0  0  0  0
   21.6380   14.8280   13.4320 C   0  0  0  0  0  0  0  0  0  0  0  0
   21.8800   14.5860   14.7740 C   0  0  0  0  0  0  0  0  0  0  0  0
   20.6610   14.1950   15.3770 C   0  0  0  0  0  0  0  0  0  0  0  0
   19.6990   14.2030   14.3940 C   0  0  0  0  0  0  0  0  0  0  0  0
   20.2990   14.5790   13.2210 N   0  0  0  0  0  0  0  0  0  0  0  0
   22.3570   14.8000   11.0520 C   0  0  0  0  0  0  0  0  0  0  0  0
   24.0400   16.7770   13.8760 C   0  0  0  0  0  0  0  0  0  0  0  0
   25.1180   17.6520   13.4340 N   0  0  0  0  0  0  0  0  0  0  0  0
   25.9960   18.3140   14.3950 C   0  0  2  0  0  0  0  0  0  0  0  0
   25.6710   17.9870   15.8510 C   0  0  0  0  0  0  0  0  0  0  0  0
   26.6800   18.6750   16.7580 C   0  0  0  0  0  0  0  0  0  0  0  0
   26.7030   20.1670   16.5220 C   0  0  0  0  0  0  0  0  0  0  0  0
   27.0860   20.9590   17.3780 O   0  0  0  0  0  0  0  0  0  0  0  0
   26.3500   20.5980   15.2670 N   0  0  0  0  0  0  0  0  0  0  0  0
   26.0120   19.8340   14.1740 C   0  0  0  0  0  0  0  0  0  0  0  0
   25.8360   20.3630   13.0770 O   0  0  0  0  0  0  0  0  0  0  0  0
   25.4350   17.4470   12.1020 C   0  0  0  0  0  0  0  0  0  0  0  0
   26.3620   17.9000   11.4600 O   0  0  0  0  0  0  0  0  0  0  0  0
   22.0400   16.5460    6.7620 C   0  0  0  0  0  0  0  0  0  0  0  0
   21.0060   17.3470    6.6110 N   0  0  0  0  0  0  0  0  0  0  0  0
   18.9504   19.6134    8.5356 H   0  0  0  0  0  0  0  0  0  0  0  0
   19.8320   19.3891    6.9867 H   0  0  0  0  0  0  0  0  0  0  0  0
   18.0430   19.5504    6.9867 H   0  0  0  0  0  0  0  0  0  0  0  0
   18.3414   17.4199    8.6642 H   0  0  0  0  0  0  0  0  0  0  0  0
   18.1238   17.2880    6.8653 H   0  0  0  0  0  0  0  0  0  0  0  0
   20.0942   15.3747    9.1383 H   0  0  0  0  0  0  0  0  0  0  0  0
   24.9533   16.4225    9.4572 H   0  0  0  0  0  0  0  0  0  0  0  0
   22.8507   14.6812   15.2826 H   0  0  0  0  0  0  0  0  0  0  0  0
   20.5108   13.9334   16.4348 H   0  0  0  0  0  0  0  0  0  0  0  0
   18.6362   13.9520   14.5262 H   0  0  0  0  0  0  0  0  0  0  0  0
   19.8191   14.6633   12.3135 H   0  0  0  0  0  0  0  0  0  0  0  0
   21.5256   14.1169   10.8239 H   0  0  0  0  0  0  0  0  0  0  0  0
   23.2231   17.3553   14.3325 H   0  0  0  0  0  0  0  0  0  0  0  0
   24.3539   16.0562   14.6454 H   0  0  0  0  0  0  0  0  0  0  0  0
   27.0018   17.9109   14.2055 H   0  0  0  0  0  0  0  0  0  0  0  0
   24.6584   18.3438   16.0905 H   0  0  0  0  0  0  0  0  0  0  0  0
   25.7198   16.8988   16.0041 H   0  0  0  0  0  0  0  0  0  0  0  0
   26.4090   18.4823   17.8065 H   0  0  0  0  0  0  0  0  0  0  0  0
   27.6790   18.2728   16.5338 H   0  0  0  0  0  0  0  0  0  0  0  0
   26.3366   21.6183   15.1267 H   0  0  0  0  0  0  0  0  0  0  0  0
   22.9663   16.5991    6.1711 H   0  0  0  0  0  0  0  0  0  0  0  0
  1  2  1  0
  2  3  1  0
  3  4  2  0
  4  5  1  0
  5  6  1  0
  6  7  2  0
  6  8  2  0
  6  9  1  0
  9 10  2  0
 10 11  1  0
 11 12  2  0
 12 13  1  0
 13 14  1  0
 14 15  2  0
 15 16  1  0
 16 17  2  0
 17 18  1  0
 13 19  2  0
 12 20  1  0
 20 21  1  0
 21 22  1  0
 22 23  1  0
 23 24  1  0
 24 25  1  0
 25 26  2  0
 25 27  1  0
 27 28  1  0
 28 29  2  0
 21 30  1  0
 30 31  2  0
  5 32  1  0
 32 33  2  0
 33  3  1  0
 19  9  1  0
 28 22  1  0
 30 11  1  0
 18 14  1  0
  1 34  1  0
  1 35  1  0
  1 36  1  0
  2 37  1  0
  2 38  1  0
  4 39  1  0
 10 40  1  0
 15 41  1  0
 16 42  1  0
 17 43  1  0
 18 44  1  0
 19 45  1  0
 20 46  1  0
 20 47  1  0
 22 48  1  6
 23 49  1  0
 23 50  1  0
 24 51  1  0
 24 52  1  0
 27 53  1  0
 32 54  1  0
M  END
>  <meeko>  (42) 
{"is_sidechain": [true], "free_energy": -11.53, "intermolecular_energy": 0.0, "internal_energy": -11.53, "cluster_size": 7, "cluster_id": 1, "rank_in_cluster": 1}

>  <_RMSD_MCS_to_ref>  (42) 
1.9594854341552697

$$$$
ligand
     RDKit          3D

 54 58  0  0  0  0  0  0  0  0999 V2000
   18.9090   19.1540    7.5370 C   0  0  0  0  0  0  0  0  0  0  0  0
   18.7730   17.6460    7.6780 C   0  0  0  0  0  0  0  0  0  0  0  0
   20.0930   16.9590    7.6430 C   0  0  0  0  0  0  0  0  0  0  0  0
   21.0250   16.8150    8.6510 C   0  0  0  0  0  0  0  0  0  0  0  0
   22.0400   16.1130    8.0670 N   0  0  0  0  0  0  0  0  0  0  0  0
   23.4880   15.6940    8.8040 S   0  0  0  0  0  6  0  0  0  0  0  0
   23.8100   14.3930    8.2510 O   0  0  0  0  0  0  0  0  0  0  0  0
   24.3790   16.8290    8.6720 O   0  0  0  0  0  0  0  0  0  0  0  0
   23.0960   15.4830   10.5290 C   0  0  0  0  0  0  0  0  0  0  0  0
   24.0190   15.9990   11.4600 C   0  0  0  0  0  0  0  0  0  0  0  0
   23.8010   15.8690   12.8270 C   0  0  0  0  0  0  0  0  0  0  0  0
   24.7550   16.4000   13.8400 C   0  0  0  0  0  0  0  0  0  0  0  0
   25.3650   15.6330   14.5760 O   0  0  0  0  0  0  0  0  0  0  0  0
   24.9320   17.7650   13.8700 N   0  0  0  0  0  0  0  0  0  0  0  0
   25.9480   18.3710   14.7210 C   0  0  2  0  0  0  0  0  0  0  0  0
   25.7420   18.0310   16.1930 C   0  0  0  0  0  0  0  0  0  0  0  0
   26.8080   18.7270   17.0270 C   0  0  0  0  0  0  0  0  0  0  0  0
   26.8050   20.2190   16.7880 C   0  0  0  0  0  0  0  0  0  0  0  0
   27.0890   21.0270   17.6660 O   0  0  0  0  0  0  0  0  0  0  0  0
   26.5000   20.6380   15.5170 N   0  0  0  0  0  0  0  0  0  0  0  0
   25.8850   19.8910   14.5440 C   0  0  0  0  0  0  0  0  0  0  0  0
   25.3340   20.4230   13.5800 O   0  0  0  0  0  0  0  0  0  0  0  0
   22.6340   15.2460   13.2820 C   0  0  0  0  0  0  0  0  0  0  0  0
   21.6710   14.7260   12.3750 C   0  0  0  0  0  0  0  0  0  0  0  0
   21.9190   14.8550   11.0030 C   0  0  0  0  0  0  0  0  0  0  0  0
   20.6210   14.1800   10.0990 S   0  0  0  0  0  0  0  0  0  0  0  0
   19.7470   13.6980   11.4850 C   0  0  0  0  0  0  0  0  0  0  0  0
   18.5070   13.0290   11.5110 C   0  0  0  0  0  0  0  0  0  0  0  0
   17.9310   12.7140   12.7430 C   0  0  0  0  0  0  0  0  0  0  0  0
   18.5710   13.0570   13.9240 C   0  0  0  0  0  0  0  0  0  0  0  0
   19.8010   13.7190   13.8910 C   0  0  0  0  0  0  0  0  0  0  0  0
   20.4150   14.0520   12.6540 C   0  0  0  0  0  0  0  0  0  0  0  0
   21.7120   15.8360    6.7800 C   0  0  0  0  0  0  0  0  0  0  0  0
   20.5350   16.3480    6.4860 N   0  0  0  0  0  0  0  0  0  0  0  0
   18.9504   19.6134    8.5356 H   0  0  0  0  0  0  0  0  0  0  0  0
   19.8320   19.3891    6.9867 H   0  0  0  0  0  0  0  0  0  0  0  0
   18.0430   19.5504    6.9867 H   0  0  0  0  0  0  0  0  0  0  0  0
   18.2820   17.4222    8.6366 H   0  0  0  0  0  0  0  0  0  0  0  0
   18.1774   17.2788    6.8292 H   0  0  0  0  0  0  0  0  0  0  0  0
   20.9640   17.1815    9.6864 H   0  0  0  0  0  0  0  0  0  0  0  0
   24.9237   16.5113   11.1008 H   0  0  0  0  0  0  0  0  0  0  0  0
   24.3375   18.3668   13.2823 H   0  0  0  0  0  0  0  0  0  0  0  0
   26.9293   17.9737   14.4223 H   0  0  0  0  0  0  0  0  0  0  0  0
   24.7460   18.3715   16.5123 H   0  0  0  0  0  0  0  0  0  0  0  0
   25.8189   16.9426   16.3328 H   0  0  0  0  0  0  0  0  0  0  0  0
   26.6120   18.5344   18.0921 H   0  0  0  0  0  0  0  0  0  0  0  0
   27.7914   18.3306   16.7343 H   0  0  0  0  0  0  0  0  0  0  0  0
   26.7570   21.6044   15.2703 H   0  0  0  0  0  0  0  0  0  0  0  0
   22.4580   15.1567   14.3641 H   0  0  0  0  0  0  0  0  0  0  0  0
   17.9998   12.7586   10.5731 H   0  0  0  0  0  0  0  0  0  0  0  0
   16.9640   12.1908   12.7769 H   0  0  0  0  0  0  0  0  0  0  0  0
   18.1088   12.8071   14.8904 H   0  0  0  0  0  0  0  0  0  0  0  0
   20.3000   13.9856   14.8344 H   0  0  0  0  0  0  0  0  0  0  0  0
   22.3404   15.2646    6.0810 H   0  0  0  0  0  0  0  0  0  0  0  0
  1  2  1  0
  2  3  1  0
  3  4  2  0
  4  5  1  0
  5  6  1  0
  6  7  2  0
  6  8  2  0
  6  9  1  0
  9 10  2  0
 10 11  1  0
 11 12  1  0
 12 13  2  0
 12 14  1  0
 14 15  1  0
 15 16  1  0
 16 17  1  0
 17 18  1  0
 18 19  2  0
 18 20  1  0
 20 21  1  0
 21 22  2  0
 11 23  2  0
 23 24  1  0
 24 25  2  0
 25 26  1  0
 26 27  1  0
 27 28  2  0
 28 29  1  0
 29 30  2  0
 30 31  1  0
 31 32  2  0
  5 33  1  0
 33 34  2  0
 34  3  1  0
 25  9  1  0
 32 27  1  0
 21 15  1  0
 32 24  1  0
  1 35  1  0
  1 36  1  0
  1 37  1  0
  2 38  1  0
  2 39  1  0
  4 40  1  0
 10 41  1  0
 14 42  1  0
 15 43  1  6
 16 44  1  0
 16 45  1  0
 17 46  1  0
 17 47  1  0
 20 48  1  0
 23 49  1  0
 28 50  1  0
 29 51  1  0
 30 52  1  0
 31 53  1  0
 33 54  1  0
M  END
>  <meeko>  (43) 
{"is_sidechain": [true], "free_energy": -11.52, "intermolecular_energy": 0.0, "internal_energy": -11.52, "cluster_size": 19, "cluster_id": 1, "rank_in_cluster": 1}

>  <_RMSD_MCS_to_ref>  (43) 
0.7014149192089439

$$$$
ligand
     RDKit          3D

 55 59  0  0  0  0  0  0  0  0999 V2000
   18.9090   19.1540    7.5370 C   0  0  0  0  0  0  0  0  0  0  0  0
   18.7730   17.6460    7.6780 C   0  0  0  0  0  0  0  0  0  0  0  0
   20.0700   16.9460    7.4820 C   0  0  0  0  0  0  0  0  0  0  0  0
   21.2740   17.1460    8.1300 C   0  0  0  0  0  0  0  0  0  0  0  0
   22.1210   16.2520    7.5420 N   0  0  0  0  0  0  0  0  0  0  0  0
   23.7410   16.0350    7.9150 S   0  0  0  0  0  6  0  0  0  0  0  0
   24.0070   16.8300    9.0970 O   0  0  0  0  0  0  0  0  0  0  0  0
   24.4210   16.2820    6.6560 O   0  0  0  0  0  0  0  0  0  0  0  0
   23.9460   14.3200    8.3380 C   0  0  0  0  0  0  0  0  0  0  0  0
   24.1910   13.4390    7.2680 C   0  0  0  0  0  0  0  0  0  0  0  0
   24.3550   12.0740    7.4970 C   0  0  0  0  0  0  0  0  0  0  0  0
   24.2790   11.5810    8.7930 C   0  0  0  0  0  0  0  0  0  0  0  0
   24.0470   12.4530    9.8590 C   0  0  0  0  0  0  0  0  0  0  0  0
   23.8770   13.8390    9.6620 C   0  0  0  0  0  0  0  0  0  0  0  0
   23.6510   14.6680   10.8540 C   0  0  0  0  0  0  0  0  0  0  0  0
   22.4190   14.5730   11.5580 C   0  0  0  0  0  0  0  0  0  0  0  0
   22.1660   15.3300   12.7080 C   0  0  0  0  0  0  0  0  0  0  0  0
   23.1690   16.1710   13.1390 C   0  0  0  0  0  0  0  0  0  0  0  0
   24.3780   16.2620   12.4790 C   0  0  0  0  0  0  0  0  0  0  0  0
   24.6540   15.5230   11.3430 C   0  0  0  0  0  0  0  0  0  0  0  0
   25.2050   17.2180   13.2110 C   0  0  0  0  0  0  0  0  0  0  0  0
   26.3510   17.5000   12.9180 O   0  0  0  0  0  0  0  0  0  0  0  0
   24.4410   17.6930   14.2430 N   0  0  0  0  0  0  0  0  0  0  0  0
   24.9750   18.5580   15.2820 C   0  0  1  0  0  0  0  0  0  0  0  0
   26.0900   17.9280   16.1120 C   0  0  0  0  0  0  0  0  0  0  0  0
   26.5370   18.9140   17.1810 C   0  0  0  0  0  0  0  0  0  0  0  0
   26.9720   20.2260   16.5710 C   0  0  0  0  0  0  0  0  0  0  0  0
   27.8030   20.9550   17.1060 O   0  0  0  0  0  0  0  0  0  0  0  0
   26.3500   20.6000   15.4060 N   0  0  0  0  0  0  0  0  0  0  0  0
   25.4640   19.8660   14.6490 C   0  0  0  0  0  0  0  0  0  0  0  0
   25.0680   20.2930   13.5660 O   0  0  0  0  0  0  0  0  0  0  0  0
   23.2250   17.0660   14.2930 C   0  0  0  0  0  0  0  0  0  0  0  0
   22.3450   17.1620   15.1260 O   0  0  0  0  0  0  0  0  0  0  0  0
   21.4330   15.5120    6.6360 C   0  0  0  0  0  0  0  0  0  0  0  0
   20.1890   15.9350    6.5470 N   0  0  0  0  0  0  0  0  0  0  0  0
   18.9504   19.6134    8.5356 H   0  0  0  0  0  0  0  0  0  0  0  0
   19.8320   19.3891    6.9867 H   0  0  0  0  0  0  0  0  0  0  0  0
   18.0430   19.5504    6.9867 H   0  0  0  0  0  0  0  0  0  0  0  0
   18.3950   17.4167    8.6853 H   0  0  0  0  0  0  0  0  0  0  0  0
   18.0781   17.2948    6.9010 H   0  0  0  0  0  0  0  0  0  0  0  0
   21.4982   17.8615    8.9349 H   0  0  0  0  0  0  0  0  0  0  0  0
   24.2536   13.8312    6.2422 H   0  0  0  0  0  0  0  0  0  0  0  0
   24.5436   11.3909    6.6557 H   0  0  0  0  0  0  0  0  0  0  0  0
   24.4015   10.5039    8.9799 H   0  0  0  0  0  0  0  0  0  0  0  0
   23.9955   12.0476   10.8803 H   0  0  0  0  0  0  0  0  0  0  0  0
   21.6435   13.8858   11.1887 H   0  0  0  0  0  0  0  0  0  0  0  0
   21.2084   15.2567   13.2442 H   0  0  0  0  0  0  0  0  0  0  0  0
   25.6280   15.6018   10.8379 H   0  0  0  0  0  0  0  0  0  0  0  0
   24.1514   18.7449   15.9868 H   0  0  0  0  0  0  0  0  0  0  0  0
   25.7184   17.0100   16.5907 H   0  0  0  0  0  0  0  0  0  0  0  0
   26.9404   17.6795   15.4600 H   0  0  0  0  0  0  0  0  0  0  0  0
   25.6997   19.0994   17.8699 H   0  0  0  0  0  0  0  0  0  0  0  0
   27.3937   18.4797   17.7172 H   0  0  0  0  0  0  0  0  0  0  0  0
   26.5726   21.5428   15.0559 H   0  0  0  0  0  0  0  0  0  0  0  0
   21.8548   14.6768    6.0576 H   0  0  0  0  0  0  0  0  0  0  0  0
  1  2  1  0
  2  3  1  0
  3  4  2  0
  4  5  1  0
  5  6  1  0
  6  7  2  0
  6  8  2  0
  6  9  1  0
  9 10  2  0
 10 11  1  0
 11 12  2  0
 12 13  1  0
 13 14  2  0
 14 15  1  0
 15 16  2  0
 16 17  1  0
 17 18  2  0
 18 19  1  0
 19 20  2  0
 19 21  1  0
 21 22  2  0
 21 23  1  0
 23 24  1  0
 24 25  1  0
 25 26  1  0
 26 27  1  0
 27 28  2  0
 27 29  1  0
 29 30  1  0
 30 31  2  0
 23 32  1  0
 32 33  2  0
  5 34  1  0
 34 35  2  0
 35  3  1  0
 14  9  1  0
 20 15  1  0
 30 24  1  0
 32 18  1  0
  1 36  1  0
  1 37  1  0
  1 38  1  0
  2 39  1  0
  2 40  1  0
  4 41  1  0
 10 42  1  0
 11 43  1  0
 12 44  1  0
 13 45  1  0
 16 46  1  0
 17 47  1  0
 20 48  1  0
 24 49  1  1
 25 50  1  0
 25 51  1  0
 26 52  1  0
 26 53  1  0
 29 54  1  0
 34 55  1  0
M  END
>  <meeko>  (44) 
{"is_sidechain": [true], "free_energy": -11.51, "intermolecular_energy": 0.0, "internal_energy": -11.51, "cluster_size": 20, "cluster_id": 1, "rank_in_cluster": 1}

>  <_RMSD_MCS_to_ref>  (44) 
1.144103441219598

$$$$
ligand
     RDKit          3D

 54 58  0  0  0  0  0  0  0  0999 V2000
   18.9090   19.1540    7.5370 C   0  0  0  0  0  0  0  0  0  0  0  0
   18.7730   17.6460    7.6780 C   0  0  0  0  0  0  0  0  0  0  0  0
   19.7460   16.9120    6.8250 C   0  0  0  0  0  0  0  0  0  0  0  0
   20.1210   15.5830    6.8790 C   0  0  0  0  0  0  0  0  0  0  0  0
   21.0220   15.4480    5.8610 N   0  0  0  0  0  0  0  0  0  0  0  0
   21.9930   14.1070    5.5810 S   0  0  0  0  0  6  0  0  0  0  0  0
   21.1820   12.9520    5.9130 O   0  0  0  0  0  0  0  0  0  0  0  0
   22.5650   14.3000    4.2630 O   0  0  0  0  0  0  0  0  0  0  0  0
   23.2700   14.2610    6.7740 C   0  0  0  0  0  0  0  0  0  0  0  0
   24.5500   13.8550    6.4520 C   0  0  0  0  0  0  0  0  0  0  0  0
   25.5800   13.9340    7.3220 N   0  0  0  0  0  0  0  0  0  0  0  0
   25.3150   14.4580    8.5450 C   0  0  0  0  0  0  0  0  0  0  0  0
   24.0620   14.9170    8.9640 C   0  0  0  0  0  0  0  0  0  0  0  0
   23.8490   15.4820   10.3060 C   0  0  0  0  0  0  0  0  0  0  0  0
   22.7100   15.1110   11.0750 C   0  0  0  0  0  0  0  0  0  0  0  0
   22.4810   15.6260   12.3580 C   0  0  0  0  0  0  0  0  0  0  0  0
   23.4070   16.5200   12.8520 C   0  0  0  0  0  0  0  0  0  0  0  0
   24.5180   16.8930   12.1220 C   0  0  0  0  0  0  0  0  0  0  0  0
   24.7680   16.3960   10.8560 C   0  0  0  0  0  0  0  0  0  0  0  0
   25.2840   17.8300   12.9380 C   0  0  0  0  0  0  0  0  0  0  0  0
   26.3380   18.3320   12.5950 O   0  0  0  0  0  0  0  0  0  0  0  0
   24.5830   18.0070   14.1010 N   0  0  0  0  0  0  0  0  0  0  0  0
   25.1110   18.7570   15.2300 C   0  0  1  0  0  0  0  0  0  0  0  0
   26.2240   18.0440   15.9940 C   0  0  0  0  0  0  0  0  0  0  0  0
   26.6610   18.9120   17.1650 C   0  0  0  0  0  0  0  0  0  0  0  0
   27.0970   20.2820   16.7000 C   0  0  0  0  0  0  0  0  0  0  0  0
   27.9240   20.9510   17.3130 O   0  0  0  0  0  0  0  0  0  0  0  0
   26.4780   20.7770   15.5780 N   0  0  0  0  0  0  0  0  0  0  0  0
   25.5990   20.1260   14.7420 C   0  0  0  0  0  0  0  0  0  0  0  0
   25.2090   20.6620   13.7060 O   0  0  0  0  0  0  0  0  0  0  0  0
   23.4670   17.2150   14.1360 C   0  0  0  0  0  0  0  0  0  0  0  0
   22.6610   17.0610   15.0320 O   0  0  0  0  0  0  0  0  0  0  0  0
   23.0190   14.8080    8.0350 C   0  0  0  0  0  0  0  0  0  0  0  0
   21.2040   16.6540    5.2640 C   0  0  0  0  0  0  0  0  0  0  0  0
   20.4340   17.5650    5.8200 N   0  0  0  0  0  0  0  0  0  0  0  0
   18.9504   19.6134    8.5356 H   0  0  0  0  0  0  0  0  0  0  0  0
   19.8320   19.3891    6.9867 H   0  0  0  0  0  0  0  0  0  0  0  0
   18.0430   19.5504    6.9867 H   0  0  0  0  0  0  0  0  0  0  0  0
   18.9457   17.3714    8.7291 H   0  0  0  0  0  0  0  0  0  0  0  0
   17.7602   17.3663    7.3525 H   0  0  0  0  0  0  0  0  0  0  0  0
   19.7736   14.8107    7.5810 H   0  0  0  0  0  0  0  0  0  0  0  0
   24.7383   13.4510    5.4464 H   0  0  0  0  0  0  0  0  0  0  0  0
   26.1477   14.5270    9.2605 H   0  0  0  0  0  0  0  0  0  0  0  0
   21.9879   14.3987   10.6494 H   0  0  0  0  0  0  0  0  0  0  0  0
   21.5999   15.3296   12.9460 H   0  0  0  0  0  0  0  0  0  0  0  0
   25.6610   16.7064   10.2937 H   0  0  0  0  0  0  0  0  0  0  0  0
   24.2843   18.8653   15.9476 H   0  0  0  0  0  0  0  0  0  0  0  0
   25.8530   17.0789   16.3695 H   0  0  0  0  0  0  0  0  0  0  0  0
   27.0788   17.8684   15.3243 H   0  0  0  0  0  0  0  0  0  0  0  0
   25.8184   19.0220   17.8636 H   0  0  0  0  0  0  0  0  0  0  0  0
   27.5148   18.4249   17.6588 H   0  0  0  0  0  0  0  0  0  0  0  0
   26.6980   21.7528   15.3326 H   0  0  0  0  0  0  0  0  0  0  0  0
   22.0074   15.1514    8.2971 H   0  0  0  0  0  0  0  0  0  0  0  0
   21.8981   16.8431    4.4319 H   0  0  0  0  0  0  0  0  0  0  0  0
  1  2  1  0
  2  3  1  0
  3  4  2  0
  4  5  1  0
  5  6  1  0
  6  7  2  0
  6  8  2  0
  6  9  1  0
  9 10  2  0
 10 11  1  0
 11 12  2  0
 12 13  1  0
 13 14  1  0
 14 15  2  0
 15 16  1  0
 16 17  2  0
 17 18  1  0
 18 19  2  0
 18 20  1  0
 20 21  2  0
 20 22  1  0
 22 23  1  0
 23 24  1  0
 24 25  1  0
 25 26  1  0
 26 27  2  0
 26 28  1  0
 28 29  1  0
 29 30  2  0
 22 31  1  0
 31 32  2  0
 13 33  2  0
  5 34  1  0
 34 35  2  0
 35  3  1  0
 33  9  1  0
 19 14  1  0
 29 23  1  0
 31 17  1  0
  1 36  1  0
  1 37  1  0
  1 38  1  0
  2 39  1  0
  2 40  1  0
  4 41  1  0
 10 42  1  0
 12 43  1  0
 15 44  1  0
 16 45  1  0
 19 46  1  0
 23 47  1  1
 24 48  1  0
 24 49  1  0
 25 50  1  0
 25 51  1  0
 28 52  1  0
 33 53  1  0
 34 54  1  0
M  END
>  <meeko>  (45) 
{"is_sidechain": [true], "free_energy": -11.5, "intermolecular_energy": 0.0, "internal_energy": -11.5, "cluster_size": 19, "cluster_id": 1, "rank_in_cluster": 1}

>  <_RMSD_MCS_to_ref>  (45) 
0.936263317662291

$$$$
ligand
     RDKit          3D

 51 54  0  0  0  0  0  0  0  0999 V2000
   18.9090   19.1540    7.5370 C   0  0  0  0  0  0  0  0  0  0  0  0
   18.7730   17.6460    7.6780 C   0  0  0  0  0  0  0  0  0  0  0  0
   20.0820   16.9500    7.5520 C   0  0  0  0  0  0  0  0  0  0  0  0
   21.0970   16.8330    8.4820 C   0  0  0  0  0  0  0  0  0  0  0  0
   22.0590   16.1090    7.8400 N   0  0  0  0  0  0  0  0  0  0  0  0
   23.4380   15.4580    8.5450 S   0  0  0  0  0  6  0  0  0  0  0  0
   23.5580   14.1160    8.0120 O   0  0  0  0  0  0  0  0  0  0  0  0
   24.4790   16.4540    8.3880 O   0  0  0  0  0  0  0  0  0  0  0  0
   23.0200   15.3530   10.2630 C   0  0  0  0  0  0  0  0  0  0  0  0
   23.9100   15.8440   11.2140 C   0  0  0  0  0  0  0  0  0  0  0  0
   23.5850   15.7520   12.5730 C   0  0  0  0  0  0  0  0  0  0  0  0
   24.6110   16.2740   13.5070 C   0  0  0  0  0  0  0  0  0  0  0  0
   25.2120   15.5070   14.2490 O   0  0  0  0  0  0  0  0  0  0  0  0
   24.7720   17.6380   13.5210 N   0  0  0  0  0  0  0  0  0  0  0  0
   25.7890   18.2790   14.3390 C   0  0  2  0  0  0  0  0  0  0  0  0
   25.6410   17.9250   15.8150 C   0  0  0  0  0  0  0  0  0  0  0  0
   26.7130   18.6440   16.6180 C   0  0  0  0  0  0  0  0  0  0  0  0
   26.6640   20.1370   16.3860 C   0  0  0  0  0  0  0  0  0  0  0  0
   26.9410   20.9500   17.2640 O   0  0  0  0  0  0  0  0  0  0  0  0
   26.3210   20.5520   15.1240 N   0  0  0  0  0  0  0  0  0  0  0  0
   25.6810   19.7970   14.1730 C   0  0  0  0  0  0  0  0  0  0  0  0
   25.0700   20.3270   13.2450 O   0  0  0  0  0  0  0  0  0  0  0  0
   22.3490   15.1980   13.0040 C   0  0  0  0  0  0  0  0  0  0  0  0
   21.9170   15.1430   14.3520 C   0  0  0  0  0  0  0  0  0  0  0  0
   20.6970   14.5670   14.7070 C   0  0  0  0  0  0  0  0  0  0  0  0
   19.8670   14.0400   13.7270 C   0  0  0  0  0  0  0  0  0  0  0  0
   20.2520   14.1020   12.3900 C   0  0  0  0  0  0  0  0  0  0  0  0
   21.4750   14.6810   12.0140 C   0  0  0  0  0  0  0  0  0  0  0  0
   21.8220   14.7560   10.6550 C   0  0  0  0  0  0  0  0  0  0  0  0
   21.6130   15.7760    6.6010 C   0  0  0  0  0  0  0  0  0  0  0  0
   20.4180   16.2850    6.3890 N   0  0  0  0  0  0  0  0  0  0  0  0
   18.9504   19.6134    8.5356 H   0  0  0  0  0  0  0  0  0  0  0  0
   19.8320   19.3891    6.9867 H   0  0  0  0  0  0  0  0  0  0  0  0
   18.0430   19.5504    6.9867 H   0  0  0  0  0  0  0  0  0  0  0  0
   18.3449   17.4196    8.6657 H   0  0  0  0  0  0  0  0  0  0  0  0
   18.1207   17.2883    6.8677 H   0  0  0  0  0  0  0  0  0  0  0  0
   21.1235   17.2325    9.5066 H   0  0  0  0  0  0  0  0  0  0  0  0
   24.8605   16.3004   10.9007 H   0  0  0  0  0  0  0  0  0  0  0  0
   24.1564   18.2219   12.9370 H   0  0  0  0  0  0  0  0  0  0  0  0
   26.7720   17.9177   14.0025 H   0  0  0  0  0  0  0  0  0  0  0  0
   24.6471   18.2362   16.1689 H   0  0  0  0  0  0  0  0  0  0  0  0
   25.7525   16.8384   15.9446 H   0  0  0  0  0  0  0  0  0  0  0  0
   26.5552   18.4422   17.6878 H   0  0  0  0  0  0  0  0  0  0  0  0
   27.6968   18.2742   16.2933 H   0  0  0  0  0  0  0  0  0  0  0  0
   26.5662   21.5187   14.8667 H   0  0  0  0  0  0  0  0  0  0  0  0
   22.5597   15.5651   15.1386 H   0  0  0  0  0  0  0  0  0  0  0  0
   20.3927   14.5304   15.7635 H   0  0  0  0  0  0  0  0  0  0  0  0
   18.9095   13.5755   14.0052 H   0  0  0  0  0  0  0  0  0  0  0  0
   19.5874   13.6908   11.6159 H   0  0  0  0  0  0  0  0  0  0  0  0
   21.1442   14.3410    9.8945 H   0  0  0  0  0  0  0  0  0  0  0  0
   22.1723   15.1662    5.8762 H   0  0  0  0  0  0  0  0  0  0  0  0
  1  2  1  0
  2  3  1  0
  3  4  2  0
  4  5  1  0
  5  6  1  0
  6  7  2  0
  6  8  2  0
  6  9  1  0
  9 10  2  0
 10 11  1  0
 11 12  1  0
 12 13  2  0
 12 14  1  0
 14 15  1  0
 15 16  1  0
 16 17  1  0
 17 18  1  0
 18 19  2  0
 18 20  1  0
 20 21  1  0
 21 22  2  0
 11 23  2  0
 23 24  1  0
 24 25  2  0
 25 26  1  0
 26 27  2  0
 27 28  1  0
 28 29  2  0
  5 30  1  0
 30 31  2  0
 31  3  1  0
 29  9  1  0
 21 15  1  0
 28 23  1  0
  1 32  1  0
  1 33  1  0
  1 34  1  0
  2 35  1  0
  2 36  1  0
  4 37  1  0
 10 38  1  0
 14 39  1  0
 15 40  1  6
 16 41  1  0
 16 42  1  0
 17 43  1  0
 17 44  1  0
 20 45  1  0
 24 46  1  0
 25 47  1  0
 26 48  1  0
 27 49  1  0
 29 50  1  0
 30 51  1  0
M  END
>  <meeko>  (46) 
{"is_sidechain": [true], "free_energy": -11.5, "intermolecular_energy": 0.0, "internal_energy": -11.5, "cluster_size": 19, "cluster_id": 1, "rank_in_cluster": 1}

>  <_RMSD_MCS_to_ref>  (46) 
0.528178315849235

$$$$
ligand
     RDKit          3D

 50 53  0  0  0  0  0  0  0  0999 V2000
   18.9090   19.1540    7.5370 C   0  0  0  0  0  0  0  0  0  0  0  0
   18.7730   17.6460    7.6780 C   0  0  0  0  0  0  0  0  0  0  0  0
   20.0860   16.9530    7.5780 C   0  0  0  0  0  0  0  0  0  0  0  0
   21.0610   16.7970    8.5440 C   0  0  0  0  0  0  0  0  0  0  0  0
   22.0470   16.0920    7.9140 N   0  0  0  0  0  0  0  0  0  0  0  0
   23.4410   15.4870    8.6260 S   0  0  0  0  0  6  0  0  0  0  0  0
   23.6020   14.1400    8.1130 O   0  0  0  0  0  0  0  0  0  0  0  0
   24.4530   16.5120    8.4400 O   0  0  0  0  0  0  0  0  0  0  0  0
   23.0860   15.3770   10.3580 C   0  0  0  0  0  0  0  0  0  0  0  0
   24.0060   15.8340   11.2730 C   0  0  0  0  0  0  0  0  0  0  0  0
   23.6540   15.7270   12.6170 C   0  0  0  0  0  0  0  0  0  0  0  0
   24.6230   16.2380   13.6190 C   0  0  0  0  0  0  0  0  0  0  0  0
   25.2040   15.4790   14.3820 O   0  0  0  0  0  0  0  0  0  0  0  0
   24.8090   17.6020   13.6140 N   0  0  0  0  0  0  0  0  0  0  0  0
   25.8330   18.2250   14.4440 C   0  0  2  0  0  0  0  0  0  0  0  0
   25.6350   17.9290   15.9260 C   0  0  0  0  0  0  0  0  0  0  0  0
   26.7110   18.6390   16.7320 C   0  0  0  0  0  0  0  0  0  0  0  0
   26.7200   20.1230   16.4510 C   0  0  0  0  0  0  0  0  0  0  0  0
   27.0070   20.9550   17.3060 O   0  0  0  0  0  0  0  0  0  0  0  0
   26.4170   20.5080   15.1690 N   0  0  0  0  0  0  0  0  0  0  0  0
   25.7790   19.7400   14.2260 C   0  0  0  0  0  0  0  0  0  0  0  0
   25.2110   20.2520   13.2610 O   0  0  0  0  0  0  0  0  0  0  0  0
   22.4030   15.1800   13.0050 C   0  0  0  0  0  0  0  0  0  0  0  0
   21.9610   15.0260   14.3430 C   0  0  0  0  0  0  0  0  0  0  0  0
   20.7170   14.4680   14.6350 C   0  0  0  0  0  0  0  0  0  0  0  0
   19.8940   14.0530   13.6000 C   0  0  0  0  0  0  0  0  0  0  0  0
   20.3200   14.1950   12.2790 C   0  0  0  0  0  0  0  0  0  0  0  0
   21.5540   14.7470   11.9630 C   0  0  0  0  0  0  0  0  0  0  0  0
   21.8840   14.8400   10.6660 N   0  0  0  0  0  0  0  0  0  0  0  0
   21.6500   15.8100    6.6450 C   0  0  0  0  0  0  0  0  0  0  0  0
   20.4670   16.3360    6.4020 N   0  0  0  0  0  0  0  0  0  0  0  0
   18.9504   19.6134    8.5356 H   0  0  0  0  0  0  0  0  0  0  0  0
   19.8320   19.3891    6.9867 H   0  0  0  0  0  0  0  0  0  0  0  0
   18.0430   19.5504    6.9867 H   0  0  0  0  0  0  0  0  0  0  0  0
   18.3267   17.4203    8.6577 H   0  0  0  0  0  0  0  0  0  0  0  0
   18.1366   17.2854    6.8565 H   0  0  0  0  0  0  0  0  0  0  0  0
   21.0467   17.1579    9.5830 H   0  0  0  0  0  0  0  0  0  0  0  0
   24.9698   16.2618   10.9598 H   0  0  0  0  0  0  0  0  0  0  0  0
   24.2150   18.1921   13.0141 H   0  0  0  0  0  0  0  0  0  0  0  0
   26.8091   17.8113   14.1507 H   0  0  0  0  0  0  0  0  0  0  0  0
   24.6439   18.2865   16.2422 H   0  0  0  0  0  0  0  0  0  0  0  0
   25.7046   16.8445   16.0961 H   0  0  0  0  0  0  0  0  0  0  0  0
   26.5201   18.4786   17.8034 H   0  0  0  0  0  0  0  0  0  0  0  0
   27.6889   18.2259   16.4440 H   0  0  0  0  0  0  0  0  0  0  0  0
   26.6933   21.4598   14.8885 H   0  0  0  0  0  0  0  0  0  0  0  0
   22.6121   15.3531   15.1670 H   0  0  0  0  0  0  0  0  0  0  0  0
   20.3910   14.3579   15.6798 H   0  0  0  0  0  0  0  0  0  0  0  0
   18.9096   13.6137   13.8190 H   0  0  0  0  0  0  0  0  0  0  0  0
   19.6598   13.8603   11.4653 H   0  0  0  0  0  0  0  0  0  0  0  0
   22.2354   15.2238    5.9213 H   0  0  0  0  0  0  0  0  0  0  0  0
  1  2  1  0
  2  3  1  0
  3  4  2  0
  4  5  1  0
  5  6  1  0
  6  7  2  0
  6  8  2  0
  6  9  1  0
  9 10  2  0
 10 11  1  0
 11 12  1  0
 12 13  2  0
 12 14  1  0
 14 15  1  0
 15 16  1  0
 16 17  1  0
 17 18  1  0
 18 19  2  0
 18 20  1  0
 20 21  1  0
 21 22  2  0
 11 23  2  0
 23 24  1  0
 24 25  2  0
 25 26  1  0
 26 27  2  0
 27 28  1  0
 28 29  2  0
  5 30  1  0
 30 31  2  0
 31  3  1  0
 29  9  1  0
 21 15  1  0
 28 23  1  0
  1 32  1  0
  1 33  1  0
  1 34  1  0
  2 35  1  0
  2 36  1  0
  4 37  1  0
 10 38  1  0
 14 39  1  0
 15 40  1  6
 16 41  1  0
 16 42  1  0
 17 43  1  0
 17 44  1  0
 20 45  1  0
 24 46  1  0
 25 47  1  0
 26 48  1  0
 27 49  1  0
 30 50  1  0
M  END
>  <meeko>  (47) 
{"is_sidechain": [true], "free_energy": -11.49, "intermolecular_energy": 0.0, "internal_energy": -11.49, "cluster_size": 20, "cluster_id": 1, "rank_in_cluster": 1}

>  <_RMSD_MCS_to_ref>  (47) 
0.555285212000703

$$$$
ligand
     RDKit          3D

 54 58  0  0  0  0  0  0  0  0999 V2000
   18.9090   19.1540    7.5370 C   0  0  0  0  0  0  0  0  0  0  0  0
   18.7730   17.6460    7.6780 C   0  0  0  0  0  0  0  0  0  0  0  0
   20.0610   16.9970    8.0450 C   0  0  0  0  0  0  0  0  0  0  0  0
   21.2910   17.0920    7.4220 C   0  0  0  0  0  0  0  0  0  0  0  0
   22.1030   16.2900    8.1710 N   0  0  0  0  0  0  0  0  0  0  0  0
   23.7270   15.9890    7.8820 S   0  0  0  0  0  6  0  0  0  0  0  0
   23.8540   16.1110    6.4420 O   0  0  0  0  0  0  0  0  0  0  0  0
   24.4770   16.8310    8.7920 O   0  0  0  0  0  0  0  0  0  0  0  0
   24.0230   14.2970    8.3240 C   0  0  0  0  0  0  0  0  0  0  0  0
   24.2970   13.4180    7.2660 C   0  0  0  0  0  0  0  0  0  0  0  0
   24.5170   12.0870    7.5570 C   0  0  0  0  0  0  0  0  0  0  0  0
   24.4840   11.5930    8.8070 N   0  0  0  0  0  0  0  0  0  0  0  0
   24.2380   12.4670    9.8100 C   0  0  0  0  0  0  0  0  0  0  0  0
   23.9960   13.8340    9.6490 C   0  0  0  0  0  0  0  0  0  0  0  0
   23.7480   14.6480   10.8440 C   0  0  0  0  0  0  0  0  0  0  0  0
   22.5300   14.4980   11.5620 C   0  0  0  0  0  0  0  0  0  0  0  0
   22.2560   15.2450   12.7150 C   0  0  0  0  0  0  0  0  0  0  0  0
   23.2250   16.1310   13.1340 C   0  0  0  0  0  0  0  0  0  0  0  0
   24.4210   16.2770   12.4590 C   0  0  0  0  0  0  0  0  0  0  0  0
   24.7170   15.5500   11.3200 C   0  0  0  0  0  0  0  0  0  0  0  0
   25.2110   17.2720   13.1790 C   0  0  0  0  0  0  0  0  0  0  0  0
   26.3370   17.6060   12.8680 O   0  0  0  0  0  0  0  0  0  0  0  0
   24.4390   17.7120   14.2210 N   0  0  0  0  0  0  0  0  0  0  0  0
   24.9460   18.6000   15.2540 C   0  0  1  0  0  0  0  0  0  0  0  0
   25.9760   17.9600   16.1820 C   0  0  0  0  0  0  0  0  0  0  0  0
   26.3990   18.9760   17.2340 C   0  0  0  0  0  0  0  0  0  0  0  0
   26.9340   20.2370   16.5960 C   0  0  0  0  0  0  0  0  0  0  0  0
   27.7620   20.9520   17.1510 O   0  0  0  0  0  0  0  0  0  0  0  0
   26.4030   20.5820   15.3780 N   0  0  0  0  0  0  0  0  0  0  0  0
   25.5340   19.8540   14.5980 C   0  0  0  0  0  0  0  0  0  0  0  0
   25.2300   20.2450   13.4720 O   0  0  0  0  0  0  0  0  0  0  0  0
   23.2550   17.0290   14.2870 C   0  0  0  0  0  0  0  0  0  0  0  0
   22.3810   17.0850   15.1310 O   0  0  0  0  0  0  0  0  0  0  0  0
   21.4010   15.7930    9.2190 C   0  0  0  0  0  0  0  0  0  0  0  0
   20.1420   16.1730    9.1500 N   0  0  0  0  0  0  0  0  0  0  0  0
   18.9504   19.6134    8.5356 H   0  0  0  0  0  0  0  0  0  0  0  0
   19.8320   19.3891    6.9867 H   0  0  0  0  0  0  0  0  0  0  0  0
   18.0430   19.5504    6.9867 H   0  0  0  0  0  0  0  0  0  0  0  0
   18.0313   17.4289    8.4608 H   0  0  0  0  0  0  0  0  0  0  0  0
   18.4573   17.2430    6.7044 H   0  0  0  0  0  0  0  0  0  0  0  0
   21.5546   17.6781    6.5293 H   0  0  0  0  0  0  0  0  0  0  0  0
   24.3356   13.7810    6.2284 H   0  0  0  0  0  0  0  0  0  0  0  0
   24.7295   11.3975    6.7267 H   0  0  0  0  0  0  0  0  0  0  0  0
   24.2276   12.0693   10.8356 H   0  0  0  0  0  0  0  0  0  0  0  0
   21.7824   13.7757   11.2023 H   0  0  0  0  0  0  0  0  0  0  0  0
   21.3087   15.1294   13.2621 H   0  0  0  0  0  0  0  0  0  0  0  0
   25.6799   15.6733   10.8026 H   0  0  0  0  0  0  0  0  0  0  0  0
   24.0895   18.8557   15.8951 H   0  0  0  0  0  0  0  0  0  0  0  0
   25.5324   17.0824   16.6750 H   0  0  0  0  0  0  0  0  0  0  0  0
   26.8535   17.6434   15.5991 H   0  0  0  0  0  0  0  0  0  0  0  0
   25.5285   19.2309   17.8564 H   0  0  0  0  0  0  0  0  0  0  0  0
   27.1976   18.5306   17.8454 H   0  0  0  0  0  0  0  0  0  0  0  0
   26.6900   21.4971   15.0023 H   0  0  0  0  0  0  0  0  0  0  0  0
   21.8234   15.1616   10.0145 H   0  0  0  0  0  0  0  0  0  0  0  0
  1  2  1  0
  2  3  1  0
  3  4  2  0
  4  5  1  0
  5  6  1  0
  6  7  2  0
  6  8  2  0
  6  9  1  0
  9 10  2  0
 10 11  1  0
 11 12  2  0
 12 13  1  0
 13 14  2  0
 14 15  1  0
 15 16  2  0
 16 17  1  0
 17 18  2  0
 18 19  1  0
 19 20  2  0
 19 21  1  0
 21 22  2  0
 21 23  1  0
 23 24  1  0
 24 25  1  0
 25 26  1  0
 26 27  1  0
 27 28  2  0
 27 29  1  0
 29 30  1  0
 30 31  2  0
 23 32  1  0
 32 33  2  0
  5 34  1  0
 34 35  2  0
 35  3  1  0
 14  9  1  0
 20 15  1  0
 30 24  1  0
 32 18  1  0
  1 36  1  0
  1 37  1  0
  1 38  1  0
  2 39  1  0
  2 40  1  0
  4 41  1  0
 10 42  1  0
 11 43  1  0
 13 44  1  0
 16 45  1  0
 17 46  1  0
 20 47  1  0
 24 48  1  1
 25 49  1  0
 25 50  1  0
 26 51  1  0
 26 52  1  0
 29 53  1  0
 34 54  1  0
M  END
>  <meeko>  (48) 
{"is_sidechain": [true], "free_energy": -11.47, "intermolecular_energy": 0.0, "internal_energy": -11.47, "cluster_size": 20, "cluster_id": 1, "rank_in_cluster": 1}

>  <_RMSD_MCS_to_ref>  (48) 
1.1130795829116338

$$$$
ligand
     RDKit          3D

 51 54  0  0  0  0  0  0  0  0999 V2000
   18.9090   19.1540    7.5370 C   0  0  0  0  0  0  0  0  0  0  0  0
   18.7730   17.6460    7.6780 C   0  0  0  0  0  0  0  0  0  0  0  0
   20.0490   16.9380    7.3930 C   0  0  0  0  0  0  0  0  0  0  0  0
   20.8930   16.2810    8.2660 C   0  0  0  0  0  0  0  0  0  0  0  0
   21.9120   15.8300    7.4750 N   0  0  0  0  0  0  0  0  0  0  0  0
   23.1470   14.7950    7.9470 S   0  0  0  0  0  6  0  0  0  0  0  0
   24.0430   14.7400    6.8080 O   0  0  0  0  0  0  0  0  0  0  0  0
   22.4710   13.6200    8.4640 O   0  0  0  0  0  0  0  0  0  0  0  0
   24.0280   15.5590    9.2970 C   0  0  0  0  0  0  0  0  0  0  0  0
   25.2330   16.2300    9.0430 C   0  0  0  0  0  0  0  0  0  0  0  0
   25.9210   16.8230   10.0900 C   0  0  0  0  0  0  0  0  0  0  0  0
   25.4140   16.7530   11.3840 C   0  0  0  0  0  0  0  0  0  0  0  0
   24.1990   16.0920   11.6840 C   0  0  0  0  0  0  0  0  0  0  0  0
   23.6740   16.0100   13.0040 C   0  0  0  0  0  0  0  0  0  0  0  0
   24.3560   16.6470   14.1640 C   0  0  0  0  0  0  0  0  0  0  0  0
   24.7400   15.9890   15.1220 O   0  0  0  0  0  0  0  0  0  0  0  0
   24.5070   18.0130   14.0740 N   0  0  0  0  0  0  0  0  0  0  0  0
   25.0190   18.7930   15.1920 C   0  0  1  0  0  0  0  0  0  0  0  0
   26.1550   18.0810   15.9180 C   0  0  0  0  0  0  0  0  0  0  0  0
   26.6650   18.9620   17.0490 C   0  0  0  0  0  0  0  0  0  0  0  0
   27.0860   20.3200   16.5390 C   0  0  0  0  0  0  0  0  0  0  0  0
   28.0170   20.9490   17.0320 O   0  0  0  0  0  0  0  0  0  0  0  0
   26.3530   20.8420   15.5030 N   0  0  0  0  0  0  0  0  0  0  0  0
   25.5320   20.1350   14.6600 C   0  0  0  0  0  0  0  0  0  0  0  0
   25.2260   20.5750   13.5530 O   0  0  0  0  0  0  0  0  0  0  0  0
   22.4740   15.3380   13.2750 C   0  0  0  0  0  0  0  0  0  0  0  0
   21.7800   14.7320   12.2430 C   0  0  0  0  0  0  0  0  0  0  0  0
   22.2780   14.7990   10.9410 C   0  0  0  0  0  0  0  0  0  0  0  0
   23.4880   15.4720   10.6180 C   0  0  0  0  0  0  0  0  0  0  0  0
   21.6670   16.1860    6.1860 C   0  0  0  0  0  0  0  0  0  0  0  0
   20.5360   16.8560    6.1020 N   0  0  0  0  0  0  0  0  0  0  0  0
   18.9504   19.6134    8.5356 H   0  0  0  0  0  0  0  0  0  0  0  0
   19.8320   19.3891    6.9867 H   0  0  0  0  0  0  0  0  0  0  0  0
   18.0430   19.5504    6.9867 H   0  0  0  0  0  0  0  0  0  0  0  0
   18.4608   17.4131    8.7067 H   0  0  0  0  0  0  0  0  0  0  0  0
   18.0264   17.3043    6.9460 H   0  0  0  0  0  0  0  0  0  0  0  0
   20.7726   16.1503    9.3515 H   0  0  0  0  0  0  0  0  0  0  0  0
   25.6299   16.2854    8.0186 H   0  0  0  0  0  0  0  0  0  0  0  0
   26.8678   17.3490    9.8980 H   0  0  0  0  0  0  0  0  0  0  0  0
   25.9766   17.2275   12.2015 H   0  0  0  0  0  0  0  0  0  0  0  0
   24.2527   18.4924   13.1985 H   0  0  0  0  0  0  0  0  0  0  0  0
   24.1990   18.9356   15.9112 H   0  0  0  0  0  0  0  0  0  0  0  0
   25.7872   17.1302   16.3312 H   0  0  0  0  0  0  0  0  0  0  0  0
   26.9737   17.8812   15.2111 H   0  0  0  0  0  0  0  0  0  0  0  0
   25.8642   19.0907   17.7921 H   0  0  0  0  0  0  0  0  0  0  0  0
   27.5408   18.4740   17.5016 H   0  0  0  0  0  0  0  0  0  0  0  0
   26.4254   21.8570   15.3433 H   0  0  0  0  0  0  0  0  0  0  0  0
   22.0860   15.2927   14.3033 H   0  0  0  0  0  0  0  0  0  0  0  0
   20.8395   14.1995   12.4478 H   0  0  0  0  0  0  0  0  0  0  0  0
   21.7122   14.3121   10.1331 H   0  0  0  0  0  0  0  0  0  0  0  0
   22.3207   15.9482    5.3339 H   0  0  0  0  0  0  0  0  0  0  0  0
  1  2  1  0
  2  3  1  0
  3  4  2  0
  4  5  1  0
  5  6  1  0
  6  7  2  0
  6  8  2  0
  6  9  1  0
  9 10  2  0
 10 11  1  0
 11 12  2  0
 12 13  1  0
 13 14  2  0
 14 15  1  0
 15 16  2  0
 15 17  1  0
 17 18  1  0
 18 19  1  0
 19 20  1  0
 20 21  1  0
 21 22  2  0
 21 23  1  0
 23 24  1  0
 24 25  2  0
 14 26  1  0
 26 27  2  0
 27 28  1  0
 28 29  2  0
  5 30  1  0
 30 31  2  0
 31  3  1  0
 29  9  1  0
 29 13  1  0
 24 18  1  0
  1 32  1  0
  1 33  1  0
  1 34  1  0
  2 35  1  0
  2 36  1  0
  4 37  1  0
 10 38  1  0
 11 39  1  0
 12 40  1  0
 17 41  1  0
 18 42  1  1
 19 43  1  0
 19 44  1  0
 20 45  1  0
 20 46  1  0
 23 47  1  0
 26 48  1  0
 27 49  1  0
 28 50  1  0
 30 51  1  0
M  END
>  <meeko>  (49) 
{"is_sidechain": [true], "free_energy": -11.47, "intermolecular_energy": 0.0, "internal_energy": -11.47, "cluster_size": 11, "cluster_id": 1, "rank_in_cluster": 1}

>  <_RMSD_MCS_to_ref>  (49) 
0.6419992211833281

$$$$
ligand
     RDKit          3D

 50 53  0  0  0  0  0  0  0  0999 V2000
   18.9090   19.1540    7.5370 C   0  0  0  0  0  0  0  0  0  0  0  0
   18.7730   17.6460    7.6780 C   0  0  0  0  0  0  0  0  0  0  0  0
   20.0740   16.9150    7.6810 C   0  0  0  0  0  0  0  0  0  0  0  0
   21.0320   16.8970    8.6760 C   0  0  0  0  0  0  0  0  0  0  0  0
   22.0220   16.0970    8.1820 N   0  0  0  0  0  0  0  0  0  0  0  0
   23.3160   15.4720    9.0600 S   0  0  0  0  0  6  0  0  0  0  0  0
   23.5060   14.1190    8.5700 O   0  0  0  0  0  0  0  0  0  0  0  0
   24.3570   16.4800    8.9940 O   0  0  0  0  0  0  0  0  0  0  0  0
   22.7180   15.3860   10.7280 C   0  0  0  0  0  0  0  0  0  0  0  0
   21.7780   14.4410   11.0840 C   0  0  0  0  0  0  0  0  0  0  0  0
   21.3540   14.4080   12.4150 C   0  0  0  0  0  0  0  0  0  0  0  0
   20.3960   13.4610   12.8120 C   0  0  0  0  0  0  0  0  0  0  0  0
   19.9520   13.4000   14.1310 C   0  0  0  0  0  0  0  0  0  0  0  0
   20.4600   14.2840   15.0730 C   0  0  0  0  0  0  0  0  0  0  0  0
   21.4140   15.2330   14.6960 C   0  0  0  0  0  0  0  0  0  0  0  0
   21.8890   15.3230   13.3620 C   0  0  0  0  0  0  0  0  0  0  0  0
   22.8510   16.2410   12.8710 C   0  0  0  0  0  0  0  0  0  0  0  0
   23.5590   17.2740   13.7290 C   0  0  0  0  0  0  0  0  0  0  0  0
   23.1220   17.6990   14.7900 O   0  0  0  0  0  0  0  0  0  0  0  0
   24.7760   17.6880   13.2070 N   0  0  0  0  0  0  0  0  0  0  0  0
   25.7690   18.3450   14.0380 C   0  0  2  0  0  0  0  0  0  0  0  0
   25.6860   17.8430   15.4730 C   0  0  0  0  0  0  0  0  0  0  0  0
   26.7100   18.5680   16.3300 C   0  0  0  0  0  0  0  0  0  0  0  0
   26.5320   20.0660   16.2430 C   0  0  0  0  0  0  0  0  0  0  0  0
   26.7380   20.8100   17.1980 O   0  0  0  0  0  0  0  0  0  0  0  0
   26.1550   20.5690   15.0260 N   0  0  0  0  0  0  0  0  0  0  0  0
   25.5280   19.8640   14.0270 C   0  0  0  0  0  0  0  0  0  0  0  0
   24.8340   20.4480   13.1940 O   0  0  0  0  0  0  0  0  0  0  0  0
   23.2640   16.2870   11.5680 N   0  0  0  0  0  0  0  0  0  0  0  0
   21.6490   15.6380    6.9580 C   0  0  0  0  0  0  0  0  0  0  0  0
   20.4610   16.1030    6.6310 N   0  0  0  0  0  0  0  0  0  0  0  0
   18.9504   19.6134    8.5356 H   0  0  0  0  0  0  0  0  0  0  0  0
   19.8320   19.3891    6.9867 H   0  0  0  0  0  0  0  0  0  0  0  0
   18.0430   19.5504    6.9867 H   0  0  0  0  0  0  0  0  0  0  0  0
   18.2547   17.4328    8.6245 H   0  0  0  0  0  0  0  0  0  0  0  0
   18.2133   17.2942    6.7988 H   0  0  0  0  0  0  0  0  0  0  0  0
   21.0036   17.4115    9.6478 H   0  0  0  0  0  0  0  0  0  0  0  0
   21.3747   13.7352   10.3429 H   0  0  0  0  0  0  0  0  0  0  0  0
   19.9902   12.7570   12.0705 H   0  0  0  0  0  0  0  0  0  0  0  0
   19.2003   12.6528   14.4255 H   0  0  0  0  0  0  0  0  0  0  0  0
   20.1119   14.2375   16.1154 H   0  0  0  0  0  0  0  0  0  0  0  0
   21.8067   15.9280   15.4528 H   0  0  0  0  0  0  0  0  0  0  0  0
   24.9791   17.5261   12.2103 H   0  0  0  0  0  0  0  0  0  0  0  0
   26.7661   18.1162   13.6336 H   0  0  0  0  0  0  0  0  0  0  0  0
   24.6775   18.0332   15.8690 H   0  0  0  0  0  0  0  0  0  0  0  0
   25.8936   16.7630   15.4933 H   0  0  0  0  0  0  0  0  0  0  0  0
   26.5898   18.2525   17.3769 H   0  0  0  0  0  0  0  0  0  0  0  0
   27.7150   18.3144   15.9618 H   0  0  0  0  0  0  0  0  0  0  0  0
   26.3592   21.5620   14.8439 H   0  0  0  0  0  0  0  0  0  0  0  0
   22.2554   14.9707    6.3280 H   0  0  0  0  0  0  0  0  0  0  0  0
  1  2  1  0
  2  3  1  0
  3  4  2  0
  4  5  1  0
  5  6  1  0
  6  7  2  0
  6  8  2  0
  6  9  1  0
  9 10  2  0
 10 11  1  0
 11 12  2  0
 12 13  1  0
 13 14  2  0
 14 15  1  0
 15 16  2  0
 16 17  1  0
 17 18  1  0
 18 19  2  0
 18 20  1  0
 20 21  1  0
 21 22  1  0
 22 23  1  0
 23 24  1  0
 24 25  2  0
 24 26  1  0
 26 27  1  0
 27 28  2  0
 17 29  2  0
  5 30  1  0
 30 31  2  0
 31  3  1  0
 29  9  1  0
 16 11  1  0
 27 21  1  0
  1 32  1  0
  1 33  1  0
  1 34  1  0
  2 35  1  0
  2 36  1  0
  4 37  1  0
 10 38  1  0
 12 39  1  0
 13 40  1  0
 14 41  1  0
 15 42  1  0
 20 43  1  0
 21 44  1  6
 22 45  1  0
 22 46  1  0
 23 47  1  0
 23 48  1  0
 26 49  1  0
 30 50  1  0
M  END
>  <meeko>  (50) 
{"is_sidechain": [true], "free_energy": -11.47, "intermolecular_energy": 0.0, "internal_energy": -11.47, "cluster_size": 20, "cluster_id": 1, "rank_in_cluster": 1}

>  <_RMSD_MCS_to_ref>  (50) 
0.5880415707149358

$$$$
ligand
     RDKit          3D

 51 54  0  0  0  0  0  0  0  0999 V2000
   18.9090   19.1540    7.5370 C   0  0  0  0  0  0  0  0  0  0  0  0
   18.7730   17.6460    7.6780 C   0  0  0  0  0  0  0  0  0  0  0  0
   20.0400   16.9350    7.3560 C   0  0  0  0  0  0  0  0  0  0  0  0
   20.9210   16.2990    8.2090 C   0  0  0  0  0  0  0  0  0  0  0  0
   21.9130   15.8450    7.3890 N   0  0  0  0  0  0  0  0  0  0  0  0
   23.1570   14.8070    7.8340 S   0  0  0  0  0  6  0  0  0  0  0  0
   24.0730   14.7940    6.7070 O   0  0  0  0  0  0  0  0  0  0  0  0
   22.5170   13.6010    8.3230 O   0  0  0  0  0  0  0  0  0  0  0  0
   23.9220   15.6410    9.1970 C   0  0  0  0  0  0  0  0  0  0  0  0
   25.1020   16.3520    8.9410 C   0  0  0  0  0  0  0  0  0  0  0  0
   25.7670   16.9880    9.9830 C   0  0  0  0  0  0  0  0  0  0  0  0
   25.2600   16.9180   11.2810 C   0  0  0  0  0  0  0  0  0  0  0  0
   24.0730   16.2200   11.5540 C   0  0  0  0  0  0  0  0  0  0  0  0
   23.5090   16.1400   12.9170 C   0  0  0  0  0  0  0  0  0  0  0  0
   24.1960   16.6940   14.1180 C   0  0  0  0  0  0  0  0  0  0  0  0
   24.5290   15.9820   15.0570 O   0  0  0  0  0  0  0  0  0  0  0  0
   24.4450   18.0410   14.0650 N   0  0  0  0  0  0  0  0  0  0  0  0
   25.0130   18.7610   15.1950 C   0  0  1  0  0  0  0  0  0  0  0  0
   26.1490   17.9920   15.8600 C   0  0  0  0  0  0  0  0  0  0  0  0
   26.7150   18.8150   17.0070 C   0  0  0  0  0  0  0  0  0  0  0  0
   27.1550   20.1810   16.5360 C   0  0  0  0  0  0  0  0  0  0  0  0
   28.1270   20.7600   17.0110 O   0  0  0  0  0  0  0  0  0  0  0  0
   26.3940   20.7680   15.5570 N   0  0  0  0  0  0  0  0  0  0  0  0
   25.5490   20.1080   14.7010 C   0  0  0  0  0  0  0  0  0  0  0  0
   25.2490   20.5820   13.6060 O   0  0  0  0  0  0  0  0  0  0  0  0
   22.3680   15.4680   13.1380 C   0  0  0  0  0  0  0  0  0  0  0  0
   21.6270   14.8430   12.0290 C   0  0  0  0  0  0  0  0  0  0  0  0
   20.5650   14.2680   12.2390 O   0  0  0  0  0  0  0  0  0  0  0  0
   22.1800   14.9330   10.7860 N   0  0  0  0  0  0  0  0  0  0  0  0
   23.3890   15.5900   10.4960 C   0  0  0  0  0  0  0  0  0  0  0  0
   21.6080   16.1590    6.1030 C   0  0  0  0  0  0  0  0  0  0  0  0
   20.4770   16.8320    6.0490 N   0  0  0  0  0  0  0  0  0  0  0  0
   18.9504   19.6134    8.5356 H   0  0  0  0  0  0  0  0  0  0  0  0
   19.8320   19.3891    6.9867 H   0  0  0  0  0  0  0  0  0  0  0  0
   18.0430   19.5504    6.9867 H   0  0  0  0  0  0  0  0  0  0  0  0
   18.4885   17.4113    8.7143 H   0  0  0  0  0  0  0  0  0  0  0  0
   18.0056   17.3080    6.9660 H   0  0  0  0  0  0  0  0  0  0  0  0
   20.8412   16.1846    9.3001 H   0  0  0  0  0  0  0  0  0  0  0  0
   25.5013   16.4068    7.9175 H   0  0  0  0  0  0  0  0  0  0  0  0
   26.6934   17.5467    9.7841 H   0  0  0  0  0  0  0  0  0  0  0  0
   25.7975   17.4163   12.1012 H   0  0  0  0  0  0  0  0  0  0  0  0
   24.2240   18.5576   13.2018 H   0  0  0  0  0  0  0  0  0  0  0  0
   24.2177   18.8960   15.9429 H   0  0  0  0  0  0  0  0  0  0  0  0
   25.7669   17.0363   16.2481 H   0  0  0  0  0  0  0  0  0  0  0  0
   26.9414   17.7976   15.1222 H   0  0  0  0  0  0  0  0  0  0  0  0
   25.9406   18.9342   17.7790 H   0  0  0  0  0  0  0  0  0  0  0  0
   27.5911   18.2885   17.4135 H   0  0  0  0  0  0  0  0  0  0  0  0
   26.4629   21.7907   15.4561 H   0  0  0  0  0  0  0  0  0  0  0  0
   21.9802   15.3828   14.1638 H   0  0  0  0  0  0  0  0  0  0  0  0
   21.6770   14.4886   10.0047 H   0  0  0  0  0  0  0  0  0  0  0  0
   22.2196   15.8891    5.2295 H   0  0  0  0  0  0  0  0  0  0  0  0
  1  2  1  0
  2  3  1  0
  3  4  2  0
  4  5  1  0
  5  6  1  0
  6  7  2  0
  6  8  2  0
  6  9  1  0
  9 10  2  0
 10 11  1  0
 11 12  2  0
 12 13  1  0
 13 14  1  0
 14 15  1  0
 15 16  2  0
 15 17  1  0
 17 18  1  0
 18 19  1  0
 19 20  1  0
 20 21  1  0
 21 22  2  0
 21 23  1  0
 23 24  1  0
 24 25  2  0
 14 26  2  0
 26 27  1  0
 27 28  2  0
 27 29  1  0
 29 30  1  0
  5 31  1  0
 31 32  2  0
 32  3  1  0
 30  9  1  0
 30 13  2  0
 24 18  1  0
  1 33  1  0
  1 34  1  0
  1 35  1  0
  2 36  1  0
  2 37  1  0
  4 38  1  0
 10 39  1  0
 11 40  1  0
 12 41  1  0
 17 42  1  0
 18 43  1  1
 19 44  1  0
 19 45  1  0
 20 46  1  0
 20 47  1  0
 23 48  1  0
 26 49  1  0
 29 50  1  0
 31 51  1  0
M  END
>  <meeko>  (51) 
{"is_sidechain": [true], "free_energy": -11.47, "intermolecular_energy": 0.0, "internal_energy": -11.47, "cluster_size": 10, "cluster_id": 1, "rank_in_cluster": 1}

>  <_RMSD_MCS_to_ref>  (51) 
0.6458863849178293

$$$$
ligand
     RDKit          3D

 61 65  0  0  0  0  0  0  0  0999 V2000
   18.7970   18.8170    7.7190 C   0  0  0  0  0  0  0  0  0  0  0  0
   18.5280   17.3290    7.8810 C   0  0  0  0  0  0  0  0  0  0  0  0
   19.7490   16.5100    7.6530 C   0  0  0  0  0  0  0  0  0  0  0  0
   20.3580   15.6040    8.4970 C   0  0  0  0  0  0  0  0  0  0  0  0
   21.4210   15.1370    7.7780 N   0  0  0  0  0  0  0  0  0  0  0  0
   22.6650   14.1750    8.3720 S   0  0  0  0  0  6  0  0  0  0  0  0
   23.8120   14.4550    7.5310 O   0  0  0  0  0  0  0  0  0  0  0  0
   22.1070   12.8440    8.5120 O   0  0  0  0  0  0  0  0  0  0  0  0
   22.9580   14.8370    9.9890 C   0  0  0  0  0  0  0  0  0  0  0  0
   24.0620   15.6600   10.2050 C   0  0  0  0  0  0  0  0  0  0  0  0
   24.2230   16.1400   11.4870 C   0  0  0  0  0  0  0  0  0  0  0  0
   23.3540   15.8250   12.5330 C   0  0  0  0  0  0  0  0  0  0  0  0
   22.2570   14.9940   12.3370 C   0  0  0  0  0  0  0  0  0  0  0  0
   21.4240   14.6790   13.4180 N   0  0  0  0  0  0  0  0  0  0  0  0
   22.1590   13.9620   14.4810 C   0  0  0  0  0  0  0  0  0  0  0  0
   21.3070   13.9330   15.7510 C   0  0  0  0  0  0  0  0  0  0  0  0
   19.9290   13.3300   15.4840 C   0  0  0  0  0  0  0  0  0  0  0  0
   19.2420   14.0350   14.3150 C   0  0  0  0  0  0  0  0  0  0  0  0
   20.1390   14.0440   13.0770 C   0  0  0  0  0  0  0  0  0  0  0  0
   22.0720   14.4970   11.0370 C   0  0  0  0  0  0  0  0  0  0  0  0
   23.8100   16.5010   13.7840 C   0  0  0  0  0  0  0  0  0  0  0  0
   24.9470   17.2930   13.3300 N   0  0  0  0  0  0  0  0  0  0  0  0
   25.8410   17.9440   14.2810 C   0  0  2  0  0  0  0  0  0  0  0  0
   25.4420   17.7400   15.7410 C   0  0  0  0  0  0  0  0  0  0  0  0
   26.4720   18.4040   16.6420 C   0  0  0  0  0  0  0  0  0  0  0  0
   26.6230   19.8720   16.3140 C   0  0  0  0  0  0  0  0  0  0  0  0
   27.0500   20.6840   17.1290 O   0  0  0  0  0  0  0  0  0  0  0  0
   26.3370   20.2480   15.0260 N   0  0  0  0  0  0  0  0  0  0  0  0
   25.9870   19.4420   13.9660 C   0  0  0  0  0  0  0  0  0  0  0  0
   25.9070   19.9100   12.8310 O   0  0  0  0  0  0  0  0  0  0  0  0
   25.2680   17.0250   12.0100 C   0  0  0  0  0  0  0  0  0  0  0  0
   26.2230   17.4110   11.3660 O   0  0  0  0  0  0  0  0  0  0  0  0
   21.4630   15.7750    6.5810 C   0  0  0  0  0  0  0  0  0  0  0  0
   20.4520   16.6110    6.4680 N   0  0  0  0  0  0  0  0  0  0  0  0
   18.8815   19.2845    8.7111 H   0  0  0  0  0  0  0  0  0  0  0  0
   19.7359   18.9616    7.1643 H   0  0  0  0  0  0  0  0  0  0  0  0
   17.9682   19.2812    7.1643 H   0  0  0  0  0  0  0  0  0  0  0  0
   18.1627   17.1440    8.9019 H   0  0  0  0  0  0  0  0  0  0  0  0
   17.7798   17.0369    7.1295 H   0  0  0  0  0  0  0  0  0  0  0  0
   20.0561   15.3222    9.5165 H   0  0  0  0  0  0  0  0  0  0  0  0
   24.7653   15.9123    9.3977 H   0  0  0  0  0  0  0  0  0  0  0  0
   22.3670   12.9325   14.1541 H   0  0  0  0  0  0  0  0  0  0  0  0
   23.1089   14.4777   14.6854 H   0  0  0  0  0  0  0  0  0  0  0  0
   21.8207   13.3284   16.5129 H   0  0  0  0  0  0  0  0  0  0  0  0
   21.1706   14.9672   16.1001 H   0  0  0  0  0  0  0  0  0  0  0  0
   20.0434   12.2627   15.2438 H   0  0  0  0  0  0  0  0  0  0  0  0
   19.3095   13.4572   16.3840 H   0  0  0  0  0  0  0  0  0  0  0  0
   18.3060   13.5084   14.0772 H   0  0  0  0  0  0  0  0  0  0  0  0
   19.0355   15.0756   14.6057 H   0  0  0  0  0  0  0  0  0  0  0  0
   20.3157   13.0111   12.7425 H   0  0  0  0  0  0  0  0  0  0  0  0
   19.6499   14.6075   12.2688 H   0  0  0  0  0  0  0  0  0  0  0  0
   21.2217   13.8305   10.8300 H   0  0  0  0  0  0  0  0  0  0  0  0
   23.0192   17.1444   14.1971 H   0  0  0  0  0  0  0  0  0  0  0  0
   24.0648   15.7972   14.5901 H   0  0  0  0  0  0  0  0  0  0  0  0
   26.8163   17.4505   14.1569 H   0  0  0  0  0  0  0  0  0  0  0  0
   24.4542   18.1904   15.9182 H   0  0  0  0  0  0  0  0  0  0  0  0
   25.3976   16.6637   15.9635 H   0  0  0  0  0  0  0  0  0  0  0  0
   26.1511   18.3019   17.6892 H   0  0  0  0  0  0  0  0  0  0  0  0
   27.4423   17.9108   16.4827 H   0  0  0  0  0  0  0  0  0  0  0  0
   26.3907   21.2573   14.8276 H   0  0  0  0  0  0  0  0  0  0  0  0
   22.2339   15.6160    5.8126 H   0  0  0  0  0  0  0  0  0  0  0  0
  1  2  1  0
  2  3  1  0
  3  4  2  0
  4  5  1  0
  5  6  1  0
  6  7  2  0
  6  8  2  0
  6  9  1  0
  9 10  2  0
 10 11  1  0
 11 12  2  0
 12 13  1  0
 13 14  1  0
 14 15  1  0
 15 16  1  0
 16 17  1  0
 17 18  1  0
 18 19  1  0
 13 20  2  0
 12 21  1  0
 21 22  1  0
 22 23  1  0
 23 24  1  0
 24 25  1  0
 25 26  1  0
 26 27  2  0
 26 28  1  0
 28 29  1  0
 29 30  2  0
 22 31  1  0
 31 32  2  0
  5 33  1  0
 33 34  2  0
 34  3  1  0
 20  9  1  0
 29 23  1  0
 31 11  1  0
 19 14  1  0
  1 35  1  0
  1 36  1  0
  1 37  1  0
  2 38  1  0
  2 39  1  0
  4 40  1  0
 10 41  1  0
 15 42  1  0
 15 43  1  0
 16 44  1  0
 16 45  1  0
 17 46  1  0
 17 47  1  0
 18 48  1  0
 18 49  1  0
 19 50  1  0
 19 51  1  0
 20 52  1  0
 21 53  1  0
 21 54  1  0
 23 55  1  1
 24 56  1  0
 24 57  1  0
 25 58  1  0
 25 59  1  0
 28 60  1  0
 33 61  1  0
M  END
>  <meeko>  (52) 
{"is_sidechain": [true], "free_energy": -11.46, "intermolecular_energy": 0.0, "internal_energy": -11.46, "cluster_size": 9, "cluster_id": 1, "rank_in_cluster": 1}

>  <_RMSD_MCS_to_ref>  (52) 
1.9369916537421283

$$$$
ligand
     RDKit          3D

 51 55  0  0  0  0  0  0  0  0999 V2000
   18.9090   19.1540    7.5370 C   0  0  0  0  0  0  0  0  0  0  0  0
   18.7730   17.6460    7.6780 C   0  0  0  0  0  0  0  0  0  0  0  0
   20.0180   16.9310    7.2870 C   0  0  0  0  0  0  0  0  0  0  0  0
   20.4180   15.6460    7.6010 C   0  0  0  0  0  0  0  0  0  0  0  0
   21.6380   15.5200    7.0030 N   0  0  0  0  0  0  0  0  0  0  0  0
   22.5530   14.1210    6.9100 S   0  0  0  0  0  6  0  0  0  0  0  0
   22.3240   13.4000    8.1470 O   0  0  0  0  0  0  0  0  0  0  0  0
   22.2950   13.5450    5.6040 O   0  0  0  0  0  0  0  0  0  0  0  0
   24.2300   14.5120    6.9120 C   0  0  0  0  0  0  0  0  0  0  0  0
   25.0300   14.2540    5.8670 N   0  0  0  0  0  0  0  0  0  0  0  0
   26.2760   14.7330    6.2330 O   0  0  0  0  0  0  0  0  0  0  0  0
   26.2090   15.2670    7.4790 C   0  0  0  0  0  0  0  0  0  0  0  0
   24.9300   15.1510    7.9670 C   0  0  0  0  0  0  0  0  0  0  0  0
   24.5140   15.6220    9.2690 C   0  0  0  0  0  0  0  0  0  0  0  0
   23.2420   15.2620    9.7790 C   0  0  0  0  0  0  0  0  0  0  0  0
   22.8100   15.7130   11.0330 C   0  0  0  0  0  0  0  0  0  0  0  0
   23.6730   16.5200   11.7470 C   0  0  0  0  0  0  0  0  0  0  0  0
   24.9160   16.8690   11.2560 C   0  0  0  0  0  0  0  0  0  0  0  0
   25.3710   16.4370   10.0230 C   0  0  0  0  0  0  0  0  0  0  0  0
   25.5640   17.7080   12.2600 C   0  0  0  0  0  0  0  0  0  0  0  0
   26.6890   18.1550   12.1510 O   0  0  0  0  0  0  0  0  0  0  0  0
   24.6690   17.8590   13.2850 N   0  0  0  0  0  0  0  0  0  0  0  0
   25.0180   18.5060   14.5410 C   0  0  1  0  0  0  0  0  0  0  0  0
   26.1030   17.7890   15.3380 C   0  0  0  0  0  0  0  0  0  0  0  0
   26.3490   18.5430   16.6370 C   0  0  0  0  0  0  0  0  0  0  0  0
   26.7130   19.9860   16.3740 C   0  0  0  0  0  0  0  0  0  0  0  0
   27.4140   20.6360   17.1450 O   0  0  0  0  0  0  0  0  0  0  0  0
   26.1740   20.5630   15.2520 N   0  0  0  0  0  0  0  0  0  0  0  0
   25.4370   19.9530   14.2600 C   0  0  0  0  0  0  0  0  0  0  0  0
   25.1070   20.5790   13.2540 O   0  0  0  0  0  0  0  0  0  0  0  0
   23.5310   17.1320   13.0660 C   0  0  0  0  0  0  0  0  0  0  0  0
   22.5740   16.9630   13.7950 O   0  0  0  0  0  0  0  0  0  0  0  0
   21.9180   16.6580    6.3180 C   0  0  0  0  0  0  0  0  0  0  0  0
   20.9620   17.5470    6.4890 N   0  0  0  0  0  0  0  0  0  0  0  0
   18.9504   19.6134    8.5356 H   0  0  0  0  0  0  0  0  0  0  0  0
   19.8320   19.3891    6.9867 H   0  0  0  0  0  0  0  0  0  0  0  0
   18.0430   19.5504    6.9867 H   0  0  0  0  0  0  0  0  0  0  0  0
   18.5419   17.4076    8.7267 H   0  0  0  0  0  0  0  0  0  0  0  0
   17.9678   17.3149    7.0057 H   0  0  0  0  0  0  0  0  0  0  0  0
   19.8767   14.8963    8.1967 H   0  0  0  0  0  0  0  0  0  0  0  0
   27.0523   15.7241    8.0174 H   0  0  0  0  0  0  0  0  0  0  0  0
   22.5823   14.6172    9.1799 H   0  0  0  0  0  0  0  0  0  0  0  0
   21.8234   15.4354   11.4324 H   0  0  0  0  0  0  0  0  0  0  0  0
   26.3655   16.7214    9.6488 H   0  0  0  0  0  0  0  0  0  0  0  0
   24.1187   18.4703   15.1734 H   0  0  0  0  0  0  0  0  0  0  0  0
   25.7766   16.7631   15.5640 H   0  0  0  0  0  0  0  0  0  0  0  0
   27.0316   17.7529   14.7495 H   0  0  0  0  0  0  0  0  0  0  0  0
   25.4356   18.5097   17.2491 H   0  0  0  0  0  0  0  0  0  0  0  0
   27.1878   18.0637   17.1631 H   0  0  0  0  0  0  0  0  0  0  0  0
   26.3401   21.5730   15.1373 H   0  0  0  0  0  0  0  0  0  0  0  0
   22.8180   16.8155    5.7055 H   0  0  0  0  0  0  0  0  0  0  0  0
  1  2  1  0
  2  3  1  0
  3  4  2  0
  4  5  1  0
  5  6  1  0
  6  7  2  0
  6  8  2  0
  6  9  1  0
  9 10  2  0
 10 11  1  0
 11 12  1  0
 12 13  2  0
 13 14  1  0
 14 15  2  0
 15 16  1  0
 16 17  2  0
 17 18  1  0
 18 19  2  0
 18 20  1  0
 20 21  2  0
 20 22  1  0
 22 23  1  0
 23 24  1  0
 24 25  1  0
 25 26  1  0
 26 27  2  0
 26 28  1  0
 28 29  1  0
 29 30  2  0
 22 31  1  0
 31 32  2  0
  5 33  1  0
 33 34  2  0
 34  3  1  0
 13  9  1  0
 19 14  1  0
 29 23  1  0
 31 17  1  0
  1 35  1  0
  1 36  1  0
  1 37  1  0
  2 38  1  0
  2 39  1  0
  4 40  1  0
 12 41  1  0
 15 42  1  0
 16 43  1  0
 19 44  1  0
 23 45  1  1
 24 46  1  0
 24 47  1  0
 25 48  1  0
 25 49  1  0
 28 50  1  0
 33 51  1  0
M  END
>  <meeko>  (53) 
{"is_sidechain": [true], "free_energy": -11.46, "intermolecular_energy": 0.0, "internal_energy": -11.46, "cluster_size": 20, "cluster_id": 1, "rank_in_cluster": 1}

>  <_RMSD_MCS_to_ref>  (53) 
0.47250090503951264

$$$$
ligand
     RDKit          3D

 47 50  0  0  0  0  0  0  0  0999 V2000
   18.9090   19.1540    7.5370 C   0  0  0  0  0  0  0  0  0  0  0  0
   18.7730   17.6460    7.6780 C   0  0  0  0  0  0  0  0  0  0  0  0
   19.9600   16.9220    7.1470 C   0  0  0  0  0  0  0  0  0  0  0  0
   21.1430   16.6080    7.7840 C   0  0  0  0  0  0  0  0  0  0  0  0
   21.8560   15.9140    6.8470 N   0  0  0  0  0  0  0  0  0  0  0  0
   23.4810   15.4820    6.9670 S   0  0  0  0  0  6  0  0  0  0  0  0
   23.6670   14.4770    5.9360 O   0  0  0  0  0  0  0  0  0  0  0  0
   24.1970   16.7430    6.9440 O   0  0  0  0  0  0  0  0  0  0  0  0
   23.6470   14.7890    8.4330 O   0  0  0  0  0  0  0  0  0  0  0  0
   24.0400   15.4910    9.5430 C   0  0  0  0  0  0  0  0  0  0  0  0
   25.3560   15.9660    9.5040 C   0  0  0  0  0  0  0  0  0  0  0  0
   25.8750   16.6980   10.5720 C   0  0  0  0  0  0  0  0  0  0  0  0
   25.0680   16.9560   11.6830 C   0  0  0  0  0  0  0  0  0  0  0  0
   25.5760   17.7230   12.8350 C   0  0  0  0  0  0  0  0  0  0  0  0
   26.7040   18.2060   12.7940 O   0  0  0  0  0  0  0  0  0  0  0  0
   24.7080   17.8650   13.9100 N   0  0  0  0  0  0  0  0  0  0  0  0
   25.1270   18.6380   15.0830 C   0  0  1  0  0  0  0  0  0  0  0  0
   26.2020   17.9630   15.9380 C   0  0  0  0  0  0  0  0  0  0  0  0
   26.5340   18.8540   17.1260 C   0  0  0  0  0  0  0  0  0  0  0  0
   26.9660   20.2310   16.6780 C   0  0  0  0  0  0  0  0  0  0  0  0
   27.6720   20.9530   17.3750 O   0  0  0  0  0  0  0  0  0  0  0  0
   26.4590   20.6780   15.4830 N   0  0  0  0  0  0  0  0  0  0  0  0
   25.5510   20.0490   14.6620 C   0  0  0  0  0  0  0  0  0  0  0  0
   25.0490   20.6490   13.7130 O   0  0  0  0  0  0  0  0  0  0  0  0
   23.4110   17.4160   13.8200 C   0  0  0  0  0  0  0  0  0  0  0  0
   22.9160   16.7580   12.8280 N   0  0  0  0  0  0  0  0  0  0  0  0
   23.7520   16.4970   11.7350 C   0  0  0  0  0  0  0  0  0  0  0  0
   23.2420   15.7630   10.6570 C   0  0  0  0  0  0  0  0  0  0  0  0
   21.1570   15.8970    5.6830 C   0  0  0  0  0  0  0  0  0  0  0  0
   19.9870   16.4810    5.8380 N   0  0  0  0  0  0  0  0  0  0  0  0
   18.9504   19.6134    8.5356 H   0  0  0  0  0  0  0  0  0  0  0  0
   19.8320   19.3891    6.9867 H   0  0  0  0  0  0  0  0  0  0  0  0
   18.0430   19.5504    6.9867 H   0  0  0  0  0  0  0  0  0  0  0  0
   18.6549   17.3991    8.7434 H   0  0  0  0  0  0  0  0  0  0  0  0
   17.8959   17.3301    7.0941 H   0  0  0  0  0  0  0  0  0  0  0  0
   21.4438   16.8591    8.8119 H   0  0  0  0  0  0  0  0  0  0  0  0
   25.9851   15.7607    8.6253 H   0  0  0  0  0  0  0  0  0  0  0  0
   26.9101   17.0687   10.5398 H   0  0  0  0  0  0  0  0  0  0  0  0
   24.2461   18.6984   15.7390 H   0  0  0  0  0  0  0  0  0  0  0  0
   25.8288   16.9933   16.2991 H   0  0  0  0  0  0  0  0  0  0  0  0
   27.1069   17.8036   15.3332 H   0  0  0  0  0  0  0  0  0  0  0  0
   25.6423   18.9482   17.7631 H   0  0  0  0  0  0  0  0  0  0  0  0
   27.3642   18.3944   17.6824 H   0  0  0  0  0  0  0  0  0  0  0  0
   26.7995   21.5955   15.1619 H   0  0  0  0  0  0  0  0  0  0  0  0
   22.7409   17.6365   14.6640 H   0  0  0  0  0  0  0  0  0  0  0  0
   22.2049   15.3977   10.6876 H   0  0  0  0  0  0  0  0  0  0  0  0
   21.5178   15.4567    4.7417 H   0  0  0  0  0  0  0  0  0  0  0  0
  1  2  1  0
  2  3  1  0
  3  4  2  0
  4  5  1  0
  5  6  1  0
  6  7  2  0
  6  8  2  0
  6  9  1  0
  9 10  1  0
 10 11  2  0
 11 12  1  0
 12 13  2  0
 13 14  1  0
 14 15  2  0
 14 16  1  0
 16 17  1  0
 17 18  1  0
 18 19  1  0
 19 20  1  0
 20 21  2  0
 20 22  1  0
 22 23  1  0
 23 24  2  0
 16 25  1  0
 25 26  2  0
 26 27  1  0
 27 28  2  0
  5 29  1  0
 29 30  2  0
 30  3  1  0
 28 10  1  0
 27 13  1  0
 23 17  1  0
  1 31  1  0
  1 32  1  0
  1 33  1  0
  2 34  1  0
  2 35  1  0
  4 36  1  0
 11 37  1  0
 12 38  1  0
 17 39  1  1
 18 40  1  0
 18 41  1  0
 19 42  1  0
 19 43  1  0
 22 44  1  0
 25 45  1  0
 28 46  1  0
 29 47  1  0
M  END
>  <meeko>  (54) 
{"is_sidechain": [true], "free_energy": -11.46, "intermolecular_energy": 0.0, "internal_energy": -11.46, "cluster_size": 20, "cluster_id": 1, "rank_in_cluster": 1}

>  <_RMSD_MCS_to_ref>  (54) 
0.5328884602908112

$$$$
ligand
     RDKit          3D

 50 53  0  0  0  0  0  0  0  0999 V2000
   18.9090   19.1540    7.5370 C   0  0  0  0  0  0  0  0  0  0  0  0
   18.7730   17.6460    7.6780 C   0  0  0  0  0  0  0  0  0  0  0  0
   20.0900   16.9510    7.6830 C   0  0  0  0  0  0  0  0  0  0  0  0
   20.8230   16.4900    8.7580 C   0  0  0  0  0  0  0  0  0  0  0  0
   21.9350   15.9270    8.1990 N   0  0  0  0  0  0  0  0  0  0  0  0
   23.3510   15.5130    9.0230 S   0  0  0  0  0  6  0  0  0  0  0  0
   24.2580   16.6190    8.7710 O   0  0  0  0  0  0  0  0  0  0  0  0
   23.6340   14.1510    8.6020 O   0  0  0  0  0  0  0  0  0  0  0  0
   22.8300   15.5300   10.7270 C   0  0  0  0  0  0  0  0  0  0  0  0
   22.0400   14.5160   11.1300 N   0  0  0  0  0  0  0  0  0  0  0  0
   21.7490   14.5600   12.4360 C   0  0  0  0  0  0  0  0  0  0  0  0
   22.2100   15.5190   13.3200 C   0  0  0  0  0  0  0  0  0  0  0  0
   23.0230   16.4890   12.7950 C   0  0  0  0  0  0  0  0  0  0  0  0
   23.6960   17.5340   13.6330 C   0  0  0  0  0  0  0  0  0  0  0  0
   23.1690   18.0100   14.6290 O   0  0  0  0  0  0  0  0  0  0  0  0
   24.9710   17.8660   13.1990 N   0  0  0  0  0  0  0  0  0  0  0  0
   25.9550   18.3750   14.1380 C   0  0  2  0  0  0  0  0  0  0  0  0
   25.6810   17.8600   15.5450 C   0  0  0  0  0  0  0  0  0  0  0  0
   26.7110   18.4360   16.5040 C   0  0  0  0  0  0  0  0  0  0  0  0
   26.7270   19.9460   16.4520 C   0  0  0  0  0  0  0  0  0  0  0  0
   26.9880   20.6330   17.4350 O   0  0  0  0  0  0  0  0  0  0  0  0
   26.4720   20.5230   15.2340 N   0  0  0  0  0  0  0  0  0  0  0  0
   25.8880   19.9120   14.1490 C   0  0  0  0  0  0  0  0  0  0  0  0
   25.3670   20.5810   13.2570 O   0  0  0  0  0  0  0  0  0  0  0  0
   23.3330   16.5320   11.4770 N   0  0  0  0  0  0  0  0  0  0  0  0
   21.7610   15.2400   14.7110 C   0  0  0  0  0  0  0  0  0  0  0  0
   20.6090   14.2540   14.4590 C   0  0  0  0  0  0  0  0  0  0  0  0
   20.9390   13.5160   13.1550 C   0  0  0  0  0  0  0  0  0  0  0  0
   21.8610   16.0590    6.8440 C   0  0  0  0  0  0  0  0  0  0  0  0
   20.7610   16.7000    6.5010 N   0  0  0  0  0  0  0  0  0  0  0  0
   18.9504   19.6134    8.5356 H   0  0  0  0  0  0  0  0  0  0  0  0
   19.8320   19.3891    6.9867 H   0  0  0  0  0  0  0  0  0  0  0  0
   18.0430   19.5504    6.9867 H   0  0  0  0  0  0  0  0  0  0  0  0
   18.2546   17.4257    8.6229 H   0  0  0  0  0  0  0  0  0  0  0  0
   18.2059   17.2796    6.8096 H   0  0  0  0  0  0  0  0  0  0  0  0
   20.5686   16.5603    9.8259 H   0  0  0  0  0  0  0  0  0  0  0  0
   25.2209   17.7510   12.2064 H   0  0  0  0  0  0  0  0  0  0  0  0
   26.9516   18.0316   13.8235 H   0  0  0  0  0  0  0  0  0  0  0  0
   24.6734   18.1699   15.8593 H   0  0  0  0  0  0  0  0  0  0  0  0
   25.7456   16.7619   15.5531 H   0  0  0  0  0  0  0  0  0  0  0  0
   26.4661   18.1155   17.5274 H   0  0  0  0  0  0  0  0  0  0  0  0
   27.7045   18.0683   16.2077 H   0  0  0  0  0  0  0  0  0  0  0  0
   26.7444   21.5099   15.1209 H   0  0  0  0  0  0  0  0  0  0  0  0
   22.5618   14.7804   15.3088 H   0  0  0  0  0  0  0  0  0  0  0  0
   21.4731   16.1355   15.2813 H   0  0  0  0  0  0  0  0  0  0  0  0
   20.5333   13.5385   15.2910 H   0  0  0  0  0  0  0  0  0  0  0  0
   19.6463   14.7807   14.3833 H   0  0  0  0  0  0  0  0  0  0  0  0
   21.5275   12.6059   13.3430 H   0  0  0  0  0  0  0  0  0  0  0  0
   20.0594   13.1598   12.5987 H   0  0  0  0  0  0  0  0  0  0  0  0
   22.6140   15.6831    6.1357 H   0  0  0  0  0  0  0  0  0  0  0  0
  1  2  1  0
  2  3  1  0
  3  4  2  0
  4  5  1  0
  5  6  1  0
  6  7  2  0
  6  8  2  0
  6  9  1  0
  9 10  2  0
 10 11  1  0
 11 12  2  0
 12 13  1  0
 13 14  1  0
 14 15  2  0
 14 16  1  0
 16 17  1  0
 17 18  1  0
 18 19  1  0
 19 20  1  0
 20 21  2  0
 20 22  1  0
 22 23  1  0
 23 24  2  0
 13 25  2  0
 12 26  1  0
 26 27  1  0
 27 28  1  0
  5 29  1  0
 29 30  2  0
 30  3  1  0
 25  9  1  0
 28 11  1  0
 23 17  1  0
  1 31  1  0
  1 32  1  0
  1 33  1  0
  2 34  1  0
  2 35  1  0
  4 36  1  0
 16 37  1  0
 17 38  1  6
 18 39  1  0
 18 40  1  0
 19 41  1  0
 19 42  1  0
 22 43  1  0
 26 44  1  0
 26 45  1  0
 27 46  1  0
 27 47  1  0
 28 48  1  0
 28 49  1  0
 29 50  1  0
M  END
>  <meeko>  (55) 
{"is_sidechain": [true], "free_energy": -11.46, "intermolecular_energy": 0.0, "internal_energy": -11.46, "cluster_size": 19, "cluster_id": 1, "rank_in_cluster": 1}

>  <_RMSD_MCS_to_ref>  (55) 
0.6844709230087457

$$$$
ligand
     RDKit          3D

 52 55  0  0  0  0  0  0  0  0999 V2000
   18.9090   19.1540    7.5370 C   0  0  0  0  0  0  0  0  0  0  0  0
   18.7730   17.6460    7.6780 C   0  0  0  0  0  0  0  0  0  0  0  0
   20.0880   16.9540    7.6020 C   0  0  0  0  0  0  0  0  0  0  0  0
   21.0180   16.7430    8.6000 C   0  0  0  0  0  0  0  0  0  0  0  0
   22.0350   16.0770    7.9760 N   0  0  0  0  0  0  0  0  0  0  0  0
   23.3550   15.3780    8.7410 S   0  0  0  0  0  6  0  0  0  0  0  0
   24.4840   16.2220    8.4000 O   0  0  0  0  0  0  0  0  0  0  0  0
   23.3130   13.9640    8.4270 O   0  0  0  0  0  0  0  0  0  0  0  0
   23.1670   15.5050   10.5070 C   0  0  0  0  0  0  0  0  0  0  0  0
   24.3330   16.4550   11.3100 S   0  0  0  0  0  0  0  0  0  0  0  0
   23.6430   16.1740   12.8550 C   0  0  0  0  0  0  0  0  0  0  0  0
   24.2170   16.7700   14.0620 C   0  0  0  0  0  0  0  0  0  0  0  0
   24.3350   16.1660   15.1260 O   0  0  0  0  0  0  0  0  0  0  0  0
   24.6240   18.0820   13.9550 N   0  0  0  0  0  0  0  0  0  0  0  0
   25.0590   18.8540   15.1080 C   0  0  1  0  0  0  0  0  0  0  0  0
   26.1120   18.1180   15.9300 C   0  0  0  0  0  0  0  0  0  0  0  0
   26.5490   18.9940   17.0940 C   0  0  0  0  0  0  0  0  0  0  0  0
   27.0460   20.3380   16.6140 C   0  0  0  0  0  0  0  0  0  0  0  0
   27.9480   20.9470   17.1820 O   0  0  0  0  0  0  0  0  0  0  0  0
   26.4170   20.8700   15.5170 N   0  0  0  0  0  0  0  0  0  0  0  0
   25.6480   20.1780   14.6140 C   0  0  0  0  0  0  0  0  0  0  0  0
   25.4430   20.6180   13.4830 O   0  0  0  0  0  0  0  0  0  0  0  0
   22.5270   15.3530   12.7560 C   0  0  0  0  0  0  0  0  0  0  0  0
   22.2330   14.9930   11.3910 C   0  0  0  0  0  0  0  0  0  0  0  0
   21.0550   14.1330   11.0240 C   0  0  0  0  0  0  0  0  0  0  0  0
   20.0280   14.0450   12.1570 C   0  0  0  0  0  0  0  0  0  0  0  0
   20.7050   13.7660   13.5000 C   0  0  0  0  0  0  0  0  0  0  0  0
   21.6560   14.9010   13.9010 C   0  0  0  0  0  0  0  0  0  0  0  0
   21.6970   15.8640    6.6790 C   0  0  0  0  0  0  0  0  0  0  0  0
   20.5210   16.3960    6.4150 N   0  0  0  0  0  0  0  0  0  0  0  0
   18.9504   19.6134    8.5356 H   0  0  0  0  0  0  0  0  0  0  0  0
   19.8320   19.3891    6.9867 H   0  0  0  0  0  0  0  0  0  0  0  0
   18.0430   19.5504    6.9867 H   0  0  0  0  0  0  0  0  0  0  0  0
   18.3100   17.4213    8.6502 H   0  0  0  0  0  0  0  0  0  0  0  0
   18.1518   17.2835    6.8457 H   0  0  0  0  0  0  0  0  0  0  0  0
   20.9548   17.0426    9.6565 H   0  0  0  0  0  0  0  0  0  0  0  0
   24.6200   18.5307   13.0279 H   0  0  0  0  0  0  0  0  0  0  0  0
   24.1863   19.0212   15.7565 H   0  0  0  0  0  0  0  0  0  0  0  0
   25.6862   17.1802   16.3163 H   0  0  0  0  0  0  0  0  0  0  0  0
   26.9810   17.8914   15.2948 H   0  0  0  0  0  0  0  0  0  0  0  0
   25.6930   19.1482   17.7674 H   0  0  0  0  0  0  0  0  0  0  0  0
   27.3717   18.4874   17.6198 H   0  0  0  0  0  0  0  0  0  0  0  0
   26.5321   21.8808   15.3560 H   0  0  0  0  0  0  0  0  0  0  0  0
   20.5670   14.5609   10.1359 H   0  0  0  0  0  0  0  0  0  0  0  0
   21.4272   13.1170   10.8257 H   0  0  0  0  0  0  0  0  0  0  0  0
   19.4831   14.9983   12.2216 H   0  0  0  0  0  0  0  0  0  0  0  0
   19.3383   13.2168   11.9370 H   0  0  0  0  0  0  0  0  0  0  0  0
   19.9310   13.6588   14.2742 H   0  0  0  0  0  0  0  0  0  0  0  0
   21.2944   12.8424   13.4023 H   0  0  0  0  0  0  0  0  0  0  0  0
   21.0582   15.7563   14.2491 H   0  0  0  0  0  0  0  0  0  0  0  0
   22.3160   14.5208   14.6946 H   0  0  0  0  0  0  0  0  0  0  0  0
   22.3181   15.3228    5.9501 H   0  0  0  0  0  0  0  0  0  0  0  0
  1  2  1  0
  2  3  1  0
  3  4  2  0
  4  5  1  0
  5  6  1  0
  6  7  2  0
  6  8  2  0
  6  9  1  0
  9 10  1  0
 10 11  1  0
 11 12  1  0
 12 13  2  0
 12 14  1  0
 14 15  1  0
 15 16  1  0
 16 17  1  0
 17 18  1  0
 18 19  2  0
 18 20  1  0
 20 21  1  0
 21 22  2  0
 11 23  2  0
 23 24  1  0
 24 25  1  0
 25 26  1  0
 26 27  1  0
 27 28  1  0
  5 29  1  0
 29 30  2  0
 30  3  1  0
 24  9  2  0
 21 15  1  0
 28 23  1  0
  1 31  1  0
  1 32  1  0
  1 33  1  0
  2 34  1  0
  2 35  1  0
  4 36  1  0
 14 37  1  0
 15 38  1  1
 16 39  1  0
 16 40  1  0
 17 41  1  0
 17 42  1  0
 20 43  1  0
 25 44  1  0
 25 45  1  0
 26 46  1  0
 26 47  1  0
 27 48  1  0
 27 49  1  0
 28 50  1  0
 28 51  1  0
 29 52  1  0
M  END
>  <meeko>  (56) 
{"is_sidechain": [true], "free_energy": -11.46, "intermolecular_energy": 0.0, "internal_energy": -11.46, "cluster_size": 16, "cluster_id": 1, "rank_in_cluster": 1}

>  <_RMSD_MCS_to_ref>  (56) 
0.6715179322500135

$$$$
ligand
     RDKit          3D

 59 63  0  0  0  0  0  0  0  0999 V2000
   18.8250   19.0170    7.5350 C   0  0  0  0  0  0  0  0  0  0  0  0
   18.5200   17.5420    7.7330 C   0  0  0  0  0  0  0  0  0  0  0  0
   19.7570   16.7250    7.8670 C   0  0  0  0  0  0  0  0  0  0  0  0
   20.0940   15.8090    8.8450 C   0  0  0  0  0  0  0  0  0  0  0  0
   21.3410   15.3850    8.4910 N   0  0  0  0  0  0  0  0  0  0  0  0
   22.1830   14.1130    9.1940 S   0  0  0  0  0  6  0  0  0  0  0  0
   21.2190   13.0470    9.3740 O   0  0  0  0  0  0  0  0  0  0  0  0
   23.3870   13.9460    8.4010 O   0  0  0  0  0  0  0  0  0  0  0  0
   22.6420   14.7440   10.7850 C   0  0  0  0  0  0  0  0  0  0  0  0
   21.9210   14.3270   11.9240 C   0  0  0  0  0  0  0  0  0  0  0  0
   22.2540   14.8160   13.1960 C   0  0  0  0  0  0  0  0  0  0  0  0
   21.5050   14.3820   14.3710 C   0  0  0  0  0  0  0  0  0  0  0  0
   20.1680   14.2730   14.3870 C   0  0  0  0  0  0  0  0  0  0  0  0
   19.3780   13.8350   15.5870 C   0  0  0  0  0  0  0  0  0  0  0  0
   18.0180   13.5240   14.9820 C   0  0  0  0  0  0  0  0  0  0  0  0
   17.8840   14.4880   13.8860 N   0  0  0  0  0  0  0  0  0  0  0  0
   19.2100   14.5440   13.2630 C   0  0  0  0  0  0  0  0  0  0  0  0
   23.2940   15.7290   13.2920 C   0  0  0  0  0  0  0  0  0  0  0  0
   23.9820   16.1340   12.1480 C   0  0  0  0  0  0  0  0  0  0  0  0
   23.6860   15.6680   10.8820 C   0  0  0  0  0  0  0  0  0  0  0  0
   25.0200   17.0880   12.5520 C   0  0  0  0  0  0  0  0  0  0  0  0
   25.8460   17.5590   11.7970 O   0  0  0  0  0  0  0  0  0  0  0  0
   24.8670   17.2960   13.9120 N   0  0  0  0  0  0  0  0  0  0  0  0
   25.8380   17.9910   14.7530 C   0  0  2  0  0  0  0  0  0  0  0  0
   25.5150   17.9320   16.2450 C   0  0  0  0  0  0  0  0  0  0  0  0
   26.6170   18.6300   17.0250 C   0  0  0  0  0  0  0  0  0  0  0  0
   26.8010   20.0560   16.5590 C   0  0  0  0  0  0  0  0  0  0  0  0
   27.2980   20.9210   17.2760 O   0  0  0  0  0  0  0  0  0  0  0  0
   26.4640   20.3280   15.2570 N   0  0  0  0  0  0  0  0  0  0  0  0
   26.0180   19.4470   14.2970 C   0  0  0  0  0  0  0  0  0  0  0  0
   25.8820   19.8150   13.1300 O   0  0  0  0  0  0  0  0  0  0  0  0
   23.8710   16.4050   14.4920 C   0  0  0  0  0  0  0  0  0  0  0  0
   21.7030   15.9840    7.3270 C   0  0  0  0  0  0  0  0  0  0  0  0
   20.7640   16.8160    6.9270 N   0  0  0  0  0  0  0  0  0  0  0  0
   18.9260   19.5054    8.5155 H   0  0  0  0  0  0  0  0  0  0  0  0
   19.7645   19.1250    6.9731 H   0  0  0  0  0  0  0  0  0  0  0  0
   18.0054   19.4887    6.9731 H   0  0  0  0  0  0  0  0  0  0  0  0
   17.9172   17.4243    8.6456 H   0  0  0  0  0  0  0  0  0  0  0  0
   17.9758   17.1876    6.8452 H   0  0  0  0  0  0  0  0  0  0  0  0
   19.4937   15.4938    9.7112 H   0  0  0  0  0  0  0  0  0  0  0  0
   21.0915   13.6130   11.8137 H   0  0  0  0  0  0  0  0  0  0  0  0
   22.0626   14.1327   15.2859 H   0  0  0  0  0  0  0  0  0  0  0  0
   19.8212   12.9419   16.0517 H   0  0  0  0  0  0  0  0  0  0  0  0
   19.3422   14.5863   16.3897 H   0  0  0  0  0  0  0  0  0  0  0  0
   17.9871   12.4927   14.6006 H   0  0  0  0  0  0  0  0  0  0  0  0
   17.2021   13.6033   15.7155 H   0  0  0  0  0  0  0  0  0  0  0  0
   17.1786   14.1680   13.2071 H   0  0  0  0  0  0  0  0  0  0  0  0
   19.3037   13.7776   12.4795 H   0  0  0  0  0  0  0  0  0  0  0  0
   19.4015   15.5113   12.7756 H   0  0  0  0  0  0  0  0  0  0  0  0
   24.2431   16.0066    9.9960 H   0  0  0  0  0  0  0  0  0  0  0  0
   26.7867   17.4496   14.6230 H   0  0  0  0  0  0  0  0  0  0  0  0
   24.5555   18.4358   16.4335 H   0  0  0  0  0  0  0  0  0  0  0  0
   25.4445   16.8822   16.5657 H   0  0  0  0  0  0  0  0  0  0  0  0
   26.3533   18.6332   18.0929 H   0  0  0  0  0  0  0  0  0  0  0  0
   27.5584   18.0860   16.8583 H   0  0  0  0  0  0  0  0  0  0  0  0
   26.5557   21.3105   14.9617 H   0  0  0  0  0  0  0  0  0  0  0  0
   24.3383   15.6765   15.1709 H   0  0  0  0  0  0  0  0  0  0  0  0
   23.1193   16.9290   15.1005 H   0  0  0  0  0  0  0  0  0  0  0  0
   22.6473   15.8001    6.7937 H   0  0  0  0  0  0  0  0  0  0  0  0
  1  2  1  0
  2  3  1  0
  3  4  2  0
  4  5  1  0
  5  6  1  0
  6  7  2  0
  6  8  2  0
  6  9  1  0
  9 10  2  0
 10 11  1  0
 11 12  1  0
 12 13  2  0
 13 14  1  0
 14 15  1  0
 15 16  1  0
 16 17  1  0
 11 18  2  0
 18 19  1  0
 19 20  2  0
 19 21  1  0
 21 22  2  0
 21 23  1  0
 23 24  1  0
 24 25  1  0
 25 26  1  0
 26 27  1  0
 27 28  2  0
 27 29  1  0
 29 30  1  0
 30 31  2  0
 23 32  1  0
  5 33  1  0
 33 34  2  0
 34  3  1  0
 20  9  1  0
 30 24  1  0
 17 13  1  0
 32 18  1  0
  1 35  1  0
  1 36  1  0
  1 37  1  0
  2 38  1  0
  2 39  1  0
  4 40  1  0
 10 41  1  0
 12 42  1  0
 14 43  1  0
 14 44  1  0
 15 45  1  0
 15 46  1  0
 16 47  1  0
 17 48  1  0
 17 49  1  0
 20 50  1  0
 24 51  1  1
 25 52  1  0
 25 53  1  0
 26 54  1  0
 26 55  1  0
 29 56  1  0
 32 57  1  0
 32 58  1  0
 33 59  1  0
M  END
>  <meeko>  (57) 
{"is_sidechain": [true], "free_energy": -11.45, "intermolecular_energy": 0.0, "internal_energy": -11.45, "cluster_size": 12, "cluster_id": 1, "rank_in_cluster": 1}

>  <_RMSD_MCS_to_ref>  (57) 
1.8709821841303926

$$$$
ligand
     RDKit          3D

 53 57  0  0  0  0  0  0  0  0999 V2000
   18.9090   19.1530    7.5370 C   0  0  0  0  0  0  0  0  0  0  0  0
   18.7730   17.6470    7.6780 C   0  0  0  0  0  0  0  0  0  0  0  0
   20.0780   16.9770    7.9350 C   0  0  0  0  0  0  0  0  0  0  0  0
   21.2280   16.9920    7.1680 C   0  0  0  0  0  0  0  0  0  0  0  0
   22.1200   16.2610    7.8950 N   0  0  0  0  0  0  0  0  0  0  0  0
   23.7100   15.9290    7.4970 S   0  0  0  0  0  6  0  0  0  0  0  0
   24.5050   16.8600    8.2740 O   0  0  0  0  0  0  0  0  0  0  0  0
   23.7870   15.8380    6.0530 O   0  0  0  0  0  0  0  0  0  0  0  0
   24.1670   14.3590    8.0710 C   0  0  0  0  0  0  0  0  0  0  0  0
   24.4610   13.2730    7.1860 C   0  0  0  0  0  0  0  0  0  0  0  0
   24.8120   12.1310    7.8680 C   0  0  0  0  0  0  0  0  0  0  0  0
   24.7800   12.3610    9.5590 S   0  0  0  0  0  0  0  0  0  0  0  0
   24.2850   14.0020    9.4010 C   0  0  0  0  0  0  0  0  0  0  0  0
   24.0480   14.7710   10.6230 C   0  0  0  0  0  0  0  0  0  0  0  0
   22.8990   14.5090   11.4040 C   0  0  0  0  0  0  0  0  0  0  0  0
   22.6420   15.2320   12.5720 C   0  0  0  0  0  0  0  0  0  0  0  0
   23.5550   16.2040   12.9290 C   0  0  0  0  0  0  0  0  0  0  0  0
   24.6980   16.4770   12.1790 C   0  0  0  0  0  0  0  0  0  0  0  0
   24.9570   15.7690   11.0170 C   0  0  0  0  0  0  0  0  0  0  0  0
   25.4890   17.5660   12.8280 C   0  0  0  0  0  0  0  0  0  0  0  0
   24.6640   17.9070   13.9810 N   0  0  0  0  0  0  0  0  0  0  0  0
   25.0860   18.8070   15.0510 C   0  0  1  0  0  0  0  0  0  0  0  0
   26.0350   18.0970   16.0170 C   0  0  0  0  0  0  0  0  0  0  0  0
   26.3600   19.0140   17.1850 C   0  0  0  0  0  0  0  0  0  0  0  0
   26.9400   20.3220   16.7060 C   0  0  0  0  0  0  0  0  0  0  0  0
   27.7650   20.9550   17.3580 O   0  0  0  0  0  0  0  0  0  0  0  0
   26.4700   20.7990   15.5080 N   0  0  0  0  0  0  0  0  0  0  0  0
   25.7280   20.1180   14.5700 C   0  0  0  0  0  0  0  0  0  0  0  0
   25.5850   20.5880   13.4440 O   0  0  0  0  0  0  0  0  0  0  0  0
   23.5500   17.0920   14.0950 C   0  0  0  0  0  0  0  0  0  0  0  0
   22.7240   17.0730   14.9860 O   0  0  0  0  0  0  0  0  0  0  0  0
   21.5290   15.8360    9.0400 C   0  0  0  0  0  0  0  0  0  0  0  0
   20.2750   16.2340    9.0830 N   0  0  0  0  0  0  0  0  0  0  0  0
   18.9505   19.6125    8.5356 H   0  0  0  0  0  0  0  0  0  0  0  0
   19.8320   19.3879    6.9867 H   0  0  0  0  0  0  0  0  0  0  0  0
   18.0430   19.5494    6.9867 H   0  0  0  0  0  0  0  0  0  0  0  0
   18.0947   17.4313    8.5167 H   0  0  0  0  0  0  0  0  0  0  0  0
   18.3790   17.2571    6.7279 H   0  0  0  0  0  0  0  0  0  0  0  0
   21.3867   17.4809    6.1955 H   0  0  0  0  0  0  0  0  0  0  0  0
   24.4120   13.3434    6.0893 H   0  0  0  0  0  0  0  0  0  0  0  0
   25.0814   11.1821    7.3812 H   0  0  0  0  0  0  0  0  0  0  0  0
   22.1965   13.7240   11.0874 H   0  0  0  0  0  0  0  0  0  0  0  0
   21.7483   15.0346   13.1822 H   0  0  0  0  0  0  0  0  0  0  0  0
   25.8533   15.9825   10.4161 H   0  0  0  0  0  0  0  0  0  0  0  0
   26.4803   17.2059   13.1404 H   0  0  0  0  0  0  0  0  0  0  0  0
   25.6902   18.4192   12.1635 H   0  0  0  0  0  0  0  0  0  0  0  0
   24.1554   19.0896   15.5649 H   0  0  0  0  0  0  0  0  0  0  0  0
   25.5554   17.1815   16.3937 H   0  0  0  0  0  0  0  0  0  0  0  0
   26.9644   17.8375   15.4889 H   0  0  0  0  0  0  0  0  0  0  0  0
   25.4382   19.2157   17.7503 H   0  0  0  0  0  0  0  0  0  0  0  0
   27.1045   18.5154   17.8230 H   0  0  0  0  0  0  0  0  0  0  0  0
   26.6987   21.7783   15.2855 H   0  0  0  0  0  0  0  0  0  0  0  0
   22.0270   15.2431    9.8213 H   0  0  0  0  0  0  0  0  0  0  0  0
  1  2  1  0
  2  3  1  0
  3  4  2  0
  4  5  1  0
  5  6  1  0
  6  7  2  0
  6  8  2  0
  6  9  1  0
  9 10  1  0
 10 11  2  0
 11 12  1  0
 12 13  1  0
 13 14  1  0
 14 15  2  0
 15 16  1  0
 16 17  2  0
 17 18  1  0
 18 19  2  0
 18 20  1  0
 20 21  1  0
 21 22  1  0
 22 23  1  0
 23 24  1  0
 24 25  1  0
 25 26  2  0
 25 27  1  0
 27 28  1  0
 28 29  2  0
 21 30  1  0
 30 31  2  0
  5 32  1  0
 32 33  2  0
 33  3  1  0
 13  9  2  0
 19 14  1  0
 28 22  1  0
 30 17  1  0
  1 34  1  0
  1 35  1  0
  1 36  1  0
  2 37  1  0
  2 38  1  0
  4 39  1  0
 10 40  1  0
 11 41  1  0
 15 42  1  0
 16 43  1  0
 19 44  1  0
 20 45  1  0
 20 46  1  0
 22 47  1  1
 23 48  1  0
 23 49  1  0
 24 50  1  0
 24 51  1  0
 27 52  1  0
 32 53  1  0
M  END
>  <meeko>  (58) 
{"is_sidechain": [true], "free_energy": -11.45, "intermolecular_energy": 0.0, "internal_energy": -11.45, "cluster_size": 20, "cluster_id": 1, "rank_in_cluster": 1}

>  <_RMSD_MCS_to_ref>  (58) 
0.9515059700869516

$$$$
ligand
     RDKit          3D

 50 53  0  0  0  0  0  0  0  0999 V2000
   18.9090   19.1540    7.5370 C   0  0  0  0  0  0  0  0  0  0  0  0
   18.7730   17.6460    7.6780 C   0  0  0  0  0  0  0  0  0  0  0  0
   20.0550   16.9390    7.4080 C   0  0  0  0  0  0  0  0  0  0  0  0
   20.8670   16.2470    8.2860 C   0  0  0  0  0  0  0  0  0  0  0  0
   21.9130   15.8280    7.5140 N   0  0  0  0  0  0  0  0  0  0  0  0
   23.1300   14.7750    7.9900 S   0  0  0  0  0  6  0  0  0  0  0  0
   24.0170   14.6770    6.8480 O   0  0  0  0  0  0  0  0  0  0  0  0
   22.4420   13.6260    8.5440 O   0  0  0  0  0  0  0  0  0  0  0  0
   24.0460   15.5390    9.3110 C   0  0  0  0  0  0  0  0  0  0  0  0
   25.2830   16.1410    9.0510 C   0  0  0  0  0  0  0  0  0  0  0  0
   25.9900   16.7310   10.0890 C   0  0  0  0  0  0  0  0  0  0  0  0
   25.4680   16.7260   11.3810 C   0  0  0  0  0  0  0  0  0  0  0  0
   24.2180   16.1350   11.6830 C   0  0  0  0  0  0  0  0  0  0  0  0
   23.6680   16.1140   12.9880 C   0  0  0  0  0  0  0  0  0  0  0  0
   24.3310   16.7370   14.1570 C   0  0  0  0  0  0  0  0  0  0  0  0
   24.6610   16.0690   15.1270 O   0  0  0  0  0  0  0  0  0  0  0  0
   24.5300   18.0970   14.0730 N   0  0  0  0  0  0  0  0  0  0  0  0
   25.0400   18.8550   15.2070 C   0  0  1  0  0  0  0  0  0  0  0  0
   26.1590   18.1190   15.9360 C   0  0  0  0  0  0  0  0  0  0  0  0
   26.6700   18.9770   17.0820 C   0  0  0  0  0  0  0  0  0  0  0  0
   27.1140   20.3370   16.5950 C   0  0  0  0  0  0  0  0  0  0  0  0
   28.0440   20.9500   17.1100 O   0  0  0  0  0  0  0  0  0  0  0  0
   26.4030   20.8800   15.5560 N   0  0  0  0  0  0  0  0  0  0  0  0
   25.5750   20.1980   14.7000 C   0  0  0  0  0  0  0  0  0  0  0  0
   25.2770   20.6570   13.5970 O   0  0  0  0  0  0  0  0  0  0  0  0
   22.4370   15.5100   13.1990 C   0  0  0  0  0  0  0  0  0  0  0  0
   21.7240   14.9130   12.2280 N   0  0  0  0  0  0  0  0  0  0  0  0
   22.2580   14.9340   10.9840 C   0  0  0  0  0  0  0  0  0  0  0  0
   23.4920   15.5230   10.6280 C   0  0  0  0  0  0  0  0  0  0  0  0
   21.7120   16.2300    6.2320 C   0  0  0  0  0  0  0  0  0  0  0  0
   20.5840   16.9020    6.1330 N   0  0  0  0  0  0  0  0  0  0  0  0
   18.9504   19.6134    8.5356 H   0  0  0  0  0  0  0  0  0  0  0  0
   19.8320   19.3891    6.9867 H   0  0  0  0  0  0  0  0  0  0  0  0
   18.0430   19.5504    6.9867 H   0  0  0  0  0  0  0  0  0  0  0  0
   18.4492   17.4137    8.7033 H   0  0  0  0  0  0  0  0  0  0  0  0
   18.0351   17.3024    6.9381 H   0  0  0  0  0  0  0  0  0  0  0  0
   20.7076   16.0733    9.3604 H   0  0  0  0  0  0  0  0  0  0  0  0
   25.6920   16.1462    8.0299 H   0  0  0  0  0  0  0  0  0  0  0  0
   26.9637   17.2032    9.8917 H   0  0  0  0  0  0  0  0  0  0  0  0
   26.0452   17.1958   12.1910 H   0  0  0  0  0  0  0  0  0  0  0  0
   24.3144   18.5866   13.1928 H   0  0  0  0  0  0  0  0  0  0  0  0
   24.2138   18.9976   15.9191 H   0  0  0  0  0  0  0  0  0  0  0  0
   25.7739   17.1684   16.3336 H   0  0  0  0  0  0  0  0  0  0  0  0
   26.9821   17.9177   15.2345 H   0  0  0  0  0  0  0  0  0  0  0  0
   25.8643   19.1062   17.8197 H   0  0  0  0  0  0  0  0  0  0  0  0
   27.5354   18.4712   17.5350 H   0  0  0  0  0  0  0  0  0  0  0  0
   26.4993   21.8941   15.4038 H   0  0  0  0  0  0  0  0  0  0  0  0
   22.0212   15.5201   14.2173 H   0  0  0  0  0  0  0  0  0  0  0  0
   21.6815   14.4509   10.1813 H   0  0  0  0  0  0  0  0  0  0  0  0
   22.3951   16.0233    5.3949 H   0  0  0  0  0  0  0  0  0  0  0  0
  1  2  1  0
  2  3  1  0
  3  4  2  0
  4  5  1  0
  5  6  1  0
  6  7  2  0
  6  8  2  0
  6  9  1  0
  9 10  2  0
 10 11  1  0
 11 12  2  0
 12 13  1  0
 13 14  2  0
 14 15  1  0
 15 16  2  0
 15 17  1  0
 17 18  1  0
 18 19  1  0
 19 20  1  0
 20 21  1  0
 21 22  2  0
 21 23  1  0
 23 24  1  0
 24 25  2  0
 14 26  1  0
 26 27  2  0
 27 28  1  0
 28 29  2  0
  5 30  1  0
 30 31  2  0
 31  3  1  0
 29  9  1  0
 29 13  1  0
 24 18  1  0
  1 32  1  0
  1 33  1  0
  1 34  1  0
  2 35  1  0
  2 36  1  0
  4 37  1  0
 10 38  1  0
 11 39  1  0
 12 40  1  0
 17 41  1  0
 18 42  1  1
 19 43  1  0
 19 44  1  0
 20 45  1  0
 20 46  1  0
 23 47  1  0
 26 48  1  0
 28 49  1  0
 30 50  1  0
M  END
>  <meeko>  (59) 
{"is_sidechain": [true], "free_energy": -11.45, "intermolecular_energy": 0.0, "internal_energy": -11.45, "cluster_size": 13, "cluster_id": 1, "rank_in_cluster": 1}

>  <_RMSD_MCS_to_ref>  (59) 
0.6977875353174811

$$$$
ligand
     RDKit          3D

 54 58  0  0  0  0  0  0  0  0999 V2000
   18.8250   19.0180    7.5350 C   0  0  0  0  0  0  0  0  0  0  0  0
   18.5200   17.5410    7.7330 C   0  0  0  0  0  0  0  0  0  0  0  0
   19.6990   16.6820    7.4390 C   0  0  0  0  0  0  0  0  0  0  0  0
   20.2040   15.6230    8.1680 C   0  0  0  0  0  0  0  0  0  0  0  0
   21.2490   15.1720    7.4170 N   0  0  0  0  0  0  0  0  0  0  0  0
   22.2860   13.9060    7.7990 S   0  0  0  0  0  6  0  0  0  0  0  0
   22.2390   12.9570    6.7020 O   0  0  0  0  0  0  0  0  0  0  0  0
   21.9000   13.5260    9.1450 O   0  0  0  0  0  0  0  0  0  0  0  0
   23.9080   14.6330    7.8570 C   0  0  0  0  0  0  0  0  0  0  0  0
   24.7090   14.4560    6.7080 C   0  0  0  0  0  0  0  0  0  0  0  0
   26.0120   14.9440    6.6650 C   0  0  0  0  0  0  0  0  0  0  0  0
   26.5290   15.6130    7.7650 C   0  0  0  0  0  0  0  0  0  0  0  0
   25.7330   15.8060    8.9020 C   0  0  0  0  0  0  0  0  0  0  0  0
   26.3190   16.5280   10.0810 C   0  0  0  0  0  0  0  0  0  0  0  0
   27.4750   16.9290   10.0020 O   0  0  0  0  0  0  0  0  0  0  0  0
   25.5680   16.7210   11.2190 N   0  0  0  0  0  0  0  0  0  0  0  0
   24.3520   16.2890   11.1980 C   0  0  0  0  0  0  0  0  0  0  0  0
   23.4030   16.4360   12.3380 C   0  0  0  0  0  0  0  0  0  0  0  0
   23.5710   17.0910   13.6370 C   0  0  0  0  0  0  0  0  0  0  0  0
   22.6430   17.1810   14.4350 O   0  0  0  0  0  0  0  0  0  0  0  0
   24.8310   17.5900   13.8650 N   0  0  0  0  0  0  0  0  0  0  0  0
   25.0640   18.5560   14.9260 C   0  0  1  0  0  0  0  0  0  0  0  0
   25.8600   17.9300   16.0630 C   0  0  0  0  0  0  0  0  0  0  0  0
   26.0910   18.9670   17.1510 C   0  0  0  0  0  0  0  0  0  0  0  0
   26.7670   20.2010   16.6010 C   0  0  0  0  0  0  0  0  0  0  0  0
   27.5580   20.8660   17.2640 O   0  0  0  0  0  0  0  0  0  0  0  0
   26.4330   20.5670   15.3230 N   0  0  0  0  0  0  0  0  0  0  0  0
   25.8430   19.7620   14.3750 C   0  0  0  0  0  0  0  0  0  0  0  0
   25.9470   20.0280   13.1790 O   0  0  0  0  0  0  0  0  0  0  0  0
   22.2860   15.8770   11.8380 C   0  0  0  0  0  0  0  0  0  0  0  0
   22.4410   15.3550   10.5570 N   0  0  0  0  0  0  0  0  0  0  0  0
   23.7090   15.6410   10.1510 N   0  0  0  0  0  0  0  0  0  0  0  0
   24.3990   15.3370    8.9690 C   0  0  0  0  0  0  0  0  0  0  0  0
   21.4220   15.9960    6.3530 C   0  0  0  0  0  0  0  0  0  0  0  0
   20.4670   16.9020    6.3120 N   0  0  0  0  0  0  0  0  0  0  0  0
   18.9258   19.5062    8.5155 H   0  0  0  0  0  0  0  0  0  0  0  0
   19.7645   19.1263    6.9731 H   0  0  0  0  0  0  0  0  0  0  0  0
   18.0053   19.4896    6.9731 H   0  0  0  0  0  0  0  0  0  0  0  0
   18.2144   17.3787    8.7772 H   0  0  0  0  0  0  0  0  0  0  0  0
   17.7165   17.2643    7.0346 H   0  0  0  0  0  0  0  0  0  0  0  0
   19.8457   15.2333    9.1322 H   0  0  0  0  0  0  0  0  0  0  0  0
   24.2984   13.9259    5.8360 H   0  0  0  0  0  0  0  0  0  0  0  0
   26.6276   14.8002    5.7648 H   0  0  0  0  0  0  0  0  0  0  0  0
   27.5617   15.9912    7.7447 H   0  0  0  0  0  0  0  0  0  0  0  0
   25.6177   17.2766   13.2786 H   0  0  0  0  0  0  0  0  0  0  0  0
   24.0867   18.8837   15.3099 H   0  0  0  0  0  0  0  0  0  0  0  0
   25.2987   17.0806   16.4793 H   0  0  0  0  0  0  0  0  0  0  0  0
   26.8293   17.5771   15.6811 H   0  0  0  0  0  0  0  0  0  0  0  0
   25.1214   19.2531   17.5845 H   0  0  0  0  0  0  0  0  0  0  0  0
   26.7457   18.5256   17.9169 H   0  0  0  0  0  0  0  0  0  0  0  0
   26.6435   21.5364   15.0457 H   0  0  0  0  0  0  0  0  0  0  0  0
   21.3362   15.8362   12.3914 H   0  0  0  0  0  0  0  0  0  0  0  0
   21.7277   14.8460   10.0157 H   0  0  0  0  0  0  0  0  0  0  0  0
   22.2444   15.9182    5.6266 H   0  0  0  0  0  0  0  0  0  0  0  0
  1  2  1  0
  2  3  1  0
  3  4  2  0
  4  5  1  0
  5  6  1  0
  6  7  2  0
  6  8  2  0
  6  9  1  0
  9 10  2  0
 10 11  1  0
 11 12  2  0
 12 13  1  0
 13 14  1  0
 14 15  2  0
 14 16  1  0
 16 17  2  0
 17 18  1  0
 18 19  1  0
 19 20  2  0
 19 21  1  0
 21 22  1  0
 22 23  1  0
 23 24  1  0
 24 25  1  0
 25 26  2  0
 25 27  1  0
 27 28  1  0
 28 29  2  0
 18 30  2  0
 30 31  1  0
 31 32  1  0
 32 33  1  0
  5 34  1  0
 34 35  2  0
 35  3  1  0
 33  9  1  0
 33 13  2  0
 32 17  1  0
 28 22  1  0
  1 36  1  0
  1 37  1  0
  1 38  1  0
  2 39  1  0
  2 40  1  0
  4 41  1  0
 10 42  1  0
 11 43  1  0
 12 44  1  0
 21 45  1  0
 22 46  1  1
 23 47  1  0
 23 48  1  0
 24 49  1  0
 24 50  1  0
 27 51  1  0
 30 52  1  0
 31 53  1  0
 34 54  1  0
M  END
>  <meeko>  (60) 
{"is_sidechain": [true], "free_energy": -11.44, "intermolecular_energy": 0.0, "internal_energy": -11.44, "cluster_size": 17, "cluster_id": 1, "rank_in_cluster": 1}

>  <_RMSD_MCS_to_ref>  (60) 
0.580873958407119

$$$$
ligand
     RDKit          3D

 46 49  0  0  0  0  0  0  0  0999 V2000
   18.9090   19.1540    7.5370 C   0  0  0  0  0  0  0  0  0  0  0  0
   18.7730   17.6460    7.6780 C   0  0  0  0  0  0  0  0  0  0  0  0
   20.0700   16.9440    7.4790 C   0  0  0  0  0  0  0  0  0  0  0  0
   21.1480   16.8510    8.3370 C   0  0  0  0  0  0  0  0  0  0  0  0
   22.0620   16.1060    7.6490 N   0  0  0  0  0  0  0  0  0  0  0  0
   23.4720   15.4480    8.2780 S   0  0  0  0  0  6  0  0  0  0  0  0
   23.4220   14.0360    7.9570 O   0  0  0  0  0  0  0  0  0  0  0  0
   24.5550   16.3110    7.8510 O   0  0  0  0  0  0  0  0  0  0  0  0
   23.2850   15.6340   10.0410 C   0  0  0  0  0  0  0  0  0  0  0  0
   24.3030   16.3240   10.7560 C   0  0  0  0  0  0  0  0  0  0  0  0
   24.2570   16.5230   12.1570 C   0  0  0  0  0  0  0  0  0  0  0  0
   25.3340   17.2630   12.8430 C   0  0  0  0  0  0  0  0  0  0  0  0
   26.3080   17.6360   12.1970 O   0  0  0  0  0  0  0  0  0  0  0  0
   25.1910   17.5100   14.1860 N   0  0  0  0  0  0  0  0  0  0  0  0
   26.1500   18.3200   14.9240 C   0  0  2  0  0  0  0  0  0  0  0  0
   26.0570   18.0820   16.4270 C   0  0  0  0  0  0  0  0  0  0  0  0
   27.0660   18.9650   17.1440 C   0  0  0  0  0  0  0  0  0  0  0  0
   26.8690   20.4200   16.7920 C   0  0  0  0  0  0  0  0  0  0  0  0
   27.0840   21.3260   17.5910 O   0  0  0  0  0  0  0  0  0  0  0  0
   26.4620   20.6930   15.5100 N   0  0  0  0  0  0  0  0  0  0  0  0
   25.8910   19.8020   14.6360 C   0  0  0  0  0  0  0  0  0  0  0  0
   25.2290   20.1930   13.6760 O   0  0  0  0  0  0  0  0  0  0  0  0
   23.1310   15.9690   12.7980 C   0  0  0  0  0  0  0  0  0  0  0  0
   22.7710   15.9640   14.0900 N   0  0  0  0  0  0  0  0  0  0  0  0
   21.5740   15.2770   14.1560 O   0  0  0  0  0  0  0  0  0  0  0  0
   21.1640   14.8400   12.9100 N   0  0  0  0  0  0  0  0  0  0  0  0
   22.1000   15.2500   12.0490 C   0  0  0  0  0  0  0  0  0  0  0  0
   22.1540   15.0630   10.6560 C   0  0  0  0  0  0  0  0  0  0  0  0
   21.5300   15.7430    6.4520 C   0  0  0  0  0  0  0  0  0  0  0  0
   20.3190   16.2410    6.3170 N   0  0  0  0  0  0  0  0  0  0  0  0
   18.9504   19.6134    8.5356 H   0  0  0  0  0  0  0  0  0  0  0  0
   19.8320   19.3891    6.9867 H   0  0  0  0  0  0  0  0  0  0  0  0
   18.0430   19.5504    6.9867 H   0  0  0  0  0  0  0  0  0  0  0  0
   18.3971   17.4169    8.6861 H   0  0  0  0  0  0  0  0  0  0  0  0
   18.0766   17.2955    6.9020 H   0  0  0  0  0  0  0  0  0  0  0  0
   21.2476   17.2796    9.3452 H   0  0  0  0  0  0  0  0  0  0  0  0
   25.1631   16.7201   10.1962 H   0  0  0  0  0  0  0  0  0  0  0  0
   24.3831   17.1114   14.6853 H   0  0  0  0  0  0  0  0  0  0  0  0
   27.1585   18.0305   14.5937 H   0  0  0  0  0  0  0  0  0  0  0  0
   25.0427   18.3273   16.7749 H   0  0  0  0  0  0  0  0  0  0  0  0
   26.2743   17.0259   16.6449 H   0  0  0  0  0  0  0  0  0  0  0  0
   26.9443   18.8393   18.2300 H   0  0  0  0  0  0  0  0  0  0  0  0
   28.0762   18.6650   16.8285 H   0  0  0  0  0  0  0  0  0  0  0  0
   26.5977   21.6565   15.1722 H   0  0  0  0  0  0  0  0  0  0  0  0
   21.3800   14.5181   10.0956 H   0  0  0  0  0  0  0  0  0  0  0  0
   22.0397   15.1207    5.7017 H   0  0  0  0  0  0  0  0  0  0  0  0
  1  2  1  0
  2  3  1  0
  3  4  2  0
  4  5  1  0
  5  6  1  0
  6  7  2  0
  6  8  2  0
  6  9  1  0
  9 10  1  0
 10 11  2  0
 11 12  1  0
 12 13  2  0
 12 14  1  0
 14 15  1  0
 15 16  1  0
 16 17  1  0
 17 18  1  0
 18 19  2  0
 18 20  1  0
 20 21  1  0
 21 22  2  0
 11 23  1  0
 23 24  2  0
 24 25  1  0
 25 26  1  0
 26 27  2  0
 27 28  1  0
  5 29  1  0
 29 30  2  0
 30  3  1  0
 28  9  2  0
 21 15  1  0
 27 23  1  0
  1 31  1  0
  1 32  1  0
  1 33  1  0
  2 34  1  0
  2 35  1  0
  4 36  1  0
 10 37  1  0
 14 38  1  0
 15 39  1  6
 16 40  1  0
 16 41  1  0
 17 42  1  0
 17 43  1  0
 20 44  1  0
 28 45  1  0
 29 46  1  0
M  END
>  <meeko>  (61) 
{"is_sidechain": [true], "free_energy": -11.44, "intermolecular_energy": 0.0, "internal_energy": -11.44, "cluster_size": 20, "cluster_id": 1, "rank_in_cluster": 1}

>  <_RMSD_MCS_to_ref>  (61) 
0.8476955035074007

$$$$
ligand
     RDKit          3D

 50 53  0  0  0  0  0  0  0  0999 V2000
   18.9090   19.1540    7.5370 C   0  0  0  0  0  0  0  0  0  0  0  0
   18.7730   17.6460    7.6780 C   0  0  0  0  0  0  0  0  0  0  0  0
   20.0910   16.9560    7.6320 C   0  0  0  0  0  0  0  0  0  0  0  0
   20.9780   16.7090    8.6600 C   0  0  0  0  0  0  0  0  0  0  0  0
   22.0030   16.0320    8.0630 N   0  0  0  0  0  0  0  0  0  0  0  0
   23.4770   15.6480    8.7700 S   0  0  0  0  0  6  0  0  0  0  0  0
   23.8590   14.3550    8.2390 O   0  0  0  0  0  0  0  0  0  0  0  0
   24.3050   16.8290    8.6150 O   0  0  0  0  0  0  0  0  0  0  0  0
   23.0940   15.4550   10.4860 C   0  0  0  0  0  0  0  0  0  0  0  0
   23.9880   15.9030   11.4540 C   0  0  0  0  0  0  0  0  0  0  0  0
   23.6640   15.7340   12.8070 C   0  0  0  0  0  0  0  0  0  0  0  0
   24.6290   16.2470   13.8140 C   0  0  0  0  0  0  0  0  0  0  0  0
   25.1950   15.4900   14.5900 O   0  0  0  0  0  0  0  0  0  0  0  0
   24.8290   17.6090   13.7960 N   0  0  0  0  0  0  0  0  0  0  0  0
   25.8470   18.2330   14.6300 C   0  0  2  0  0  0  0  0  0  0  0  0
   25.6430   17.9330   16.1110 C   0  0  0  0  0  0  0  0  0  0  0  0
   26.7130   18.6430   16.9250 C   0  0  0  0  0  0  0  0  0  0  0  0
   26.7210   20.1290   16.6460 C   0  0  0  0  0  0  0  0  0  0  0  0
   27.0070   20.9580   17.5030 O   0  0  0  0  0  0  0  0  0  0  0  0
   26.4220   20.5150   15.3630 N   0  0  0  0  0  0  0  0  0  0  0  0
   25.7930   19.7490   14.4150 C   0  0  0  0  0  0  0  0  0  0  0  0
   25.2330   20.2620   13.4470 O   0  0  0  0  0  0  0  0  0  0  0  0
   22.4430   15.1170   13.1950 C   0  0  0  0  0  0  0  0  0  0  0  0
   22.0310   14.9010   14.5290 C   0  0  0  0  0  0  0  0  0  0  0  0
   20.8190   14.2780   14.8070 C   0  0  0  0  0  0  0  0  0  0  0  0
   20.0440   13.8770   13.7410 C   0  0  0  0  0  0  0  0  0  0  0  0
   20.3950   14.0560   12.4510 N   0  0  0  0  0  0  0  0  0  0  0  0
   21.5640   14.6580   12.1880 C   0  0  0  0  0  0  0  0  0  0  0  0
   21.9040   14.8270   10.8550 C   0  0  0  0  0  0  0  0  0  0  0  0
   21.7510   15.9270    6.7330 C   0  0  0  0  0  0  0  0  0  0  0  0
   20.5900   16.4710    6.4390 N   0  0  0  0  0  0  0  0  0  0  0  0
   18.9504   19.6134    8.5356 H   0  0  0  0  0  0  0  0  0  0  0  0
   19.8320   19.3891    6.9867 H   0  0  0  0  0  0  0  0  0  0  0  0
   18.0430   19.5504    6.9867 H   0  0  0  0  0  0  0  0  0  0  0  0
   18.2894   17.4223    8.6404 H   0  0  0  0  0  0  0  0  0  0  0  0
   18.1709   17.2807    6.8330 H   0  0  0  0  0  0  0  0  0  0  0  0
   20.8815   16.9926    9.7184 H   0  0  0  0  0  0  0  0  0  0  0  0
   24.9340   16.3822   11.1617 H   0  0  0  0  0  0  0  0  0  0  0  0
   24.2482   18.1973   13.1816 H   0  0  0  0  0  0  0  0  0  0  0  0
   26.8251   17.8225   14.3389 H   0  0  0  0  0  0  0  0  0  0  0  0
   24.6496   18.2874   16.4233 H   0  0  0  0  0  0  0  0  0  0  0  0
   25.7152   16.8482   16.2783 H   0  0  0  0  0  0  0  0  0  0  0  0
   26.5158   18.4805   17.9949 H   0  0  0  0  0  0  0  0  0  0  0  0
   27.6934   18.2318   16.6427 H   0  0  0  0  0  0  0  0  0  0  0  0
   26.6955   21.4688   15.0865 H   0  0  0  0  0  0  0  0  0  0  0  0
   22.6762   15.2293   15.3572 H   0  0  0  0  0  0  0  0  0  0  0  0
   20.4903   14.1110   15.8434 H   0  0  0  0  0  0  0  0  0  0  0  0
   19.0846   13.3828   13.9539 H   0  0  0  0  0  0  0  0  0  0  0  0
   21.2229   14.4592   10.0734 H   0  0  0  0  0  0  0  0  0  0  0  0
   22.4239   15.4531    6.0031 H   0  0  0  0  0  0  0  0  0  0  0  0
  1  2  1  0
  2  3  1  0
  3  4  2  0
  4  5  1  0
  5  6  1  0
  6  7  2  0
  6  8  2  0
  6  9  1  0
  9 10  2  0
 10 11  1  0
 11 12  1  0
 12 13  2  0
 12 14  1  0
 14 15  1  0
 15 16  1  0
 16 17  1  0
 17 18  1  0
 18 19  2  0
 18 20  1  0
 20 21  1  0
 21 22  2  0
 11 23  2  0
 23 24  1  0
 24 25  2  0
 25 26  1  0
 26 27  2  0
 27 28  1  0
 28 29  2  0
  5 30  1  0
 30 31  2  0
 31  3  1  0
 29  9  1  0
 21 15  1  0
 28 23  1  0
  1 32  1  0
  1 33  1  0
  1 34  1  0
  2 35  1  0
  2 36  1  0
  4 37  1  0
 10 38  1  0
 14 39  1  0
 15 40  1  6
 16 41  1  0
 16 42  1  0
 17 43  1  0
 17 44  1  0
 20 45  1  0
 24 46  1  0
 25 47  1  0
 26 48  1  0
 29 49  1  0
 30 50  1  0
M  END
>  <meeko>  (62) 
{"is_sidechain": [true], "free_energy": -11.44, "intermolecular_energy": 0.0, "internal_energy": -11.44, "cluster_size": 20, "cluster_id": 1, "rank_in_cluster": 1}

>  <_RMSD_MCS_to_ref>  (62) 
0.5830780393738049

$$$$
ligand
     RDKit          3D

 51 54  0  0  0  0  0  0  0  0999 V2000
   18.9090   19.1540    7.5370 C   0  0  0  0  0  0  0  0  0  0  0  0
   18.7730   17.6460    7.6780 C   0  0  0  0  0  0  0  0  0  0  0  0
   20.0910   16.9550    7.6200 C   0  0  0  0  0  0  0  0  0  0  0  0
   20.9730   16.6800    8.6460 C   0  0  0  0  0  0  0  0  0  0  0  0
   22.0020   16.0240    8.0360 N   0  0  0  0  0  0  0  0  0  0  0  0
   23.4810   15.6410    8.7340 S   0  0  0  0  0  6  0  0  0  0  0  0
   24.3020   16.8270    8.5880 O   0  0  0  0  0  0  0  0  0  0  0  0
   23.8650   14.3530    8.1940 O   0  0  0  0  0  0  0  0  0  0  0  0
   23.0990   15.4330   10.4540 C   0  0  0  0  0  0  0  0  0  0  0  0
   21.9480   14.7330   10.8170 C   0  0  0  0  0  0  0  0  0  0  0  0
   21.6380   14.5730   12.1670 C   0  0  0  0  0  0  0  0  0  0  0  0
   22.4750   15.1040   13.1550 C   0  0  0  0  0  0  0  0  0  0  0  0
   23.6570   15.7800   12.7870 C   0  0  0  0  0  0  0  0  0  0  0  0
   24.5680   16.3330   13.8320 C   0  0  0  0  0  0  0  0  0  0  0  0
   24.9730   15.6180   14.7440 O   0  0  0  0  0  0  0  0  0  0  0  0
   24.9510   17.6490   13.6930 N   0  0  0  0  0  0  0  0  0  0  0  0
   25.9540   18.2360   14.5750 C   0  0  2  0  0  0  0  0  0  0  0  0
   25.6550   17.9730   16.0460 C   0  0  0  0  0  0  0  0  0  0  0  0
   26.7100   18.6490   16.9080 C   0  0  0  0  0  0  0  0  0  0  0  0
   26.8000   20.1270   16.6080 C   0  0  0  0  0  0  0  0  0  0  0  0
   27.0670   20.9590   17.4680 O   0  0  0  0  0  0  0  0  0  0  0  0
   26.5960   20.5030   15.3030 N   0  0  0  0  0  0  0  0  0  0  0  0
   25.9860   19.7470   14.3340 C   0  0  0  0  0  0  0  0  0  0  0  0
   25.5060   20.2650   13.3250 O   0  0  0  0  0  0  0  0  0  0  0  0
   23.9610   15.9500   11.4270 C   0  0  0  0  0  0  0  0  0  0  0  0
   22.1030   14.9700   14.4990 N   0  0  0  0  0  0  0  0  0  0  0  0
   21.0010   14.2690   14.8920 C   0  0  0  0  0  0  0  0  0  0  0  0
   20.6610   14.1990   16.0710 O   0  0  0  0  0  0  0  0  0  0  0  0
   20.2750   13.5270   13.7750 C   0  0  0  0  0  0  0  0  0  0  0  0
   20.4640   13.9220   12.4240 O   0  0  0  0  0  0  0  0  0  0  0  0
   21.7570   15.9530    6.7020 C   0  0  0  0  0  0  0  0  0  0  0  0
   20.5970   16.5060    6.4160 N   0  0  0  0  0  0  0  0  0  0  0  0
   18.9504   19.6134    8.5356 H   0  0  0  0  0  0  0  0  0  0  0  0
   19.8320   19.3891    6.9867 H   0  0  0  0  0  0  0  0  0  0  0  0
   18.0430   19.5504    6.9867 H   0  0  0  0  0  0  0  0  0  0  0  0
   18.2976   17.4219    8.6443 H   0  0  0  0  0  0  0  0  0  0  0  0
   18.1632   17.2817    6.8381 H   0  0  0  0  0  0  0  0  0  0  0  0
   20.8697   16.9322    9.7117 H   0  0  0  0  0  0  0  0  0  0  0  0
   21.2898   14.3103   10.0437 H   0  0  0  0  0  0  0  0  0  0  0  0
   24.5230   18.2269   12.9556 H   0  0  0  0  0  0  0  0  0  0  0  0
   26.9248   17.7720   14.3463 H   0  0  0  0  0  0  0  0  0  0  0  0
   24.6631   18.3774   16.2963 H   0  0  0  0  0  0  0  0  0  0  0  0
   25.6680   16.8893   16.2341 H   0  0  0  0  0  0  0  0  0  0  0  0
   26.4473   18.5139   17.9676 H   0  0  0  0  0  0  0  0  0  0  0  0
   27.6849   18.1900   16.6870 H   0  0  0  0  0  0  0  0  0  0  0  0
   26.9312   21.4369   15.0267 H   0  0  0  0  0  0  0  0  0  0  0  0
   24.8730   16.4874   11.1278 H   0  0  0  0  0  0  0  0  0  0  0  0
   22.6856   15.4193   15.2199 H   0  0  0  0  0  0  0  0  0  0  0  0
   20.5793   12.4722   13.8436 H   0  0  0  0  0  0  0  0  0  0  0  0
   19.2162   13.7592   13.9620 H   0  0  0  0  0  0  0  0  0  0  0  0
   22.4332   15.4972    5.9638 H   0  0  0  0  0  0  0  0  0  0  0  0
  1  2  1  0
  2  3  1  0
  3  4  2  0
  4  5  1  0
  5  6  1  0
  6  7  2  0
  6  8  2  0
  6  9  1  0
  9 10  2  0
 10 11  1  0
 11 12  2  0
 12 13  1  0
 13 14  1  0
 14 15  2  0
 14 16  1  0
 16 17  1  0
 17 18  1  0
 18 19  1  0
 19 20  1  0
 20 21  2  0
 20 22  1  0
 22 23  1  0
 23 24  2  0
 13 25  2  0
 12 26  1  0
 26 27  1  0
 27 28  2  0
 27 29  1  0
 29 30  1  0
  5 31  1  0
 31 32  2  0
 32  3  1  0
 25  9  1  0
 30 11  1  0
 23 17  1  0
  1 33  1  0
  1 34  1  0
  1 35  1  0
  2 36  1  0
  2 37  1  0
  4 38  1  0
 10 39  1  0
 16 40  1  0
 17 41  1  6
 18 42  1  0
 18 43  1  0
 19 44  1  0
 19 45  1  0
 22 46  1  0
 25 47  1  0
 26 48  1  0
 29 49  1  0
 29 50  1  0
 31 51  1  0
M  END
>  <meeko>  (63) 
{"is_sidechain": [true], "free_energy": -11.44, "intermolecular_energy": 0.0, "internal_energy": -11.44, "cluster_size": 20, "cluster_id": 1, "rank_in_cluster": 1}

>  <_RMSD_MCS_to_ref>  (63) 
0.6732311803698804

$$$$
ligand
     RDKit          3D

 47 50  0  0  0  0  0  0  0  0999 V2000
   18.9090   19.1540    7.5370 C   0  0  0  0  0  0  0  0  0  0  0  0
   18.7730   17.6460    7.6780 C   0  0  0  0  0  0  0  0  0  0  0  0
   20.0560   16.9390    7.4110 C   0  0  0  0  0  0  0  0  0  0  0  0
   20.8700   16.2530    8.2900 C   0  0  0  0  0  0  0  0  0  0  0  0
   21.9210   15.8390    7.5210 N   0  0  0  0  0  0  0  0  0  0  0  0
   23.1040   14.7230    7.9870 S   0  0  0  0  0  6  0  0  0  0  0  0
   23.7870   14.4320    6.7390 O   0  0  0  0  0  0  0  0  0  0  0  0
   22.3390   13.7040    8.6830 O   0  0  0  0  0  0  0  0  0  0  0  0
   24.2020   15.4690    9.0850 C   0  0  0  0  0  0  0  0  0  0  0  0
   25.4490   15.8400    8.7300 C   0  0  0  0  0  0  0  0  0  0  0  0
   26.3080   16.4670    9.7240 C   0  0  0  0  0  0  0  0  0  0  0  0
   25.8890   16.6840   10.9830 C   0  0  0  0  0  0  0  0  0  0  0  0
   24.5730   16.2930   11.3550 C   0  0  0  0  0  0  0  0  0  0  0  0
   23.8030   16.3430   12.4990 C   0  0  0  0  0  0  0  0  0  0  0  0
   24.1600   16.8740   13.8050 C   0  0  0  0  0  0  0  0  0  0  0  0
   23.9270   16.2870   14.8570 O   0  0  0  0  0  0  0  0  0  0  0  0
   24.7790   18.1010   13.7590 N   0  0  0  0  0  0  0  0  0  0  0  0
   25.0920   18.8560   14.9590 C   0  0  1  0  0  0  0  0  0  0  0  0
   26.0750   18.1140   15.8600 C   0  0  0  0  0  0  0  0  0  0  0  0
   26.3800   18.9620   17.0850 C   0  0  0  0  0  0  0  0  0  0  0  0
   26.8970   20.3270   16.6940 C   0  0  0  0  0  0  0  0  0  0  0  0
   27.7170   20.9380   17.3720 O   0  0  0  0  0  0  0  0  0  0  0  0
   26.3770   20.8750   15.5490 N   0  0  0  0  0  0  0  0  0  0  0  0
   25.7010   20.2050   14.5600 C   0  0  0  0  0  0  0  0  0  0  0  0
   25.5850   20.6860   13.4350 O   0  0  0  0  0  0  0  0  0  0  0  0
   22.5770   15.7930   12.2270 N   0  0  0  0  0  0  0  0  0  0  0  0
   22.5590   15.4060   10.9600 N   0  0  0  0  0  0  0  0  0  0  0  0
   23.7580   15.6900   10.3880 N   0  0  0  0  0  0  0  0  0  0  0  0
   21.7110   16.2260    6.2360 C   0  0  0  0  0  0  0  0  0  0  0  0
   20.5800   16.8920    6.1330 N   0  0  0  0  0  0  0  0  0  0  0  0
   18.9504   19.6134    8.5356 H   0  0  0  0  0  0  0  0  0  0  0  0
   19.8320   19.3891    6.9867 H   0  0  0  0  0  0  0  0  0  0  0  0
   18.0430   19.5504    6.9867 H   0  0  0  0  0  0  0  0  0  0  0  0
   18.4470   17.4138    8.7026 H   0  0  0  0  0  0  0  0  0  0  0  0
   18.0368   17.3021    6.9365 H   0  0  0  0  0  0  0  0  0  0  0  0
   20.7093   16.0793    9.3642 H   0  0  0  0  0  0  0  0  0  0  0  0
   25.8114   15.6714    7.7052 H   0  0  0  0  0  0  0  0  0  0  0  0
   27.3257   16.7710    9.4378 H   0  0  0  0  0  0  0  0  0  0  0  0
   26.5566   17.1587   11.7172 H   0  0  0  0  0  0  0  0  0  0  0  0
   25.0291   18.4980   12.8421 H   0  0  0  0  0  0  0  0  0  0  0  0
   24.1572   18.9989   15.5208 H   0  0  0  0  0  0  0  0  0  0  0  0
   25.6322   17.1582   16.1768 H   0  0  0  0  0  0  0  0  0  0  0  0
   27.0059   17.9215   15.3065 H   0  0  0  0  0  0  0  0  0  0  0  0
   25.4595   19.0831   17.6750 H   0  0  0  0  0  0  0  0  0  0  0  0
   27.1565   18.4528   17.6747 H   0  0  0  0  0  0  0  0  0  0  0  0
   26.5065   21.8885   15.4187 H   0  0  0  0  0  0  0  0  0  0  0  0
   22.3911   16.0127    5.3982 H   0  0  0  0  0  0  0  0  0  0  0  0
  1  2  1  0
  2  3  1  0
  3  4  2  0
  4  5  1  0
  5  6  1  0
  6  7  2  0
  6  8  2  0
  6  9  1  0
  9 10  2  0
 10 11  1  0
 11 12  2  0
 12 13  1  0
 13 14  2  0
 14 15  1  0
 15 16  2  0
 15 17  1  0
 17 18  1  0
 18 19  1  0
 19 20  1  0
 20 21  1  0
 21 22  2  0
 21 23  1  0
 23 24  1  0
 24 25  2  0
 14 26  1  0
 26 27  2  0
 27 28  1  0
  5 29  1  0
 29 30  2  0
 30  3  1  0
 28  9  1  0
 28 13  1  0
 24 18  1  0
  1 31  1  0
  1 32  1  0
  1 33  1  0
  2 34  1  0
  2 35  1  0
  4 36  1  0
 10 37  1  0
 11 38  1  0
 12 39  1  0
 17 40  1  0
 18 41  1  1
 19 42  1  0
 19 43  1  0
 20 44  1  0
 20 45  1  0
 23 46  1  0
 29 47  1  0
M  END
>  <meeko>  (64) 
{"is_sidechain": [true], "free_energy": -11.43, "intermolecular_energy": 0.0, "internal_energy": -11.43, "cluster_size": 19, "cluster_id": 1, "rank_in_cluster": 1}

>  <_RMSD_MCS_to_ref>  (64) 
0.6533063769949151

$$$$
ligand
     RDKit          3D

 46 49  0  0  0  0  0  0  0  0999 V2000
   18.9090   19.1540    7.5370 C   0  0  0  0  0  0  0  0  0  0  0  0
   18.7730   17.6460    7.6780 C   0  0  0  0  0  0  0  0  0  0  0  0
   20.0380   16.9340    7.3500 C   0  0  0  0  0  0  0  0  0  0  0  0
   21.1910   16.8210    8.1010 C   0  0  0  0  0  0  0  0  0  0  0  0
   22.0300   16.0840    7.3160 N   0  0  0  0  0  0  0  0  0  0  0  0
   23.5300   15.4950    7.7620 S   0  0  0  0  0  6  0  0  0  0  0  0
   24.5100   16.2000    6.9580 O   0  0  0  0  0  0  0  0  0  0  0  0
   23.4280   14.0480    7.7590 O   0  0  0  0  0  0  0  0  0  0  0  0
   23.8650   15.9380    9.4060 C   0  0  0  0  0  0  0  0  0  0  0  0
   24.8540   16.7140    9.8170 N   0  0  0  0  0  0  0  0  0  0  0  0
   24.7720   16.8220   11.1900 N   0  0  0  0  0  0  0  0  0  0  0  0
   23.7440   16.1010   11.5680 C   0  0  0  0  0  0  0  0  0  0  0  0
   23.1890   15.8630   12.8660 C   0  0  0  0  0  0  0  0  0  0  0  0
   23.8730   16.4800   14.0680 C   0  0  0  0  0  0  0  0  0  0  0  0
   23.9510   15.8750   15.1240 O   0  0  0  0  0  0  0  0  0  0  0  0
   24.3230   17.7650   13.8520 N   0  0  0  0  0  0  0  0  0  0  0  0
   24.8090   18.5850   14.9500 C   0  0  1  0  0  0  0  0  0  0  0  0
   25.8810   17.8750   15.7700 C   0  0  0  0  0  0  0  0  0  0  0  0
   26.3700   18.7970   16.8750 C   0  0  0  0  0  0  0  0  0  0  0  0
   26.8670   20.1090   16.3160 C   0  0  0  0  0  0  0  0  0  0  0  0
   27.7910   20.7350   16.8270 O   0  0  0  0  0  0  0  0  0  0  0  0
   26.2110   20.5960   15.2140 N   0  0  0  0  0  0  0  0  0  0  0  0
   25.3930   19.8790   14.3760 C   0  0  0  0  0  0  0  0  0  0  0  0
   25.1400   20.2780   13.2400 O   0  0  0  0  0  0  0  0  0  0  0  0
   22.0960   15.1550   13.0340 N   0  0  0  0  0  0  0  0  0  0  0  0
   21.5110   14.6070   11.9040 C   0  0  0  0  0  0  0  0  0  0  0  0
   21.9850   14.7720   10.6550 C   0  0  0  0  0  0  0  0  0  0  0  0
   23.1250   15.5390   10.4830 N   0  0  0  0  0  0  0  0  0  0  0  0
   21.3770   15.7240    6.1810 C   0  0  0  0  0  0  0  0  0  0  0  0
   20.1710   16.2500    6.1580 N   0  0  0  0  0  0  0  0  0  0  0  0
   18.9504   19.6134    8.5356 H   0  0  0  0  0  0  0  0  0  0  0  0
   19.8320   19.3891    6.9867 H   0  0  0  0  0  0  0  0  0  0  0  0
   18.0430   19.5504    6.9867 H   0  0  0  0  0  0  0  0  0  0  0  0
   18.4931   17.4111    8.7155 H   0  0  0  0  0  0  0  0  0  0  0  0
   18.0024   17.3089    6.9692 H   0  0  0  0  0  0  0  0  0  0  0  0
   21.3883   17.2310    9.1025 H   0  0  0  0  0  0  0  0  0  0  0  0
   24.3148   18.1506   12.8970 H   0  0  0  0  0  0  0  0  0  0  0  0
   23.9613   18.7935   15.6193 H   0  0  0  0  0  0  0  0  0  0  0  0
   25.4574   16.9625   16.2149 H   0  0  0  0  0  0  0  0  0  0  0  0
   26.7245   17.6079   15.1164 H   0  0  0  0  0  0  0  0  0  0  0  0
   25.5404   18.9949   17.5697 H   0  0  0  0  0  0  0  0  0  0  0  0
   27.2041   18.3033   17.3950 H   0  0  0  0  0  0  0  0  0  0  0  0
   26.3446   21.5934   14.9945 H   0  0  0  0  0  0  0  0  0  0  0  0
   20.6033   13.9997   12.0356 H   0  0  0  0  0  0  0  0  0  0  0  0
   21.4802   14.3098    9.7939 H   0  0  0  0  0  0  0  0  0  0  0  0
   21.7971   15.0829    5.3919 H   0  0  0  0  0  0  0  0  0  0  0  0
  1  2  1  0
  2  3  1  0
  3  4  2  0
  4  5  1  0
  5  6  1  0
  6  7  2  0
  6  8  2  0
  6  9  1  0
  9 10  2  0
 10 11  1  0
 11 12  2  0
 12 13  1  0
 13 14  1  0
 14 15  2  0
 14 16  1  0
 16 17  1  0
 17 18  1  0
 18 19  1  0
 19 20  1  0
 20 21  2  0
 20 22  1  0
 22 23  1  0
 23 24  2  0
 13 25  2  0
 25 26  1  0
 26 27  2  0
 27 28  1  0
  5 29  1  0
 29 30  2  0
 30  3  1  0
 28  9  1  0
 28 12  1  0
 23 17  1  0
  1 31  1  0
  1 32  1  0
  1 33  1  0
  2 34  1  0
  2 35  1  0
  4 36  1  0
 16 37  1  0
 17 38  1  1
 18 39  1  0
 18 40  1  0
 19 41  1  0
 19 42  1  0
 22 43  1  0
 26 44  1  0
 27 45  1  0
 29 46  1  0
M  END
>  <meeko>  (65) 
{"is_sidechain": [true], "free_energy": -11.43, "intermolecular_energy": 0.0, "internal_energy": -11.43, "cluster_size": 13, "cluster_id": 1, "rank_in_cluster": 1}

>  <_RMSD_MCS_to_ref>  (65) 
0.3856568710942701

$$$$
ligand
     RDKit          3D

 53 57  0  0  0  0  0  0  0  0999 V2000
   18.9090   19.1540    7.5370 C   0  0  0  0  0  0  0  0  0  0  0  0
   18.7730   17.6460    7.6780 C   0  0  0  0  0  0  0  0  0  0  0  0
   20.0750   16.9470    7.5130 C   0  0  0  0  0  0  0  0  0  0  0  0
   20.9040   16.4180    8.4840 C   0  0  0  0  0  0  0  0  0  0  0  0
   21.9640   15.9240    7.7850 N   0  0  0  0  0  0  0  0  0  0  0  0
   23.3390   15.1980    8.4130 S   0  0  0  0  0  6  0  0  0  0  0  0
   23.1780   13.7620    8.2850 O   0  0  0  0  0  0  0  0  0  0  0  0
   24.4420   15.9040    7.7890 O   0  0  0  0  0  0  0  0  0  0  0  0
   23.3440   15.5820   10.1520 C   0  0  0  0  0  0  0  0  0  0  0  0
   24.3570   16.4590   10.6010 C   0  0  0  0  0  0  0  0  0  0  0  0
   24.3850   16.8060   11.9380 C   0  0  0  0  0  0  0  0  0  0  0  0
   23.4320   16.2940   12.8080 C   0  0  0  0  0  0  0  0  0  0  0  0
   22.4330   15.4290   12.4010 C   0  0  0  0  0  0  0  0  0  0  0  0
   22.3820   15.0450   11.0480 C   0  0  0  0  0  0  0  0  0  0  0  0
   21.3210   14.1150   10.6730 C   0  0  0  0  0  0  0  0  0  0  0  0
   19.9540   14.1920   10.8570 C   0  0  0  0  0  0  0  0  0  0  0  0
   19.4400   12.9900   10.3420 C   0  0  0  0  0  0  0  0  0  0  0  0
   20.3990   12.1940    9.8710 N   0  0  0  0  0  0  0  0  0  0  0  0
   21.5300   12.8780   10.1070 N   0  0  0  0  0  0  0  0  0  0  0  0
   23.6940   16.8340   14.1450 C   0  0  0  0  0  0  0  0  0  0  0  0
   23.0050   16.6320   15.1250 O   0  0  0  0  0  0  0  0  0  0  0  0
   24.8470   17.6000   14.0480 N   0  0  0  0  0  0  0  0  0  0  0  0
   25.2530   18.5110   15.1140 C   0  0  1  0  0  0  0  0  0  0  0  0
   26.3380   17.9190   16.0080 C   0  0  0  0  0  0  0  0  0  0  0  0
   26.6450   18.8910   17.1380 C   0  0  0  0  0  0  0  0  0  0  0  0
   27.0300   20.2490   16.6000 C   0  0  0  0  0  0  0  0  0  0  0  0
   27.8820   20.9510   17.1380 O   0  0  0  0  0  0  0  0  0  0  0  0
   26.3670   20.6760   15.4780 N   0  0  0  0  0  0  0  0  0  0  0  0
   25.7390   19.8620   14.5640 C   0  0  0  0  0  0  0  0  0  0  0  0
   25.6100   20.2220   13.3950 O   0  0  0  0  0  0  0  0  0  0  0  0
   25.3140   17.7180   12.6730 C   0  0  0  0  0  0  0  0  0  0  0  0
   21.7500   16.1080    6.4560 C   0  0  0  0  0  0  0  0  0  0  0  0
   20.6170   16.7490    6.2570 N   0  0  0  0  0  0  0  0  0  0  0  0
   18.9504   19.6134    8.5356 H   0  0  0  0  0  0  0  0  0  0  0  0
   19.8320   19.3891    6.9867 H   0  0  0  0  0  0  0  0  0  0  0  0
   18.0430   19.5504    6.9867 H   0  0  0  0  0  0  0  0  0  0  0  0
   18.3727   17.4182    8.6769 H   0  0  0  0  0  0  0  0  0  0  0  0
   18.0969   17.2923    6.8857 H   0  0  0  0  0  0  0  0  0  0  0  0
   20.7445   16.3999    9.5722 H   0  0  0  0  0  0  0  0  0  0  0  0
   25.1068   16.8567    9.9013 H   0  0  0  0  0  0  0  0  0  0  0  0
   21.6929   15.0486   13.1204 H   0  0  0  0  0  0  0  0  0  0  0  0
   19.3879   15.0190   11.3105 H   0  0  0  0  0  0  0  0  0  0  0  0
   18.3699   12.7357   10.3292 H   0  0  0  0  0  0  0  0  0  0  0  0
   22.4666   12.5112    9.8852 H   0  0  0  0  0  0  0  0  0  0  0  0
   24.3489   18.6720   15.7196 H   0  0  0  0  0  0  0  0  0  0  0  0
   25.9872   16.9652   16.4290 H   0  0  0  0  0  0  0  0  0  0  0  0
   27.2481   17.7435   15.4157 H   0  0  0  0  0  0  0  0  0  0  0  0
   25.7531   18.9962   17.7732 H   0  0  0  0  0  0  0  0  0  0  0  0
   27.4902   18.4939   17.7194 H   0  0  0  0  0  0  0  0  0  0  0  0
   26.3367   21.6910   15.3052 H   0  0  0  0  0  0  0  0  0  0  0  0
   25.2254   18.7527   12.3102 H   0  0  0  0  0  0  0  0  0  0  0  0
   26.3755   17.4589   12.5460 H   0  0  0  0  0  0  0  0  0  0  0  0
   22.4277   15.7692    5.6585 H   0  0  0  0  0  0  0  0  0  0  0  0
  1  2  1  0
  2  3  1  0
  3  4  2  0
  4  5  1  0
  5  6  1  0
  6  7  2  0
  6  8  2  0
  6  9  1  0
  9 10  2  0
 10 11  1  0
 11 12  2  0
 12 13  1  0
 13 14  2  0
 14 15  1  0
 15 16  2  0
 16 17  1  0
 17 18  2  0
 18 19  1  0
 12 20  1  0
 20 21  2  0
 20 22  1  0
 22 23  1  0
 23 24  1  0
 24 25  1  0
 25 26  1  0
 26 27  2  0
 26 28  1  0
 28 29  1  0
 29 30  2  0
 22 31  1  0
  5 32  1  0
 32 33  2  0
 33  3  1  0
 14  9  1  0
 19 15  1  0
 29 23  1  0
 31 11  1  0
  1 34  1  0
  1 35  1  0
  1 36  1  0
  2 37  1  0
  2 38  1  0
  4 39  1  0
 10 40  1  0
 13 41  1  0
 16 42  1  0
 17 43  1  0
 19 44  1  0
 23 45  1  1
 24 46  1  0
 24 47  1  0
 25 48  1  0
 25 49  1  0
 28 50  1  0
 31 51  1  0
 31 52  1  0
 32 53  1  0
M  END
>  <meeko>  (66) 
{"is_sidechain": [true], "free_energy": -11.43, "intermolecular_energy": 0.0, "internal_energy": -11.43, "cluster_size": 11, "cluster_id": 1, "rank_in_cluster": 1}

>  <_RMSD_MCS_to_ref>  (66) 
0.9888088794099696

$$$$
ligand
     RDKit          3D

 54 58  0  0  0  0  0  0  0  0999 V2000
   18.7970   18.8170    7.7190 C   0  0  0  0  0  0  0  0  0  0  0  0
   18.5280   17.3290    7.8810 C   0  0  0  0  0  0  0  0  0  0  0  0
   19.7860   16.5390    7.9720 C   0  0  0  0  0  0  0  0  0  0  0  0
   20.2800   15.8140    9.0380 C   0  0  0  0  0  0  0  0  0  0  0  0
   21.4560   15.2980    8.5770 N   0  0  0  0  0  0  0  0  0  0  0  0
   22.4140   14.1540    9.3490 S   0  0  0  0  0  6  0  0  0  0  0  0
   22.1180   12.9010    8.6810 O   0  0  0  0  0  0  0  0  0  0  0  0
   23.7540   14.7050    9.3980 O   0  0  0  0  0  0  0  0  0  0  0  0
   21.7610   14.0930   10.9950 C   0  0  0  0  0  0  0  0  0  0  0  0
   20.4700   13.5590   11.1890 C   0  0  0  0  0  0  0  0  0  0  0  0
   19.8870   13.5030   12.4640 C   0  0  0  0  0  0  0  0  0  0  0  0
   18.6000   12.9840   12.6710 C   0  0  0  0  0  0  0  0  0  0  0  0
   18.0420   12.9460   13.9530 C   0  0  0  0  0  0  0  0  0  0  0  0
   18.7570   13.4250   15.0510 C   0  0  0  0  0  0  0  0  0  0  0  0
   20.0390   13.9440   14.8750 C   0  0  0  0  0  0  0  0  0  0  0  0
   20.6000   13.9820   13.5870 C   0  0  0  0  0  0  0  0  0  0  0  0
   21.8950   14.4930   13.3570 C   0  0  0  0  0  0  0  0  0  0  0  0
   22.7340   14.9890   14.3120 O   0  0  0  0  0  0  0  0  0  0  0  0
   23.8890   15.3680   13.6860 C   0  0  0  0  0  0  0  0  0  0  0  0
   24.9660   15.9390   14.4660 C   0  0  0  0  0  0  0  0  0  0  0  0
   25.8320   15.2690   15.0220 O   0  0  0  0  0  0  0  0  0  0  0  0
   24.9520   17.3120   14.5290 N   0  0  0  0  0  0  0  0  0  0  0  0
   26.0330   18.0770   15.1230 C   0  0  2  0  0  0  0  0  0  0  0  0
   26.1430   17.8450   16.6270 C   0  0  0  0  0  0  0  0  0  0  0  0
   27.2710   18.6970   17.1900 C   0  0  0  0  0  0  0  0  0  0  0  0
   27.0740   20.1580   16.8570 C   0  0  0  0  0  0  0  0  0  0  0  0
   27.4230   21.0590   17.6140 O   0  0  0  0  0  0  0  0  0  0  0  0
   26.5070   20.4400   15.6410 N   0  0  0  0  0  0  0  0  0  0  0  0
   25.7840   19.5660   14.8650 C   0  0  0  0  0  0  0  0  0  0  0  0
   24.9980   19.9760   14.0110 O   0  0  0  0  0  0  0  0  0  0  0  0
   23.7870   15.1120   12.3340 C   0  0  0  0  0  0  0  0  0  0  0  0
   22.4970   14.5560   12.1040 C   0  0  0  0  0  0  0  0  0  0  0  0
   21.6360   15.6840    7.2870 C   0  0  0  0  0  0  0  0  0  0  0  0
   20.6370   16.4420    6.8880 N   0  0  0  0  0  0  0  0  0  0  0  0
   18.8815   19.2845    8.7111 H   0  0  0  0  0  0  0  0  0  0  0  0
   19.7359   18.9616    7.1643 H   0  0  0  0  0  0  0  0  0  0  0  0
   17.9682   19.2812    7.1643 H   0  0  0  0  0  0  0  0  0  0  0  0
   17.9436   17.1722    8.7996 H   0  0  0  0  0  0  0  0  0  0  0  0
   17.9763   16.9860    6.9933 H   0  0  0  0  0  0  0  0  0  0  0  0
   19.8284   15.6823   10.0324 H   0  0  0  0  0  0  0  0  0  0  0  0
   19.9087   13.1786   10.3229 H   0  0  0  0  0  0  0  0  0  0  0  0
   18.0233   12.6027   11.8154 H   0  0  0  0  0  0  0  0  0  0  0  0
   17.0317   12.5353   14.0966 H   0  0  0  0  0  0  0  0  0  0  0  0
   18.3094   13.3932   16.0553 H   0  0  0  0  0  0  0  0  0  0  0  0
   20.6073   14.3210   15.7381 H   0  0  0  0  0  0  0  0  0  0  0  0
   24.1433   17.8174   14.1397 H   0  0  0  0  0  0  0  0  0  0  0  0
   26.9756   17.7462   14.6625 H   0  0  0  0  0  0  0  0  0  0  0  0
   25.1957   18.1241   17.1114 H   0  0  0  0  0  0  0  0  0  0  0  0
   26.3541   16.7828   16.8199 H   0  0  0  0  0  0  0  0  0  0  0  0
   27.2978   18.5791   18.2833 H   0  0  0  0  0  0  0  0  0  0  0  0
   28.2171   18.3625   16.7394 H   0  0  0  0  0  0  0  0  0  0  0  0
   26.6346   21.3945   15.2755 H   0  0  0  0  0  0  0  0  0  0  0  0
   24.5596   15.3024   11.5745 H   0  0  0  0  0  0  0  0  0  0  0  0
   22.4969   15.4022    6.6629 H   0  0  0  0  0  0  0  0  0  0  0  0
  1  2  1  0
  2  3  1  0
  3  4  2  0
  4  5  1  0
  5  6  1  0
  6  7  2  0
  6  8  2  0
  6  9  1  0
  9 10  2  0
 10 11  1  0
 11 12  2  0
 12 13  1  0
 13 14  2  0
 14 15  1  0
 15 16  2  0
 16 17  1  0
 17 18  1  0
 18 19  1  0
 19 20  1  0
 20 21  2  0
 20 22  1  0
 22 23  1  0
 23 24  1  0
 24 25  1  0
 25 26  1  0
 26 27  2  0
 26 28  1  0
 28 29  1  0
 29 30  2  0
 19 31  2  0
 31 32  1  0
  5 33  1  0
 33 34  2  0
 34  3  1  0
 32  9  1  0
 16 11  1  0
 32 17  2  0
 29 23  1  0
  1 35  1  0
  1 36  1  0
  1 37  1  0
  2 38  1  0
  2 39  1  0
  4 40  1  0
 10 41  1  0
 12 42  1  0
 13 43  1  0
 14 44  1  0
 15 45  1  0
 22 46  1  0
 23 47  1  6
 24 48  1  0
 24 49  1  0
 25 50  1  0
 25 51  1  0
 28 52  1  0
 31 53  1  0
 33 54  1  0
M  END
>  <meeko>  (67) 
{"is_sidechain": [true], "free_energy": -11.42, "intermolecular_energy": 0.0, "internal_energy": -11.42, "cluster_size": 12, "cluster_id": 1, "rank_in_cluster": 1}

>  <_RMSD_MCS_to_ref>  (67) 
0.6617402142163578

$$$$
ligand
     RDKit          3D

 52 55  0  0  0  0  0  0  0  0999 V2000
   18.9090   19.1540    7.5370 C   0  0  0  0  0  0  0  0  0  0  0  0
   18.7730   17.6460    7.6780 C   0  0  0  0  0  0  0  0  0  0  0  0
   20.0620   16.9410    7.4470 C   0  0  0  0  0  0  0  0  0  0  0  0
   20.6880   15.9920    8.2320 C   0  0  0  0  0  0  0  0  0  0  0  0
   21.8260   15.6870    7.5440 N   0  0  0  0  0  0  0  0  0  0  0  0
   23.0440   14.6600    8.0720 S   0  0  0  0  0  6  0  0  0  0  0  0
   22.3870   13.3780    8.2490 O   0  0  0  0  0  0  0  0  0  0  0  0
   24.1610   14.8350    7.1650 O   0  0  0  0  0  0  0  0  0  0  0  0
   23.5080   15.2810    9.6670 C   0  0  0  0  0  0  0  0  0  0  0  0
   22.6240   15.1030   10.7410 C   0  0  0  0  0  0  0  0  0  0  0  0
   22.9410   15.5980   12.0160 C   0  0  0  0  0  0  0  0  0  0  0  0
   24.1520   16.2670   12.2440 C   0  0  0  0  0  0  0  0  0  0  0  0
   24.4750   16.8240   13.5850 C   0  0  0  0  0  0  0  0  0  0  0  0
   24.2380   16.1910   14.6050 O   0  0  0  0  0  0  0  0  0  0  0  0
   25.0250   18.0870   13.5940 N   0  0  0  0  0  0  0  0  0  0  0  0
   25.2310   18.8060   14.8440 C   0  0  1  0  0  0  0  0  0  0  0  0
   26.2140   18.0930   15.7670 C   0  0  0  0  0  0  0  0  0  0  0  0
   26.4120   18.9170   17.0300 C   0  0  0  0  0  0  0  0  0  0  0  0
   26.8620   20.3210   16.7030 C   0  0  0  0  0  0  0  0  0  0  0  0
   27.6280   20.9530   17.4260 O   0  0  0  0  0  0  0  0  0  0  0  0
   26.3470   20.8830   15.5620 N   0  0  0  0  0  0  0  0  0  0  0  0
   25.7740   20.2000   14.5190 C   0  0  0  0  0  0  0  0  0  0  0  0
   25.6970   20.6990   13.3950 O   0  0  0  0  0  0  0  0  0  0  0  0
   25.0320   16.4210   11.1720 C   0  0  0  0  0  0  0  0  0  0  0  0
   24.7190   15.9300    9.8900 C   0  0  0  0  0  0  0  0  0  0  0  0
   25.8230   16.2630    8.9300 C   0  0  0  0  0  0  0  0  0  0  0  0
   26.9880   16.5490    9.8820 C   0  0  0  0  0  0  0  0  0  0  0  0
   26.3660   17.1110   11.1620 C   0  0  0  0  0  0  0  0  0  0  0  0
   21.8680   16.4160    6.4010 C   0  0  0  0  0  0  0  0  0  0  0  0
   20.8140   17.2020    6.3170 N   0  0  0  0  0  0  0  0  0  0  0  0
   18.9504   19.6134    8.5356 H   0  0  0  0  0  0  0  0  0  0  0  0
   19.8320   19.3891    6.9867 H   0  0  0  0  0  0  0  0  0  0  0  0
   18.0430   19.5504    6.9867 H   0  0  0  0  0  0  0  0  0  0  0  0
   18.4206   17.4157    8.6942 H   0  0  0  0  0  0  0  0  0  0  0  0
   18.0577   17.2992    6.9177 H   0  0  0  0  0  0  0  0  0  0  0  0
   20.3470   15.5772    9.1920 H   0  0  0  0  0  0  0  0  0  0  0  0
   21.6742   14.5711   10.5832 H   0  0  0  0  0  0  0  0  0  0  0  0
   22.2316   15.4595   12.8452 H   0  0  0  0  0  0  0  0  0  0  0  0
   25.2945   18.5294   12.7038 H   0  0  0  0  0  0  0  0  0  0  0  0
   24.2654   18.8628   15.3678 H   0  0  0  0  0  0  0  0  0  0  0  0
   25.8148   17.1033   16.0337 H   0  0  0  0  0  0  0  0  0  0  0  0
   27.1788   17.9726   15.2526 H   0  0  0  0  0  0  0  0  0  0  0  0
   25.4605   18.9644   17.5800 H   0  0  0  0  0  0  0  0  0  0  0  0
   27.1903   18.4358   17.6406 H   0  0  0  0  0  0  0  0  0  0  0  0
   26.3948   21.9087   15.4813 H   0  0  0  0  0  0  0  0  0  0  0  0
   26.0466   15.4146    8.2665 H   0  0  0  0  0  0  0  0  0  0  0  0
   25.5874   17.0954    8.2506 H   0  0  0  0  0  0  0  0  0  0  0  0
   27.5380   15.6218   10.1007 H   0  0  0  0  0  0  0  0  0  0  0  0
   27.7025   17.2583    9.4389 H   0  0  0  0  0  0  0  0  0  0  0  0
   26.9619   16.8472   12.0482 H   0  0  0  0  0  0  0  0  0  0  0  0
   26.3042   18.2090   11.1870 H   0  0  0  0  0  0  0  0  0  0  0  0
   22.6695   16.3590    5.6497 H   0  0  0  0  0  0  0  0  0  0  0  0
  1  2  1  0
  2  3  1  0
  3  4  2  0
  4  5  1  0
  5  6  1  0
  6  7  2  0
  6  8  2  0
  6  9  1  0
  9 10  2  0
 10 11  1  0
 11 12  2  0
 12 13  1  0
 13 14  2  0
 13 15  1  0
 15 16  1  0
 16 17  1  0
 17 18  1  0
 18 19  1  0
 19 20  2  0
 19 21  1  0
 21 22  1  0
 22 23  2  0
 12 24  1  0
 24 25  2  0
 25 26  1  0
 26 27  1  0
 27 28  1  0
  5 29  1  0
 29 30  2  0
 30  3  1  0
 25  9  1  0
 22 16  1  0
 28 24  1  0
  1 31  1  0
  1 32  1  0
  1 33  1  0
  2 34  1  0
  2 35  1  0
  4 36  1  0
 10 37  1  0
 11 38  1  0
 15 39  1  0
 16 40  1  1
 17 41  1  0
 17 42  1  0
 18 43  1  0
 18 44  1  0
 21 45  1  0
 26 46  1  0
 26 47  1  0
 27 48  1  0
 27 49  1  0
 28 50  1  0
 28 51  1  0
 29 52  1  0
M  END
>  <meeko>  (68) 
{"is_sidechain": [true], "free_energy": -11.42, "intermolecular_energy": 0.0, "internal_energy": -11.42, "cluster_size": 12, "cluster_id": 1, "rank_in_cluster": 1}

>  <_RMSD_MCS_to_ref>  (68) 
0.6763440938851565

$$$$
ligand
     RDKit          3D

 53 56  0  0  0  0  0  0  0  0999 V2000
   18.9090   19.1540    7.5370 C   0  0  0  0  0  0  0  0  0  0  0  0
   18.7730   17.6460    7.6780 C   0  0  0  0  0  0  0  0  0  0  0  0
   20.0910   16.9550    7.6220 C   0  0  0  0  0  0  0  0  0  0  0  0
   20.9890   16.7140    8.6430 C   0  0  0  0  0  0  0  0  0  0  0  0
   22.0050   16.0310    8.0400 N   0  0  0  0  0  0  0  0  0  0  0  0
   23.4840   15.6470    8.7390 S   0  0  0  0  0  6  0  0  0  0  0  0
   23.8620   14.3590    8.1920 O   0  0  0  0  0  0  0  0  0  0  0  0
   24.3120   16.8280    8.5910 O   0  0  0  0  0  0  0  0  0  0  0  0
   23.0980   15.4410   10.4550 C   0  0  0  0  0  0  0  0  0  0  0  0
   21.9070   14.8100   10.8220 C   0  0  0  0  0  0  0  0  0  0  0  0
   21.5900   14.6480   12.1780 C   0  0  0  0  0  0  0  0  0  0  0  0
   22.4940   15.0900   13.1700 C   0  0  0  0  0  0  0  0  0  0  0  0
   23.6970   15.7160   12.7830 C   0  0  0  0  0  0  0  0  0  0  0  0
   24.6600   16.2370   13.7920 C   0  0  0  0  0  0  0  0  0  0  0  0
   25.2620   15.4820   14.5440 O   0  0  0  0  0  0  0  0  0  0  0  0
   24.8280   17.6040   13.8010 N   0  0  0  0  0  0  0  0  0  0  0  0
   25.8460   18.2320   14.6330 C   0  0  2  0  0  0  0  0  0  0  0  0
   25.6420   17.9340   16.1130 C   0  0  0  0  0  0  0  0  0  0  0  0
   26.7110   18.6470   16.9250 C   0  0  0  0  0  0  0  0  0  0  0  0
   26.7160   20.1310   16.6450 C   0  0  0  0  0  0  0  0  0  0  0  0
   27.0020   20.9630   17.5020 O   0  0  0  0  0  0  0  0  0  0  0  0
   26.4130   20.5160   15.3630 N   0  0  0  0  0  0  0  0  0  0  0  0
   25.7890   19.7460   14.4140 C   0  0  0  0  0  0  0  0  0  0  0  0
   25.2360   20.2570   13.4400 O   0  0  0  0  0  0  0  0  0  0  0  0
   23.9980   15.8880   11.4240 C   0  0  0  0  0  0  0  0  0  0  0  0
   22.1100   14.9180   14.6240 C   0  0  0  0  0  0  0  0  0  0  0  0
   21.0170   13.8690   14.7990 C   0  0  0  0  0  0  0  0  0  0  0  0
   19.9310   14.1570   13.9210 O   0  0  0  0  0  0  0  0  0  0  0  0
   20.3030   13.9470   12.5580 C   0  0  0  0  0  0  0  0  0  0  0  0
   21.7410   15.9180    6.7130 C   0  0  0  0  0  0  0  0  0  0  0  0
   20.5760   16.4610    6.4280 N   0  0  0  0  0  0  0  0  0  0  0  0
   18.9504   19.6134    8.5356 H   0  0  0  0  0  0  0  0  0  0  0  0
   19.8320   19.3891    6.9867 H   0  0  0  0  0  0  0  0  0  0  0  0
   18.0430   19.5504    6.9867 H   0  0  0  0  0  0  0  0  0  0  0  0
   18.2963   17.4220    8.6437 H   0  0  0  0  0  0  0  0  0  0  0  0
   18.1645   17.2816    6.8372 H   0  0  0  0  0  0  0  0  0  0  0  0
   20.9047   17.0057    9.7002 H   0  0  0  0  0  0  0  0  0  0  0  0
   21.2185   14.4406   10.0478 H   0  0  0  0  0  0  0  0  0  0  0  0
   24.2238   18.1923   13.2096 H   0  0  0  0  0  0  0  0  0  0  0  0
   26.8255   17.8239   14.3431 H   0  0  0  0  0  0  0  0  0  0  0  0
   24.6480   18.2874   16.4247 H   0  0  0  0  0  0  0  0  0  0  0  0
   25.7150   16.8496   16.2823 H   0  0  0  0  0  0  0  0  0  0  0  0
   26.5151   18.4852   17.9953 H   0  0  0  0  0  0  0  0  0  0  0  0
   27.6919   18.2376   16.6420 H   0  0  0  0  0  0  0  0  0  0  0  0
   26.6788   21.4722   15.0875 H   0  0  0  0  0  0  0  0  0  0  0  0
   24.9385   16.3727   11.1232 H   0  0  0  0  0  0  0  0  0  0  0  0
   22.9983   14.6055   15.1926 H   0  0  0  0  0  0  0  0  0  0  0  0
   21.7240   15.8799   14.9926 H   0  0  0  0  0  0  0  0  0  0  0  0
   21.4236   12.8743   14.5640 H   0  0  0  0  0  0  0  0  0  0  0  0
   20.6593   13.8849   15.8391 H   0  0  0  0  0  0  0  0  0  0  0  0
   20.4307   12.8670   12.3925 H   0  0  0  0  0  0  0  0  0  0  0  0
   19.5031   14.3683   11.9314 H   0  0  0  0  0  0  0  0  0  0  0  0
   22.4068   15.4400    5.9793 H   0  0  0  0  0  0  0  0  0  0  0  0
  1  2  1  0
  2  3  1  0
  3  4  2  0
  4  5  1  0
  5  6  1  0
  6  7  2  0
  6  8  2  0
  6  9  1  0
  9 10  2  0
 10 11  1  0
 11 12  2  0
 12 13  1  0
 13 14  1  0
 14 15  2  0
 14 16  1  0
 16 17  1  0
 17 18  1  0
 18 19  1  0
 19 20  1  0
 20 21  2  0
 20 22  1  0
 22 23  1  0
 23 24  2  0
 13 25  2  0
 12 26  1  0
 26 27  1  0
 27 28  1  0
 28 29  1  0
  5 30  1  0
 30 31  2  0
 31  3  1  0
 25  9  1  0
 29 11  1  0
 23 17  1  0
  1 32  1  0
  1 33  1  0
  1 34  1  0
  2 35  1  0
  2 36  1  0
  4 37  1  0
 10 38  1  0
 16 39  1  0
 17 40  1  6
 18 41  1  0
 18 42  1  0
 19 43  1  0
 19 44  1  0
 22 45  1  0
 25 46  1  0
 26 47  1  0
 26 48  1  0
 27 49  1  0
 27 50  1  0
 29 51  1  0
 29 52  1  0
 30 53  1  0
M  END
>  <meeko>  (69) 
{"is_sidechain": [true], "free_energy": -11.42, "intermolecular_energy": 0.0, "internal_energy": -11.42, "cluster_size": 20, "cluster_id": 1, "rank_in_cluster": 1}

>  <_RMSD_MCS_to_ref>  (69) 
0.582556053573865

$$$$
ligand
     RDKit          3D

 46 49  0  0  0  0  0  0  0  0999 V2000
   18.9090   19.1540    7.5370 C   0  0  0  0  0  0  0  0  0  0  0  0
   18.7730   17.6460    7.6780 C   0  0  0  0  0  0  0  0  0  0  0  0
   20.0700   16.9440    7.4820 C   0  0  0  0  0  0  0  0  0  0  0  0
   20.9010   16.3750    8.4280 C   0  0  0  0  0  0  0  0  0  0  0  0
   21.9510   15.8910    7.7020 N   0  0  0  0  0  0  0  0  0  0  0  0
   23.1820   14.9000    8.2700 S   0  0  0  0  0  6  0  0  0  0  0  0
   22.5230   13.6780    8.6850 O   0  0  0  0  0  0  0  0  0  0  0  0
   24.2240   14.9110    7.2640 O   0  0  0  0  0  0  0  0  0  0  0  0
   23.7830   15.7380    9.7150 C   0  0  0  0  0  0  0  0  0  0  0  0
   24.9450   16.5170    9.5960 C   0  0  0  0  0  0  0  0  0  0  0  0
   25.4620   17.2000   10.6930 C   0  0  0  0  0  0  0  0  0  0  0  0
   24.8360   17.1360   11.9510 C   0  0  0  0  0  0  0  0  0  0  0  0
   25.4450   17.8900   13.0780 C   0  0  0  0  0  0  0  0  0  0  0  0
   26.6480   18.1340   13.0650 O   0  0  0  0  0  0  0  0  0  0  0  0
   24.6300   18.2800   14.1130 N   0  0  0  0  0  0  0  0  0  0  0  0
   25.1560   18.9460   15.2960 C   0  0  1  0  0  0  0  0  0  0  0  0
   26.2610   18.1320   15.9580 C   0  0  0  0  0  0  0  0  0  0  0  0
   26.7830   18.8790   17.1760 C   0  0  0  0  0  0  0  0  0  0  0  0
   27.2520   20.2670   16.8080 C   0  0  0  0  0  0  0  0  0  0  0  0
   28.1880   20.8170   17.3790 O   0  0  0  0  0  0  0  0  0  0  0  0
   26.5550   20.9080   15.8140 N   0  0  0  0  0  0  0  0  0  0  0  0
   25.7100   20.3200   14.9050 C   0  0  0  0  0  0  0  0  0  0  0  0
   25.4160   20.8910   13.8560 O   0  0  0  0  0  0  0  0  0  0  0  0
   23.6530   16.3740   12.0910 C   0  0  0  0  0  0  0  0  0  0  0  0
   22.8960   16.2100   13.2520 N   0  0  0  0  0  0  0  0  0  0  0  0
   21.8410   15.4450   13.0630 N   0  0  0  0  0  0  0  0  0  0  0  0
   21.7080   14.8990   11.5000 S   0  0  0  0  0  0  0  0  0  0  0  0
   23.1480   15.6940   10.9690 C   0  0  0  0  0  0  0  0  0  0  0  0
   21.7380   16.1440    6.3850 C   0  0  0  0  0  0  0  0  0  0  0  0
   20.5980   16.7800    6.2170 N   0  0  0  0  0  0  0  0  0  0  0  0
   18.9504   19.6134    8.5356 H   0  0  0  0  0  0  0  0  0  0  0  0
   19.8320   19.3891    6.9867 H   0  0  0  0  0  0  0  0  0  0  0  0
   18.0430   19.5504    6.9867 H   0  0  0  0  0  0  0  0  0  0  0  0
   18.3950   17.4171    8.6853 H   0  0  0  0  0  0  0  0  0  0  0  0
   18.0784   17.2954    6.9004 H   0  0  0  0  0  0  0  0  0  0  0  0
   20.7509   16.3237    9.5165 H   0  0  0  0  0  0  0  0  0  0  0  0
   25.4534   16.5885    8.6232 H   0  0  0  0  0  0  0  0  0  0  0  0
   26.3761   17.8003   10.5741 H   0  0  0  0  0  0  0  0  0  0  0  0
   23.6185   18.0961   14.0503 H   0  0  0  0  0  0  0  0  0  0  0  0
   24.3313   19.0539   16.0159 H   0  0  0  0  0  0  0  0  0  0  0  0
   25.8603   17.1564   16.2705 H   0  0  0  0  0  0  0  0  0  0  0  0
   27.0823   17.9797   15.2423 H   0  0  0  0  0  0  0  0  0  0  0  0
   25.9770   18.9585   17.9204 H   0  0  0  0  0  0  0  0  0  0  0  0
   27.6374   18.3208   17.5863 H   0  0  0  0  0  0  0  0  0  0  0  0
   26.6776   21.9282   15.7432 H   0  0  0  0  0  0  0  0  0  0  0  0
   22.4221   15.8576    5.5726 H   0  0  0  0  0  0  0  0  0  0  0  0
  1  2  1  0
  2  3  1  0
  3  4  2  0
  4  5  1  0
  5  6  1  0
  6  7  2  0
  6  8  2  0
  6  9  1  0
  9 10  2  0
 10 11  1  0
 11 12  2  0
 12 13  1  0
 13 14  2  0
 13 15  1  0
 15 16  1  0
 16 17  1  0
 17 18  1  0
 18 19  1  0
 19 20  2  0
 19 21  1  0
 21 22  1  0
 22 23  2  0
 12 24  1  0
 24 25  1  0
 25 26  2  0
 26 27  1  0
 27 28  1  0
  5 29  1  0
 29 30  2  0
 30  3  1  0
 28  9  1  0
 22 16  1  0
 28 24  2  0
  1 31  1  0
  1 32  1  0
  1 33  1  0
  2 34  1  0
  2 35  1  0
  4 36  1  0
 10 37  1  0
 11 38  1  0
 15 39  1  0
 16 40  1  1
 17 41  1  0
 17 42  1  0
 18 43  1  0
 18 44  1  0
 21 45  1  0
 29 46  1  0
M  END
>  <meeko>  (70) 
{"is_sidechain": [true], "free_energy": -11.42, "intermolecular_energy": 0.0, "internal_energy": -11.42, "cluster_size": 12, "cluster_id": 1, "rank_in_cluster": 1}

>  <_RMSD_MCS_to_ref>  (70) 
0.8804999211306672

$$$$
ligand
     RDKit          3D

 48 51  0  0  0  0  0  0  0  0999 V2000
   18.9090   19.1540    7.5370 C   0  0  0  0  0  0  0  0  0  0  0  0
   18.7730   17.6460    7.6780 C   0  0  0  0  0  0  0  0  0  0  0  0
   20.0350   16.9340    7.3360 C   0  0  0  0  0  0  0  0  0  0  0  0
   20.7440   16.0160    8.0830 C   0  0  0  0  0  0  0  0  0  0  0  0
   21.8080   15.6900    7.2920 N   0  0  0  0  0  0  0  0  0  0  0  0
   23.1130   14.7390    7.7510 S   0  0  0  0  0  6  0  0  0  0  0  0
   22.5550   13.4140    7.9450 O   0  0  0  0  0  0  0  0  0  0  0  0
   24.1710   14.9980    6.7960 O   0  0  0  0  0  0  0  0  0  0  0  0
   23.5860   15.3800    9.3130 C   0  0  0  0  0  0  0  0  0  0  0  0
   22.7730   15.1820   10.4540 C   0  0  0  0  0  0  0  0  0  0  0  0
   23.0930   15.6960   11.7470 C   0  0  0  0  0  0  0  0  0  0  0  0
   24.2610   16.4480   12.0230 C   0  0  0  0  0  0  0  0  0  0  0  0
   24.5400   16.9620   13.3790 C   0  0  0  0  0  0  0  0  0  0  0  0
   24.2870   16.2690   14.3580 O   0  0  0  0  0  0  0  0  0  0  0  0
   25.0760   18.2230   13.4710 N   0  0  0  0  0  0  0  0  0  0  0  0
   25.3010   18.8790   14.7460 C   0  0  1  0  0  0  0  0  0  0  0  0
   26.3570   18.1540   15.5760 C   0  0  0  0  0  0  0  0  0  0  0  0
   26.5570   18.8820   16.8950 C   0  0  0  0  0  0  0  0  0  0  0  0
   26.9200   20.3310   16.6700 C   0  0  0  0  0  0  0  0  0  0  0  0
   27.6690   20.9480   17.4230 O   0  0  0  0  0  0  0  0  0  0  0  0
   26.3420   20.9480   15.5910 N   0  0  0  0  0  0  0  0  0  0  0  0
   25.7560   20.3250   14.5150 C   0  0  0  0  0  0  0  0  0  0  0  0
   25.6010   20.9260   13.4520 O   0  0  0  0  0  0  0  0  0  0  0  0
   25.1020   16.6490   10.9070 C   0  0  0  0  0  0  0  0  0  0  0  0
   26.2780   17.2970   10.7980 N   0  0  0  0  0  0  0  0  0  0  0  0
   26.6380   17.1690    9.5100 N   0  0  0  0  0  0  0  0  0  0  0  0
   25.7520   16.4580    8.7520 C   0  0  0  0  0  0  0  0  0  0  0  0
   24.7410   16.1130    9.6070 C   0  0  0  0  0  0  0  0  0  0  0  0
   21.7330   16.3910    6.1330 C   0  0  0  0  0  0  0  0  0  0  0  0
   20.6680   17.1640    6.1290 N   0  0  0  0  0  0  0  0  0  0  0  0
   18.9504   19.6134    8.5356 H   0  0  0  0  0  0  0  0  0  0  0  0
   19.8320   19.3891    6.9867 H   0  0  0  0  0  0  0  0  0  0  0  0
   18.0430   19.5504    6.9867 H   0  0  0  0  0  0  0  0  0  0  0  0
   18.5037   17.4101    8.7181 H   0  0  0  0  0  0  0  0  0  0  0  0
   17.9946   17.3098    6.9773 H   0  0  0  0  0  0  0  0  0  0  0  0
   20.5063   15.6339    9.0868 H   0  0  0  0  0  0  0  0  0  0  0  0
   21.8457   14.6016   10.3388 H   0  0  0  0  0  0  0  0  0  0  0  0
   22.3947   15.4972   12.5734 H   0  0  0  0  0  0  0  0  0  0  0  0
   25.3271   18.7207   12.6049 H   0  0  0  0  0  0  0  0  0  0  0  0
   24.3505   18.8607   15.2994 H   0  0  0  0  0  0  0  0  0  0  0  0
   26.0243   17.1242   15.7730 H   0  0  0  0  0  0  0  0  0  0  0  0
   27.3070   18.1344   15.0219 H   0  0  0  0  0  0  0  0  0  0  0  0
   25.6251   18.8319   17.4773 H   0  0  0  0  0  0  0  0  0  0  0  0
   27.3810   18.3970   17.4389 H   0  0  0  0  0  0  0  0  0  0  0  0
   26.3473   21.9780   15.5861 H   0  0  0  0  0  0  0  0  0  0  0  0
   27.5057   17.5716    9.1279 H   0  0  0  0  0  0  0  0  0  0  0  0
   25.8337   16.2146    7.6824 H   0  0  0  0  0  0  0  0  0  0  0  0
   22.4609   16.3228    5.3111 H   0  0  0  0  0  0  0  0  0  0  0  0
  1  2  1  0
  2  3  1  0
  3  4  2  0
  4  5  1  0
  5  6  1  0
  6  7  2  0
  6  8  2  0
  6  9  1  0
  9 10  2  0
 10 11  1  0
 11 12  2  0
 12 13  1  0
 13 14  2  0
 13 15  1  0
 15 16  1  0
 16 17  1  0
 17 18  1  0
 18 19  1  0
 19 20  2  0
 19 21  1  0
 21 22  1  0
 22 23  2  0
 12 24  1  0
 24 25  2  0
 25 26  1  0
 26 27  1  0
 27 28  2  0
  5 29  1  0
 29 30  2  0
 30  3  1  0
 28  9  1  0
 22 16  1  0
 28 24  1  0
  1 31  1  0
  1 32  1  0
  1 33  1  0
  2 34  1  0
  2 35  1  0
  4 36  1  0
 10 37  1  0
 11 38  1  0
 15 39  1  0
 16 40  1  1
 17 41  1  0
 17 42  1  0
 18 43  1  0
 18 44  1  0
 21 45  1  0
 26 46  1  0
 27 47  1  0
 29 48  1  0
M  END
>  <meeko>  (71) 
{"is_sidechain": [true], "free_energy": -11.41, "intermolecular_energy": 0.0, "internal_energy": -11.41, "cluster_size": 15, "cluster_id": 1, "rank_in_cluster": 1}

>  <_RMSD_MCS_to_ref>  (71) 
0.7403184750122368

$$$$
ligand
     RDKit          3D

 48 51  0  0  0  0  0  0  0  0999 V2000
   18.9090   19.1540    7.5370 C   0  0  0  0  0  0  0  0  0  0  0  0
   18.7730   17.6460    7.6780 C   0  0  0  0  0  0  0  0  0  0  0  0
   20.0660   16.9420    7.4540 C   0  0  0  0  0  0  0  0  0  0  0  0
   20.8920   16.3280    8.3740 C   0  0  0  0  0  0  0  0  0  0  0  0
   21.9410   15.8720    7.6300 N   0  0  0  0  0  0  0  0  0  0  0  0
   23.1680   14.8600    8.1680 S   0  0  0  0  0  6  0  0  0  0  0  0
   24.3480   15.2050    7.4030 O   0  0  0  0  0  0  0  0  0  0  0  0
   22.5980   13.5240    8.1690 O   0  0  0  0  0  0  0  0  0  0  0  0
   23.4230   15.3400    9.8370 C   0  0  0  0  0  0  0  0  0  0  0  0
   24.3360   16.3430   10.1180 C   0  0  0  0  0  0  0  0  0  0  0  0
   24.6000   16.8110   11.3600 N   0  0  0  0  0  0  0  0  0  0  0  0
   23.9470   16.2590   12.4360 C   0  0  0  0  0  0  0  0  0  0  0  0
   24.2730   16.8240   13.7790 C   0  0  0  0  0  0  0  0  0  0  0  0
   23.9380   16.2850   14.8260 O   0  0  0  0  0  0  0  0  0  0  0  0
   24.9730   18.0110   13.7360 N   0  0  0  0  0  0  0  0  0  0  0  0
   25.2400   18.8040   14.9230 C   0  0  1  0  0  0  0  0  0  0  0  0
   26.1740   18.0850   15.8910 C   0  0  0  0  0  0  0  0  0  0  0  0
   26.4300   18.9720   17.1000 C   0  0  0  0  0  0  0  0  0  0  0  0
   26.9760   20.3180   16.6870 C   0  0  0  0  0  0  0  0  0  0  0  0
   27.7770   20.9430   17.3760 O   0  0  0  0  0  0  0  0  0  0  0  0
   26.5070   20.8360   15.5070 N   0  0  0  0  0  0  0  0  0  0  0  0
   25.8750   20.1350   14.5080 C   0  0  0  0  0  0  0  0  0  0  0  0
   25.8210   20.5810   13.3620 O   0  0  0  0  0  0  0  0  0  0  0  0
   23.0230   15.2160   12.2480 C   0  0  0  0  0  0  0  0  0  0  0  0
   22.1950   14.4260   13.1000 C   0  0  0  0  0  0  0  0  0  0  0  0
   21.5010   13.5330   12.3170 C   0  0  0  0  0  0  0  0  0  0  0  0
   21.8680   13.7400   11.0160 N   0  0  0  0  0  0  0  0  0  0  0  0
   22.7840   14.7700   10.9430 C   0  0  0  0  0  0  0  0  0  0  0  0
   21.7210   16.1640    6.3220 C   0  0  0  0  0  0  0  0  0  0  0  0
   20.5910   16.8240    6.1830 N   0  0  0  0  0  0  0  0  0  0  0  0
   18.9504   19.6134    8.5356 H   0  0  0  0  0  0  0  0  0  0  0  0
   19.8320   19.3891    6.9867 H   0  0  0  0  0  0  0  0  0  0  0  0
   18.0430   19.5504    6.9867 H   0  0  0  0  0  0  0  0  0  0  0  0
   18.4152   17.4157    8.6924 H   0  0  0  0  0  0  0  0  0  0  0  0
   18.0618   17.2979    6.9144 H   0  0  0  0  0  0  0  0  0  0  0  0
   20.7394   16.2290    9.4589 H   0  0  0  0  0  0  0  0  0  0  0  0
   24.8834   16.7892    9.2747 H   0  0  0  0  0  0  0  0  0  0  0  0
   25.3200   18.3484   12.8268 H   0  0  0  0  0  0  0  0  0  0  0  0
   24.2828   18.9728   15.4380 H   0  0  0  0  0  0  0  0  0  0  0  0
   25.7089   17.1436   16.2186 H   0  0  0  0  0  0  0  0  0  0  0  0
   27.1273   17.8666   15.3875 H   0  0  0  0  0  0  0  0  0  0  0  0
   25.4846   19.1199   17.6425 H   0  0  0  0  0  0  0  0  0  0  0  0
   27.1739   18.4777   17.7421 H   0  0  0  0  0  0  0  0  0  0  0  0
   26.6411   21.8459   15.3551 H   0  0  0  0  0  0  0  0  0  0  0  0
   22.1239   14.5156   14.1940 H   0  0  0  0  0  0  0  0  0  0  0  0
   20.7784   12.7845   12.6743 H   0  0  0  0  0  0  0  0  0  0  0  0
   21.5133   13.2062   10.2097 H   0  0  0  0  0  0  0  0  0  0  0  0
   22.3924   15.8879    5.4956 H   0  0  0  0  0  0  0  0  0  0  0  0
  1  2  1  0
  2  3  1  0
  3  4  2  0
  4  5  1  0
  5  6  1  0
  6  7  2  0
  6  8  2  0
  6  9  1  0
  9 10  2  0
 10 11  1  0
 11 12  2  0
 12 13  1  0
 13 14  2  0
 13 15  1  0
 15 16  1  0
 16 17  1  0
 17 18  1  0
 18 19  1  0
 19 20  2  0
 19 21  1  0
 21 22  1  0
 22 23  2  0
 12 24  1  0
 24 25  1  0
 25 26  2  0
 26 27  1  0
 27 28  1  0
  5 29  1  0
 29 30  2  0
 30  3  1  0
 28  9  1  0
 22 16  1  0
 28 24  2  0
  1 31  1  0
  1 32  1  0
  1 33  1  0
  2 34  1  0
  2 35  1  0
  4 36  1  0
 10 37  1  0
 15 38  1  0
 16 39  1  1
 17 40  1  0
 17 41  1  0
 18 42  1  0
 18 43  1  0
 21 44  1  0
 25 45  1  0
 26 46  1  0
 27 47  1  0
 29 48  1  0
M  END
>  <meeko>  (72) 
{"is_sidechain": [true], "free_energy": -11.41, "intermolecular_energy": 0.0, "internal_energy": -11.41, "cluster_size": 18, "cluster_id": 1, "rank_in_cluster": 1}

>  <_RMSD_MCS_to_ref>  (72) 
0.7163266635333976

$$$$
ligand
     RDKit          3D

 50 53  0  0  0  0  0  0  0  0999 V2000
   18.9090   19.1540    7.5370 C   0  0  0  0  0  0  0  0  0  0  0  0
   18.7730   17.6460    7.6780 C   0  0  0  0  0  0  0  0  0  0  0  0
   20.0380   16.9350    7.3450 C   0  0  0  0  0  0  0  0  0  0  0  0
   20.7300   16.0000    8.0880 C   0  0  0  0  0  0  0  0  0  0  0  0
   21.8010   15.6750    7.3030 N   0  0  0  0  0  0  0  0  0  0  0  0
   23.1170   14.7430    7.7710 S   0  0  0  0  0  6  0  0  0  0  0  0
   22.5460   13.4940    8.2350 O   0  0  0  0  0  0  0  0  0  0  0  0
   24.0420   14.8120    6.6550 O   0  0  0  0  0  0  0  0  0  0  0  0
   23.8910   15.5340    9.1620 C   0  0  0  0  0  0  0  0  0  0  0  0
   25.0610   16.2700    8.9780 C   0  0  0  0  0  0  0  0  0  0  0  0
   25.6160   16.8600   10.0840 C   0  0  0  0  0  0  0  0  0  0  0  0
   25.0900   16.7560   11.3190 N   0  0  0  0  0  0  0  0  0  0  0  0
   23.9530   16.0520   11.5290 C   0  0  0  0  0  0  0  0  0  0  0  0
   23.3960   15.9520   12.8200 C   0  0  0  0  0  0  0  0  0  0  0  0
   24.0030   16.6050   14.0280 C   0  0  0  0  0  0  0  0  0  0  0  0
   24.0120   16.0230   15.1100 O   0  0  0  0  0  0  0  0  0  0  0  0
   24.5450   17.8580   13.8780 N   0  0  0  0  0  0  0  0  0  0  0  0
   25.0140   18.6480   15.0030 C   0  0  1  0  0  0  0  0  0  0  0  0
   26.1110   17.9310   15.7850 C   0  0  0  0  0  0  0  0  0  0  0  0
   26.5690   18.8080   16.9390 C   0  0  0  0  0  0  0  0  0  0  0  0
   27.0240   20.1630   16.4490 C   0  0  0  0  0  0  0  0  0  0  0  0
   27.9290   20.7890   16.9920 O   0  0  0  0  0  0  0  0  0  0  0  0
   26.3500   20.6860   15.3760 N   0  0  0  0  0  0  0  0  0  0  0  0
   25.5600   19.9880   14.4930 C   0  0  0  0  0  0  0  0  0  0  0  0
   25.3100   20.4470   13.3800 O   0  0  0  0  0  0  0  0  0  0  0  0
   22.2120   15.2300   13.0470 C   0  0  0  0  0  0  0  0  0  0  0  0
   21.5710   14.5910   12.0010 C   0  0  0  0  0  0  0  0  0  0  0  0
   22.1070   14.6760   10.7220 C   0  0  0  0  0  0  0  0  0  0  0  0
   23.2980   15.4030   10.4530 C   0  0  0  0  0  0  0  0  0  0  0  0
   21.7530   16.4030    6.1580 C   0  0  0  0  0  0  0  0  0  0  0  0
   20.6960   17.1890    6.1580 N   0  0  0  0  0  0  0  0  0  0  0  0
   18.9504   19.6134    8.5356 H   0  0  0  0  0  0  0  0  0  0  0  0
   19.8320   19.3891    6.9867 H   0  0  0  0  0  0  0  0  0  0  0  0
   18.0430   19.5504    6.9867 H   0  0  0  0  0  0  0  0  0  0  0  0
   18.4968   17.4105    8.7164 H   0  0  0  0  0  0  0  0  0  0  0  0
   17.9995   17.3087    6.9724 H   0  0  0  0  0  0  0  0  0  0  0  0
   20.4775   15.6065    9.0837 H   0  0  0  0  0  0  0  0  0  0  0  0
   25.5208   16.3732    7.9840 H   0  0  0  0  0  0  0  0  0  0  0  0
   26.5370   17.4477    9.9561 H   0  0  0  0  0  0  0  0  0  0  0  0
   24.6220   18.2532   12.9300 H   0  0  0  0  0  0  0  0  0  0  0  0
   24.1603   18.8073   15.6781 H   0  0  0  0  0  0  0  0  0  0  0  0
   25.7192   16.9818   16.1793 H   0  0  0  0  0  0  0  0  0  0  0  0
   26.9626   17.7286   15.1188 H   0  0  0  0  0  0  0  0  0  0  0  0
   25.7329   18.9426   17.6410 H   0  0  0  0  0  0  0  0  0  0  0  0
   27.4173   18.3146   17.4358 H   0  0  0  0  0  0  0  0  0  0  0  0
   26.4444   21.6991   15.2158 H   0  0  0  0  0  0  0  0  0  0  0  0
   21.7925   15.1727   14.0623 H   0  0  0  0  0  0  0  0  0  0  0  0
   20.6469   14.0217   12.1799 H   0  0  0  0  0  0  0  0  0  0  0  0
   21.5944   14.1656    9.8933 H   0  0  0  0  0  0  0  0  0  0  0  0
   22.4921   16.3447    5.3454 H   0  0  0  0  0  0  0  0  0  0  0  0
  1  2  1  0
  2  3  1  0
  3  4  2  0
  4  5  1  0
  5  6  1  0
  6  7  2  0
  6  8  2  0
  6  9  1  0
  9 10  2  0
 10 11  1  0
 11 12  2  0
 12 13  1  0
 13 14  2  0
 14 15  1  0
 15 16  2  0
 15 17  1  0
 17 18  1  0
 18 19  1  0
 19 20  1  0
 20 21  1  0
 21 22  2  0
 21 23  1  0
 23 24  1  0
 24 25  2  0
 14 26  1  0
 26 27  2  0
 27 28  1  0
 28 29  2  0
  5 30  1  0
 30 31  2  0
 31  3  1  0
 29  9  1  0
 29 13  1  0
 24 18  1  0
  1 32  1  0
  1 33  1  0
  1 34  1  0
  2 35  1  0
  2 36  1  0
  4 37  1  0
 10 38  1  0
 11 39  1  0
 17 40  1  0
 18 41  1  1
 19 42  1  0
 19 43  1  0
 20 44  1  0
 20 45  1  0
 23 46  1  0
 26 47  1  0
 27 48  1  0
 28 49  1  0
 30 50  1  0
M  END
>  <meeko>  (73) 
{"is_sidechain": [true], "free_energy": -11.41, "intermolecular_energy": 0.0, "internal_energy": -11.41, "cluster_size": 12, "cluster_id": 1, "rank_in_cluster": 1}

>  <_RMSD_MCS_to_ref>  (73) 
0.4984125912445538

$$$$
ligand
     RDKit          3D

 55 59  0  0  0  0  0  0  0  0999 V2000
   18.8250   19.0170    7.5350 C   0  0  0  0  0  0  0  0  0  0  0  0
   18.5200   17.5420    7.7330 C   0  0  0  0  0  0  0  0  0  0  0  0
   19.7540   16.7140    7.7820 C   0  0  0  0  0  0  0  0  0  0  0  0
   20.2350   15.9360    8.8180 C   0  0  0  0  0  0  0  0  0  0  0  0
   21.3780   15.3870    8.3180 N   0  0  0  0  0  0  0  0  0  0  0  0
   22.4040   14.3180    9.1010 S   0  0  0  0  0  6  0  0  0  0  0  0
   21.5590   13.1790    9.4090 O   0  0  0  0  0  0  0  0  0  0  0  0
   23.5950   14.1880    8.2850 O   0  0  0  0  0  0  0  0  0  0  0  0
   22.8780   15.0940   10.6370 C   0  0  0  0  0  0  0  0  0  0  0  0
   21.8460   15.2500   11.6000 C   0  0  0  0  0  0  0  0  0  0  0  0
   22.1020   15.8320   12.8410 C   0  0  0  0  0  0  0  0  0  0  0  0
   23.3960   16.2320   13.0910 C   0  0  0  0  0  0  0  0  0  0  0  0
   24.4280   16.0830   12.1630 C   0  0  0  0  0  0  0  0  0  0  0  0
   24.2040   15.5120   10.9030 C   0  0  0  0  0  0  0  0  0  0  0  0
   25.3330   15.3900    9.9770 C   0  0  0  0  0  0  0  0  0  0  0  0
   25.6410   16.4170    9.0760 C   0  0  0  0  0  0  0  0  0  0  0  0
   26.7430   16.3030    8.2320 C   0  0  0  0  0  0  0  0  0  0  0  0
   27.5180   15.1610    8.3180 C   0  0  0  0  0  0  0  0  0  0  0  0
   27.2660   14.1530    9.1790 N   0  0  0  0  0  0  0  0  0  0  0  0
   26.1870   14.2880    9.9850 C   0  0  0  0  0  0  0  0  0  0  0  0
   25.6970   16.6240   12.7510 C   0  0  0  0  0  0  0  0  0  0  0  0
   25.3050   16.9890   14.1040 N   0  0  0  0  0  0  0  0  0  0  0  0
   26.1850   17.7850   14.9550 C   0  0  2  0  0  0  0  0  0  0  0  0
   25.7940   17.7730   16.4320 C   0  0  0  0  0  0  0  0  0  0  0  0
   26.8100   18.5800   17.2270 C   0  0  0  0  0  0  0  0  0  0  0  0
   26.9230   19.9910   16.7000 C   0  0  0  0  0  0  0  0  0  0  0  0
   27.3260   20.9190   17.3950 O   0  0  0  0  0  0  0  0  0  0  0  0
   26.6310   20.1790   15.3720 N   0  0  0  0  0  0  0  0  0  0  0  0
   26.2930   19.2280   14.4380 C   0  0  0  0  0  0  0  0  0  0  0  0
   26.1910   19.5310   13.2480 O   0  0  0  0  0  0  0  0  0  0  0  0
   23.9400   16.8620   14.2980 C   0  0  0  0  0  0  0  0  0  0  0  0
   23.2720   17.2100   15.2520 O   0  0  0  0  0  0  0  0  0  0  0  0
   21.5930   15.8590    7.0630 C   0  0  0  0  0  0  0  0  0  0  0  0
   20.6020   16.6430    6.6930 N   0  0  0  0  0  0  0  0  0  0  0  0
   18.9260   19.5054    8.5155 H   0  0  0  0  0  0  0  0  0  0  0  0
   19.7645   19.1250    6.9731 H   0  0  0  0  0  0  0  0  0  0  0  0
   18.0054   19.4887    6.9731 H   0  0  0  0  0  0  0  0  0  0  0  0
   17.9723   17.4175    8.6788 H   0  0  0  0  0  0  0  0  0  0  0  0
   17.9205   17.2034    6.8751 H   0  0  0  0  0  0  0  0  0  0  0  0
   19.7963   15.7928    9.8165 H   0  0  0  0  0  0  0  0  0  0  0  0
   20.8283   14.9062   11.3631 H   0  0  0  0  0  0  0  0  0  0  0  0
   21.3054   15.9658   13.5876 H   0  0  0  0  0  0  0  0  0  0  0  0
   25.0101   17.3172    9.0348 H   0  0  0  0  0  0  0  0  0  0  0  0
   26.9904   17.1004    7.5158 H   0  0  0  0  0  0  0  0  0  0  0  0
   28.3862   15.0694    7.6488 H   0  0  0  0  0  0  0  0  0  0  0  0
   25.9696   13.4747   10.6930 H   0  0  0  0  0  0  0  0  0  0  0  0
   26.4855   15.8571   12.7617 H   0  0  0  0  0  0  0  0  0  0  0  0
   26.1133   17.4666   12.1795 H   0  0  0  0  0  0  0  0  0  0  0  0
   27.1714   17.3018   14.8957 H   0  0  0  0  0  0  0  0  0  0  0  0
   24.7956   18.2190   16.5516 H   0  0  0  0  0  0  0  0  0  0  0  0
   25.7765   16.7367   16.8005 H   0  0  0  0  0  0  0  0  0  0  0  0
   26.4948   18.6150   18.2803 H   0  0  0  0  0  0  0  0  0  0  0  0
   27.7919   18.0936   17.1308 H   0  0  0  0  0  0  0  0  0  0  0  0
   26.6698   21.1511   15.0338 H   0  0  0  0  0  0  0  0  0  0  0  0
   22.4702   15.6203    6.4437 H   0  0  0  0  0  0  0  0  0  0  0  0
  1  2  1  0
  2  3  1  0
  3  4  2  0
  4  5  1  0
  5  6  1  0
  6  7  2  0
  6  8  2  0
  6  9  1  0
  9 10  2  0
 10 11  1  0
 11 12  2  0
 12 13  1  0
 13 14  2  0
 14 15  1  0
 15 16  2  0
 16 17  1  0
 17 18  2  0
 18 19  1  0
 19 20  2  0
 13 21  1  0
 21 22  1  0
 22 23  1  0
 23 24  1  0
 24 25  1  0
 25 26  1  0
 26 27  2  0
 26 28  1  0
 28 29  1  0
 29 30  2  0
 22 31  1  0
 31 32  2  0
  5 33  1  0
 33 34  2  0
 34  3  1  0
 14  9  1  0
 20 15  1  0
 29 23  1  0
 31 12  1  0
  1 35  1  0
  1 36  1  0
  1 37  1  0
  2 38  1  0
  2 39  1  0
  4 40  1  0
 10 41  1  0
 11 42  1  0
 16 43  1  0
 17 44  1  0
 18 45  1  0
 20 46  1  0
 21 47  1  0
 21 48  1  0
 23 49  1  1
 24 50  1  0
 24 51  1  0
 25 52  1  0
 25 53  1  0
 28 54  1  0
 33 55  1  0
M  END
>  <meeko>  (74) 
{"is_sidechain": [true], "free_energy": -11.4, "intermolecular_energy": 0.0, "internal_energy": -11.4, "cluster_size": 10, "cluster_id": 1, "rank_in_cluster": 1}

>  <_RMSD_MCS_to_ref>  (74) 
0.9564914473683959

$$$$
ligand
     RDKit          3D

 47 50  0  0  0  0  0  0  0  0999 V2000
   18.7970   18.8170    7.7190 C   0  0  0  0  0  0  0  0  0  0  0  0
   18.5280   17.3290    7.8810 C   0  0  0  0  0  0  0  0  0  0  0  0
   19.7840   16.5320    7.9190 C   0  0  0  0  0  0  0  0  0  0  0  0
   20.0930   15.4320    8.6970 C   0  0  0  0  0  0  0  0  0  0  0  0
   21.3570   15.0950    8.3090 N   0  0  0  0  0  0  0  0  0  0  0  0
   22.3370   13.9560    9.0560 S   0  0  0  0  0  6  0  0  0  0  0  0
   23.1590   13.3650    8.0220 O   0  0  0  0  0  0  0  0  0  0  0  0
   21.4550   13.1760    9.9060 O   0  0  0  0  0  0  0  0  0  0  0  0
   23.3810   14.9020   10.1270 C   0  0  0  0  0  0  0  0  0  0  0  0
   24.6150   15.3820    9.6690 C   0  0  0  0  0  0  0  0  0  0  0  0
   25.4440   16.1350   10.5100 C   0  0  0  0  0  0  0  0  0  0  0  0
   25.0740   16.4310   11.8400 C   0  0  0  0  0  0  0  0  0  0  0  0
   25.9860   17.2340   12.6890 C   0  0  0  0  0  0  0  0  0  0  0  0
   26.9080   17.8570   12.1720 O   0  0  0  0  0  0  0  0  0  0  0  0
   25.7480   17.2530   14.0420 N   0  0  0  0  0  0  0  0  0  0  0  0
   26.5450   18.0670   14.9480 C   0  0  2  0  0  0  0  0  0  0  0  0
   26.1670   17.8210   16.4050 C   0  0  0  0  0  0  0  0  0  0  0  0
   27.0180   18.7010   17.3060 C   0  0  0  0  0  0  0  0  0  0  0  0
   26.8870   20.1590   16.9320 C   0  0  0  0  0  0  0  0  0  0  0  0
   26.9590   21.0590   17.7630 O   0  0  0  0  0  0  0  0  0  0  0  0
   26.7190   20.4380   15.6010 N   0  0  0  0  0  0  0  0  0  0  0  0
   26.3470   19.5510   14.6190 C   0  0  0  0  0  0  0  0  0  0  0  0
   25.9060   19.9510   13.5440 O   0  0  0  0  0  0  0  0  0  0  0  0
   23.8460   15.9330   12.3080 C   0  0  0  0  0  0  0  0  0  0  0  0
   23.2220   16.0330   13.5260 N   0  0  0  0  0  0  0  0  0  0  0  0
   22.0730   15.3740   13.4660 N   0  0  0  0  0  0  0  0  0  0  0  0
   21.9650   14.8590   12.2330 N   0  0  0  0  0  0  0  0  0  0  0  0
   23.0430   15.1870   11.4540 C   0  0  0  0  0  0  0  0  0  0  0  0
   21.7910   15.9800    7.3760 C   0  0  0  0  0  0  0  0  0  0  0  0
   20.8540   16.8660    7.1120 N   0  0  0  0  0  0  0  0  0  0  0  0
   18.8815   19.2845    8.7111 H   0  0  0  0  0  0  0  0  0  0  0  0
   19.7359   18.9616    7.1643 H   0  0  0  0  0  0  0  0  0  0  0  0
   17.9682   19.2812    7.1643 H   0  0  0  0  0  0  0  0  0  0  0  0
   17.9780   17.1685    8.8200 H   0  0  0  0  0  0  0  0  0  0  0  0
   17.9421   16.9950    7.0120 H   0  0  0  0  0  0  0  0  0  0  0  0
   19.4645   14.9412    9.4547 H   0  0  0  0  0  0  0  0  0  0  0  0
   24.9357   15.1654    8.6393 H   0  0  0  0  0  0  0  0  0  0  0  0
   26.4060   16.5045   10.1253 H   0  0  0  0  0  0  0  0  0  0  0  0
   24.9856   16.6761   14.4253 H   0  0  0  0  0  0  0  0  0  0  0  0
   27.5995   17.7846   14.8132 H   0  0  0  0  0  0  0  0  0  0  0  0
   25.1044   18.0633   16.5538 H   0  0  0  0  0  0  0  0  0  0  0  0
   26.3412   16.7641   16.6550 H   0  0  0  0  0  0  0  0  0  0  0  0
   26.6923   18.5678   18.3482 H   0  0  0  0  0  0  0  0  0  0  0  0
   28.0707   18.4051   17.1863 H   0  0  0  0  0  0  0  0  0  0  0  0
   26.8886   21.4104   15.3067 H   0  0  0  0  0  0  0  0  0  0  0  0
   21.1705   14.2878   11.9115 H   0  0  0  0  0  0  0  0  0  0  0  0
   22.7856   15.9597    6.9066 H   0  0  0  0  0  0  0  0  0  0  0  0
  1  2  1  0
  2  3  1  0
  3  4  2  0
  4  5  1  0
  5  6  1  0
  6  7  2  0
  6  8  2  0
  6  9  1  0
  9 10  2  0
 10 11  1  0
 11 12  2  0
 12 13  1  0
 13 14  2  0
 13 15  1  0
 15 16  1  0
 16 17  1  0
 17 18  1  0
 18 19  1  0
 19 20  2  0
 19 21  1  0
 21 22  1  0
 22 23  2  0
 12 24  1  0
 24 25  1  0
 25 26  2  0
 26 27  1  0
 27 28  1  0
  5 29  1  0
 29 30  2  0
 30  3  1  0
 28  9  1  0
 22 16  1  0
 28 24  2  0
  1 31  1  0
  1 32  1  0
  1 33  1  0
  2 34  1  0
  2 35  1  0
  4 36  1  0
 10 37  1  0
 11 38  1  0
 15 39  1  0
 16 40  1  1
 17 41  1  0
 17 42  1  0
 18 43  1  0
 18 44  1  0
 21 45  1  0
 27 46  1  0
 29 47  1  0
M  END
>  <meeko>  (75) 
{"is_sidechain": [true], "free_energy": -11.4, "intermolecular_energy": 0.0, "internal_energy": -11.4, "cluster_size": 11, "cluster_id": 1, "rank_in_cluster": 1}

>  <_RMSD_MCS_to_ref>  (75) 
0.8954072319962085

$$$$
ligand
     RDKit          3D

 48 51  0  0  0  0  0  0  0  0999 V2000
   18.9090   19.1540    7.5370 C   0  0  0  0  0  0  0  0  0  0  0  0
   18.7730   17.6460    7.6780 C   0  0  0  0  0  0  0  0  0  0  0  0
   20.0470   16.9370    7.3780 C   0  0  0  0  0  0  0  0  0  0  0  0
   20.9280   16.3260    8.2490 C   0  0  0  0  0  0  0  0  0  0  0  0
   21.9320   15.8680    7.4430 N   0  0  0  0  0  0  0  0  0  0  0  0
   23.1640   14.8160    7.9120 S   0  0  0  0  0  6  0  0  0  0  0  0
   23.9070   14.5840    6.6860 O   0  0  0  0  0  0  0  0  0  0  0  0
   22.4680   13.7230    8.5660 O   0  0  0  0  0  0  0  0  0  0  0  0
   24.2090   15.5780    9.0600 C   0  0  0  0  0  0  0  0  0  0  0  0
   25.4330   16.0300    8.7160 C   0  0  0  0  0  0  0  0  0  0  0  0
   26.2620   16.6680    9.7280 C   0  0  0  0  0  0  0  0  0  0  0  0
   25.8400   16.8210   10.9950 C   0  0  0  0  0  0  0  0  0  0  0  0
   24.5480   16.3520   11.3610 C   0  0  0  0  0  0  0  0  0  0  0  0
   23.7880   16.3320   12.5160 C   0  0  0  0  0  0  0  0  0  0  0  0
   24.1520   16.8470   13.8360 C   0  0  0  0  0  0  0  0  0  0  0  0
   23.9320   16.2550   14.8880 O   0  0  0  0  0  0  0  0  0  0  0  0
   24.7610   18.0780   13.7780 N   0  0  0  0  0  0  0  0  0  0  0  0
   25.0720   18.8520   14.9630 C   0  0  1  0  0  0  0  0  0  0  0  0
   26.0380   18.1160   15.8850 C   0  0  0  0  0  0  0  0  0  0  0  0
   26.3400   18.9790   17.1000 C   0  0  0  0  0  0  0  0  0  0  0  0
   26.8760   20.3310   16.6930 C   0  0  0  0  0  0  0  0  0  0  0  0
   27.6910   20.9470   17.3720 O   0  0  0  0  0  0  0  0  0  0  0  0
   26.3770   20.8650   15.5320 N   0  0  0  0  0  0  0  0  0  0  0  0
   25.6950   20.1900   14.5490 C   0  0  0  0  0  0  0  0  0  0  0  0
   25.5840   20.6650   13.4190 O   0  0  0  0  0  0  0  0  0  0  0  0
   22.5650   15.7280   12.2660 N   0  0  0  0  0  0  0  0  0  0  0  0
   22.5900   15.3920   10.9940 C   0  0  0  0  0  0  0  0  0  0  0  0
   23.7700   15.7430   10.3790 N   0  0  0  0  0  0  0  0  0  0  0  0
   21.6310   16.1550    6.1490 C   0  0  0  0  0  0  0  0  0  0  0  0
   20.4880   16.8030    6.0760 N   0  0  0  0  0  0  0  0  0  0  0  0
   18.9504   19.6134    8.5356 H   0  0  0  0  0  0  0  0  0  0  0  0
   19.8320   19.3891    6.9867 H   0  0  0  0  0  0  0  0  0  0  0  0
   18.0430   19.5504    6.9867 H   0  0  0  0  0  0  0  0  0  0  0  0
   18.4718   17.4122    8.7098 H   0  0  0  0  0  0  0  0  0  0  0  0
   18.0180   17.3055    6.9541 H   0  0  0  0  0  0  0  0  0  0  0  0
   20.8412   16.2301    9.3414 H   0  0  0  0  0  0  0  0  0  0  0  0
   25.7993   15.9178    7.6848 H   0  0  0  0  0  0  0  0  0  0  0  0
   27.2607   17.0348    9.4485 H   0  0  0  0  0  0  0  0  0  0  0  0
   26.4875   17.3042   11.7415 H   0  0  0  0  0  0  0  0  0  0  0  0
   25.0060   18.4656   12.8557 H   0  0  0  0  0  0  0  0  0  0  0  0
   24.1333   19.0157   15.5125 H   0  0  0  0  0  0  0  0  0  0  0  0
   25.5827   17.1696   16.2121 H   0  0  0  0  0  0  0  0  0  0  0  0
   26.9725   17.9070   15.3437 H   0  0  0  0  0  0  0  0  0  0  0  0
   25.4151   19.1196   17.6785 H   0  0  0  0  0  0  0  0  0  0  0  0
   27.1044   18.4704   17.7058 H   0  0  0  0  0  0  0  0  0  0  0  0
   26.5289   21.8727   15.3824 H   0  0  0  0  0  0  0  0  0  0  0  0
   21.7596   14.8865   10.4792 H   0  0  0  0  0  0  0  0  0  0  0  0
   22.2549   15.8838    5.2846 H   0  0  0  0  0  0  0  0  0  0  0  0
  1  2  1  0
  2  3  1  0
  3  4  2  0
  4  5  1  0
  5  6  1  0
  6  7  2  0
  6  8  2  0
  6  9  1  0
  9 10  2  0
 10 11  1  0
 11 12  2  0
 12 13  1  0
 13 14  2  0
 14 15  1  0
 15 16  2  0
 15 17  1  0
 17 18  1  0
 18 19  1  0
 19 20  1  0
 20 21  1  0
 21 22  2  0
 21 23  1  0
 23 24  1  0
 24 25  2  0
 14 26  1  0
 26 27  2  0
 27 28  1  0
  5 29  1  0
 29 30  2  0
 30  3  1  0
 28  9  1  0
 28 13  1  0
 24 18  1  0
  1 31  1  0
  1 32  1  0
  1 33  1  0
  2 34  1  0
  2 35  1  0
  4 36  1  0
 10 37  1  0
 11 38  1  0
 12 39  1  0
 17 40  1  0
 18 41  1  1
 19 42  1  0
 19 43  1  0
 20 44  1  0
 20 45  1  0
 23 46  1  0
 27 47  1  0
 29 48  1  0
M  END
>  <meeko>  (76) 
{"is_sidechain": [true], "free_energy": -11.4, "intermolecular_energy": 0.0, "internal_energy": -11.4, "cluster_size": 15, "cluster_id": 1, "rank_in_cluster": 1}

>  <_RMSD_MCS_to_ref>  (76) 
0.6440276909160555

$$$$
ligand
     RDKit          3D

 53 57  0  0  0  0  0  0  0  0999 V2000
   18.7970   18.8170    7.7190 C   0  0  0  0  0  0  0  0  0  0  0  0
   18.5280   17.3290    7.8810 C   0  0  0  0  0  0  0  0  0  0  0  0
   19.7790   16.5250    7.8350 C   0  0  0  0  0  0  0  0  0  0  0  0
   20.3080   15.6850    8.7950 C   0  0  0  0  0  0  0  0  0  0  0  0
   21.4620   15.2180    8.2350 N   0  0  0  0  0  0  0  0  0  0  0  0
   22.4090   13.9650    8.8330 S   0  0  0  0  0  6  0  0  0  0  0  0
   23.5960   13.9250    8.0010 O   0  0  0  0  0  0  0  0  0  0  0  0
   21.5140   12.8330    8.9720 O   0  0  0  0  0  0  0  0  0  0  0  0
   22.8750   14.5330   10.4450 C   0  0  0  0  0  0  0  0  0  0  0  0
   24.0110   15.3310   10.5950 C   0  0  0  0  0  0  0  0  0  0  0  0
   24.3220   15.7270   11.8820 C   0  0  0  0  0  0  0  0  0  0  0  0
   23.5570   15.3780   12.9960 C   0  0  0  0  0  0  0  0  0  0  0  0
   22.4160   14.5970   12.8500 C   0  0  0  0  0  0  0  0  0  0  0  0
   21.5900   14.2320   13.9960 C   0  0  0  0  0  0  0  0  0  0  0  0
   21.2000   12.9760   14.4180 C   0  0  0  0  0  0  0  0  0  0  0  0
   20.3740   13.0260   15.5790 C   0  0  0  0  0  0  0  0  0  0  0  0
   20.1600   14.3180   16.0030 C   0  0  0  0  0  0  0  0  0  0  0  0
   20.9500   15.4610   15.0060 S   0  0  0  0  0  0  0  0  0  0  0  0
   22.0760   14.1780   11.5530 C   0  0  0  0  0  0  0  0  0  0  0  0
   24.1640   15.9650   14.2290 C   0  0  0  0  0  0  0  0  0  0  0  0
   25.3720   16.6000   13.7190 N   0  0  0  0  0  0  0  0  0  0  0  0
   26.1770   17.5360   14.4970 C   0  0  2  0  0  0  0  0  0  0  0  0
   25.9740   17.3730   16.0000 C   0  0  0  0  0  0  0  0  0  0  0  0
   26.9030   18.3220   16.7420 C   0  0  0  0  0  0  0  0  0  0  0  0
   26.6940   19.7510   16.2930 C   0  0  0  0  0  0  0  0  0  0  0  0
   26.7710   20.6990   17.0670 O   0  0  0  0  0  0  0  0  0  0  0  0
   26.4260   19.9410   14.9620 N   0  0  0  0  0  0  0  0  0  0  0  0
   25.8950   18.9990   14.1120 C   0  0  0  0  0  0  0  0  0  0  0  0
   25.2350   19.3440   13.1340 O   0  0  0  0  0  0  0  0  0  0  0  0
   25.4490   16.5460   12.3370 C   0  0  0  0  0  0  0  0  0  0  0  0
   26.2730   17.0600   11.6070 O   0  0  0  0  0  0  0  0  0  0  0  0
   21.5860   15.7280    6.9820 C   0  0  0  0  0  0  0  0  0  0  0  0
   20.5820   16.5350    6.7110 N   0  0  0  0  0  0  0  0  0  0  0  0
   18.8815   19.2845    8.7111 H   0  0  0  0  0  0  0  0  0  0  0  0
   19.7359   18.9616    7.1643 H   0  0  0  0  0  0  0  0  0  0  0  0
   17.9682   19.2812    7.1643 H   0  0  0  0  0  0  0  0  0  0  0  0
   18.0342   17.1614    8.8496 H   0  0  0  0  0  0  0  0  0  0  0  0
   17.8885   17.0078    7.0456 H   0  0  0  0  0  0  0  0  0  0  0  0
   19.8937   15.4465    9.7857 H   0  0  0  0  0  0  0  0  0  0  0  0
   24.6265   15.6290    9.7334 H   0  0  0  0  0  0  0  0  0  0  0  0
   21.4935   12.0427   13.9152 H   0  0  0  0  0  0  0  0  0  0  0  0
   19.9573   12.1379   16.0767 H   0  0  0  0  0  0  0  0  0  0  0  0
   19.5521   14.5841   16.8803 H   0  0  0  0  0  0  0  0  0  0  0  0
   21.1755   13.5654   11.3989 H   0  0  0  0  0  0  0  0  0  0  0  0
   23.4914   16.7037   14.6894 H   0  0  0  0  0  0  0  0  0  0  0  0
   24.3600   15.2218   15.0159 H   0  0  0  0  0  0  0  0  0  0  0  0
   27.2218   17.2924   14.2539 H   0  0  0  0  0  0  0  0  0  0  0  0
   24.9301   17.6062   16.2566 H   0  0  0  0  0  0  0  0  0  0  0  0
   26.1997   16.3364   16.2906 H   0  0  0  0  0  0  0  0  0  0  0  0
   26.7014   18.2514   17.8211 H   0  0  0  0  0  0  0  0  0  0  0  0
   27.9423   18.0356   16.5231 H   0  0  0  0  0  0  0  0  0  0  0  0
   26.6403   20.8670   14.5652 H   0  0  0  0  0  0  0  0  0  0  0  0
   22.4102   15.4986    6.2905 H   0  0  0  0  0  0  0  0  0  0  0  0
  1  2  1  0
  2  3  1  0
  3  4  2  0
  4  5  1  0
  5  6  1  0
  6  7  2  0
  6  8  2  0
  6  9  1  0
  9 10  2  0
 10 11  1  0
 11 12  2  0
 12 13  1  0
 13 14  1  0
 14 15  2  0
 15 16  1  0
 16 17  2  0
 17 18  1  0
 13 19  2  0
 12 20  1  0
 20 21  1  0
 21 22  1  0
 22 23  1  0
 23 24  1  0
 24 25  1  0
 25 26  2  0
 25 27  1  0
 27 28  1  0
 28 29  2  0
 21 30  1  0
 30 31  2  0
  5 32  1  0
 32 33  2  0
 33  3  1  0
 19  9  1  0
 28 22  1  0
 30 11  1  0
 18 14  1  0
  1 34  1  0
  1 35  1  0
  1 36  1  0
  2 37  1  0
  2 38  1  0
  4 39  1  0
 10 40  1  0
 15 41  1  0
 16 42  1  0
 17 43  1  0
 19 44  1  0
 20 45  1  0
 20 46  1  0
 22 47  1  1
 23 48  1  0
 23 49  1  0
 24 50  1  0
 24 51  1  0
 27 52  1  0
 32 53  1  0
M  END
>  <meeko>  (77) 
{"is_sidechain": [true], "free_energy": -11.39, "intermolecular_energy": 0.0, "internal_energy": -11.39, "cluster_size": 18, "cluster_id": 1, "rank_in_cluster": 1}

>  <_RMSD_MCS_to_ref>  (77) 
1.9762011537290427

$$$$
ligand
     RDKit          3D

 47 50  0  0  0  0  0  0  0  0999 V2000
   18.9090   19.1540    7.5370 C   0  0  0  0  0  0  0  0  0  0  0  0
   18.7730   17.6460    7.6780 C   0  0  0  0  0  0  0  0  0  0  0  0
   20.0610   16.9410    7.4370 C   0  0  0  0  0  0  0  0  0  0  0  0
   20.9290   16.3770    8.3520 C   0  0  0  0  0  0  0  0  0  0  0  0
   21.9510   15.8900    7.5870 N   0  0  0  0  0  0  0  0  0  0  0  0
   23.2010   14.9150    8.1340 S   0  0  0  0  0  6  0  0  0  0  0  0
   24.2210   14.9670    7.1020 O   0  0  0  0  0  0  0  0  0  0  0  0
   22.6000   13.6760    8.5840 O   0  0  0  0  0  0  0  0  0  0  0  0
   23.8470   15.7670    9.5430 C   0  0  0  0  0  0  0  0  0  0  0  0
   25.0300   16.5110    9.4380 C   0  0  0  0  0  0  0  0  0  0  0  0
   25.5490   17.1840   10.5510 C   0  0  0  0  0  0  0  0  0  0  0  0
   24.9040   17.1450   11.8050 C   0  0  0  0  0  0  0  0  0  0  0  0
   25.4950   17.8740   12.9530 C   0  0  0  0  0  0  0  0  0  0  0  0
   26.7010   18.0960   12.9760 O   0  0  0  0  0  0  0  0  0  0  0  0
   24.6520   18.2690   13.9630 N   0  0  0  0  0  0  0  0  0  0  0  0
   25.1490   18.9260   15.1630 C   0  0  1  0  0  0  0  0  0  0  0  0
   26.2260   18.0940   15.8530 C   0  0  0  0  0  0  0  0  0  0  0  0
   26.7190   18.8260   17.0910 C   0  0  0  0  0  0  0  0  0  0  0  0
   27.2140   20.2120   16.7480 C   0  0  0  0  0  0  0  0  0  0  0  0
   28.1320   20.7510   17.3580 O   0  0  0  0  0  0  0  0  0  0  0  0
   26.5600   20.8650   15.7340 N   0  0  0  0  0  0  0  0  0  0  0  0
   25.7270   20.2980   14.8010 C   0  0  0  0  0  0  0  0  0  0  0  0
   25.4590   20.8880   13.7550 O   0  0  0  0  0  0  0  0  0  0  0  0
   23.7040   16.4190   11.9070 C   0  0  0  0  0  0  0  0  0  0  0  0
   22.8510   16.2040   12.9600 N   0  0  0  0  0  0  0  0  0  0  0  0
   21.8450   15.4500   12.5380 N   0  0  0  0  0  0  0  0  0  0  0  0
   22.0490   15.1890   11.2390 N   0  0  0  0  0  0  0  0  0  0  0  0
   23.2100   15.7610   10.7880 C   0  0  0  0  0  0  0  0  0  0  0  0
   21.6780   16.1210    6.2780 C   0  0  0  0  0  0  0  0  0  0  0  0
   20.5360   16.7630    6.1520 N   0  0  0  0  0  0  0  0  0  0  0  0
   18.9504   19.6134    8.5356 H   0  0  0  0  0  0  0  0  0  0  0  0
   19.8320   19.3891    6.9867 H   0  0  0  0  0  0  0  0  0  0  0  0
   18.0430   19.5504    6.9867 H   0  0  0  0  0  0  0  0  0  0  0  0
   18.4278   17.4151    8.6966 H   0  0  0  0  0  0  0  0  0  0  0  0
   18.0518   17.2997    6.9230 H   0  0  0  0  0  0  0  0  0  0  0  0
   20.8219   16.3306    9.4458 H   0  0  0  0  0  0  0  0  0  0  0  0
   25.5553   16.5668    8.4732 H   0  0  0  0  0  0  0  0  0  0  0  0
   26.4821   17.7568   10.4449 H   0  0  0  0  0  0  0  0  0  0  0  0
   23.6411   18.0956   13.8687 H   0  0  0  0  0  0  0  0  0  0  0  0
   24.3033   19.0414   15.8569 H   0  0  0  0  0  0  0  0  0  0  0  0
   25.8054   17.1208   16.1461 H   0  0  0  0  0  0  0  0  0  0  0  0
   27.0668   17.9377   15.1612 H   0  0  0  0  0  0  0  0  0  0  0  0
   25.8920   18.9089   17.8115 H   0  0  0  0  0  0  0  0  0  0  0  0
   27.5548   18.2554   17.5222 H   0  0  0  0  0  0  0  0  0  0  0  0
   26.7086   21.8819   15.6657 H   0  0  0  0  0  0  0  0  0  0  0  0
   21.4131   14.6290   10.6534 H   0  0  0  0  0  0  0  0  0  0  0  0
   22.3210   15.8146    5.4397 H   0  0  0  0  0  0  0  0  0  0  0  0
  1  2  1  0
  2  3  1  0
  3  4  2  0
  4  5  1  0
  5  6  1  0
  6  7  2  0
  6  8  2  0
  6  9  1  0
  9 10  2  0
 10 11  1  0
 11 12  2  0
 12 13  1  0
 13 14  2  0
 13 15  1  0
 15 16  1  0
 16 17  1  0
 17 18  1  0
 18 19  1  0
 19 20  2  0
 19 21  1  0
 21 22  1  0
 22 23  2  0
 12 24  1  0
 24 25  1  0
 25 26  2  0
 26 27  1  0
 27 28  1  0
  5 29  1  0
 29 30  2  0
 30  3  1  0
 28  9  1  0
 22 16  1  0
 28 24  2  0
  1 31  1  0
  1 32  1  0
  1 33  1  0
  2 34  1  0
  2 35  1  0
  4 36  1  0
 10 37  1  0
 11 38  1  0
 15 39  1  0
 16 40  1  1
 17 41  1  0
 17 42  1  0
 18 43  1  0
 18 44  1  0
 21 45  1  0
 27 46  1  0
 29 47  1  0
M  END
>  <meeko>  (78) 
{"is_sidechain": [true], "free_energy": -11.39, "intermolecular_energy": 0.0, "internal_energy": -11.39, "cluster_size": 12, "cluster_id": 1, "rank_in_cluster": 1}

>  <_RMSD_MCS_to_ref>  (78) 
0.8134860512360095

$$$$
ligand
     RDKit          3D

 50 53  0  0  0  0  0  0  0  0999 V2000
   18.9090   19.1540    7.5370 C   0  0  0  0  0  0  0  0  0  0  0  0
   18.7730   17.6460    7.6780 C   0  0  0  0  0  0  0  0  0  0  0  0
   20.0860   16.9520    7.5910 C   0  0  0  0  0  0  0  0  0  0  0  0
   20.9460   16.5920    8.6100 C   0  0  0  0  0  0  0  0  0  0  0  0
   21.9810   15.9710    7.9700 N   0  0  0  0  0  0  0  0  0  0  0  0
   23.4390   15.5110    8.6660 S   0  0  0  0  0  6  0  0  0  0  0  0
   23.6640   14.1350    8.2720 O   0  0  0  0  0  0  0  0  0  0  0  0
   24.3730   16.5740    8.3500 O   0  0  0  0  0  0  0  0  0  0  0  0
   23.1150   15.5430   10.4070 C   0  0  0  0  0  0  0  0  0  0  0  0
   23.8370   16.4040   11.2280 C   0  0  0  0  0  0  0  0  0  0  0  0
   23.5820   16.4380   12.6120 C   0  0  0  0  0  0  0  0  0  0  0  0
   24.4270   17.3820   13.4120 C   0  0  0  0  0  0  0  0  0  0  0  0
   25.5660   17.6470   13.0390 O   0  0  0  0  0  0  0  0  0  0  0  0
   23.8880   17.9220   14.5520 N   0  0  0  0  0  0  0  0  0  0  0  0
   24.6610   18.7330   15.4750 C   0  0  1  0  0  0  0  0  0  0  0  0
   25.7810   17.9340   16.1340 C   0  0  0  0  0  0  0  0  0  0  0  0
   26.5590   18.8330   17.0810 C   0  0  0  0  0  0  0  0  0  0  0  0
   27.0890   20.0530   16.3660 C   0  0  0  0  0  0  0  0  0  0  0  0
   28.1540   20.5840   16.6700 O   0  0  0  0  0  0  0  0  0  0  0  0
   26.3030   20.5710   15.3690 N   0  0  0  0  0  0  0  0  0  0  0  0
   25.2730   19.9250   14.7280 C   0  0  0  0  0  0  0  0  0  0  0  0
   24.8750   20.3180   13.6310 O   0  0  0  0  0  0  0  0  0  0  0  0
   22.5950   15.6200   13.1920 C   0  0  0  0  0  0  0  0  0  0  0  0
   22.3330   15.6300   14.5220 N   0  0  0  0  0  0  0  0  0  0  0  0
   21.3760   14.8140   15.0200 C   0  0  0  0  0  0  0  0  0  0  0  0
   20.6250   13.9590   14.2440 C   0  0  0  0  0  0  0  0  0  0  0  0
   20.8760   13.9370   12.8800 C   0  0  0  0  0  0  0  0  0  0  0  0
   21.8670   14.7630   12.3300 C   0  0  0  0  0  0  0  0  0  0  0  0
   22.1230   14.7300   10.9490 C   0  0  0  0  0  0  0  0  0  0  0  0
   21.7620   16.0050    6.6310 C   0  0  0  0  0  0  0  0  0  0  0  0
   20.6110   16.5880    6.3660 N   0  0  0  0  0  0  0  0  0  0  0  0
   18.9504   19.6134    8.5356 H   0  0  0  0  0  0  0  0  0  0  0  0
   19.8320   19.3891    6.9867 H   0  0  0  0  0  0  0  0  0  0  0  0
   18.0430   19.5504    6.9867 H   0  0  0  0  0  0  0  0  0  0  0  0
   18.3176   17.4212    8.6538 H   0  0  0  0  0  0  0  0  0  0  0  0
   18.1451   17.2850    6.8501 H   0  0  0  0  0  0  0  0  0  0  0  0
   20.8253   16.7655    9.6895 H   0  0  0  0  0  0  0  0  0  0  0  0
   24.6077   17.0586   10.7950 H   0  0  0  0  0  0  0  0  0  0  0  0
   22.8952   17.7449   14.7614 H   0  0  0  0  0  0  0  0  0  0  0  0
   23.9764   19.0812   16.2624 H   0  0  0  0  0  0  0  0  0  0  0  0
   25.3488   17.0945   16.6983 H   0  0  0  0  0  0  0  0  0  0  0  0
   26.4584   17.5464   15.3588 H   0  0  0  0  0  0  0  0  0  0  0  0
   25.8946   19.1555   17.8962 H   0  0  0  0  0  0  0  0  0  0  0  0
   27.4128   18.2641   17.4778 H   0  0  0  0  0  0  0  0  0  0  0  0
   26.5037   21.5366   15.0720 H   0  0  0  0  0  0  0  0  0  0  0  0
   21.1873   14.8343   16.1035 H   0  0  0  0  0  0  0  0  0  0  0  0
   19.8526   13.3156   14.6907 H   0  0  0  0  0  0  0  0  0  0  0  0
   20.2953   13.2689   12.2270 H   0  0  0  0  0  0  0  0  0  0  0  0
   21.5405   14.0627   10.2967 H   0  0  0  0  0  0  0  0  0  0  0  0
   22.4497   15.6020    5.8729 H   0  0  0  0  0  0  0  0  0  0  0  0
  1  2  1  0
  2  3  1  0
  3  4  2  0
  4  5  1  0
  5  6  1  0
  6  7  2  0
  6  8  2  0
  6  9  1  0
  9 10  2  0
 10 11  1  0
 11 12  1  0
 12 13  2  0
 12 14  1  0
 14 15  1  0
 15 16  1  0
 16 17  1  0
 17 18  1  0
 18 19  2  0
 18 20  1  0
 20 21  1  0
 21 22  2  0
 11 23  2  0
 23 24  1  0
 24 25  2  0
 25 26  1  0
 26 27  2  0
 27 28  1  0
 28 29  2  0
  5 30  1  0
 30 31  2  0
 31  3  1  0
 29  9  1  0
 21 15  1  0
 28 23  1  0
  1 32  1  0
  1 33  1  0
  1 34  1  0
  2 35  1  0
  2 36  1  0
  4 37  1  0
 10 38  1  0
 14 39  1  0
 15 40  1  1
 16 41  1  0
 16 42  1  0
 17 43  1  0
 17 44  1  0
 20 45  1  0
 25 46  1  0
 26 47  1  0
 27 48  1  0
 29 49  1  0
 30 50  1  0
M  END
>  <meeko>  (79) 
{"is_sidechain": [true], "free_energy": -11.39, "intermolecular_energy": 0.0, "internal_energy": -11.39, "cluster_size": 20, "cluster_id": 1, "rank_in_cluster": 1}

>  <_RMSD_MCS_to_ref>  (79) 
0.7095445330946072

$$$$
ligand
     RDKit          3D

 54 57  0  0  0  0  0  0  0  0999 V2000
   18.9090   19.1540    7.5370 C   0  0  0  0  0  0  0  0  0  0  0  0
   18.7730   17.6460    7.6780 C   0  0  0  0  0  0  0  0  0  0  0  0
   20.0840   16.9510    7.5630 C   0  0  0  0  0  0  0  0  0  0  0  0
   21.0920   16.8370    8.5000 C   0  0  0  0  0  0  0  0  0  0  0  0
   22.0640   16.1230    7.8590 N   0  0  0  0  0  0  0  0  0  0  0  0
   23.4480   15.4890    8.5720 S   0  0  0  0  0  6  0  0  0  0  0  0
   24.4610   16.5190    8.4440 O   0  0  0  0  0  0  0  0  0  0  0  0
   23.6120   14.1600    8.0200 O   0  0  0  0  0  0  0  0  0  0  0  0
   23.0040   15.3420   10.2820 C   0  0  0  0  0  0  0  0  0  0  0  0
   21.8200   14.6940   10.6330 C   0  0  0  0  0  0  0  0  0  0  0  0
   21.4550   14.5800   11.9840 C   0  0  0  0  0  0  0  0  0  0  0  0
   22.2700   15.1420   12.9920 C   0  0  0  0  0  0  0  0  0  0  0  0
   23.4940   15.7450   12.6140 C   0  0  0  0  0  0  0  0  0  0  0  0
   24.3970   16.3230   13.6500 C   0  0  0  0  0  0  0  0  0  0  0  0
   24.7800   15.6440   14.5980 O   0  0  0  0  0  0  0  0  0  0  0  0
   24.7730   17.6360   13.4610 N   0  0  0  0  0  0  0  0  0  0  0  0
   25.7910   18.2480   14.3040 C   0  0  2  0  0  0  0  0  0  0  0  0
   25.5730   17.9470   15.7830 C   0  0  0  0  0  0  0  0  0  0  0  0
   26.6440   18.6450   16.6060 C   0  0  0  0  0  0  0  0  0  0  0  0
   26.6650   20.1310   16.3330 C   0  0  0  0  0  0  0  0  0  0  0  0
   26.9460   20.9550   17.1980 O   0  0  0  0  0  0  0  0  0  0  0  0
   26.3810   20.5230   15.0490 N   0  0  0  0  0  0  0  0  0  0  0  0
   25.7540   19.7650   14.0930 C   0  0  0  0  0  0  0  0  0  0  0  0
   25.2100   20.2880   13.1200 O   0  0  0  0  0  0  0  0  0  0  0  0
   23.8520   15.8570   11.2620 C   0  0  0  0  0  0  0  0  0  0  0  0
   21.9440   14.9560   14.3500 N   0  0  0  0  0  0  0  0  0  0  0  0
   20.5520   14.6750   14.6590 C   0  0  0  0  0  0  0  0  0  0  0  0
   20.0680   13.5170   13.8010 C   0  0  0  0  0  0  0  0  0  0  0  0
   20.1490   13.9040   12.3310 C   0  0  0  0  0  0  0  0  0  0  0  0
   21.6280   15.7890    6.6180 C   0  0  0  0  0  0  0  0  0  0  0  0
   20.4280   16.2850    6.4020 N   0  0  0  0  0  0  0  0  0  0  0  0
   18.9504   19.6134    8.5356 H   0  0  0  0  0  0  0  0  0  0  0  0
   19.8320   19.3891    6.9867 H   0  0  0  0  0  0  0  0  0  0  0  0
   18.0430   19.5504    6.9867 H   0  0  0  0  0  0  0  0  0  0  0  0
   18.3372   17.4200    8.6624 H   0  0  0  0  0  0  0  0  0  0  0  0
   18.1274   17.2871    6.8629 H   0  0  0  0  0  0  0  0  0  0  0  0
   21.1083   17.2308    9.5269 H   0  0  0  0  0  0  0  0  0  0  0  0
   21.1717   14.2720    9.8510 H   0  0  0  0  0  0  0  0  0  0  0  0
   24.3289   18.1904   12.7151 H   0  0  0  0  0  0  0  0  0  0  0  0
   26.7668   17.8281   14.0185 H   0  0  0  0  0  0  0  0  0  0  0  0
   24.5808   18.3105   16.0887 H   0  0  0  0  0  0  0  0  0  0  0  0
   25.6331   16.8612   15.9487 H   0  0  0  0  0  0  0  0  0  0  0  0
   26.4395   18.4798   17.6741 H   0  0  0  0  0  0  0  0  0  0  0  0
   27.6228   18.2271   16.3279 H   0  0  0  0  0  0  0  0  0  0  0  0
   26.6651   21.4752   14.7778 H   0  0  0  0  0  0  0  0  0  0  0  0
   24.7945   16.3474   10.9772 H   0  0  0  0  0  0  0  0  0  0  0  0
   22.6588   15.0163   15.0892 H   0  0  0  0  0  0  0  0  0  0  0  0
   20.4587   14.4081   15.7221 H   0  0  0  0  0  0  0  0  0  0  0  0
   19.9422   15.5665   14.4507 H   0  0  0  0  0  0  0  0  0  0  0  0
   20.7012   12.6362   13.9834 H   0  0  0  0  0  0  0  0  0  0  0  0
   19.0255   13.2802   14.0602 H   0  0  0  0  0  0  0  0  0  0  0  0
   20.0489   12.9946   11.7203 H   0  0  0  0  0  0  0  0  0  0  0  0
   19.3375   14.6180   12.1272 H   0  0  0  0  0  0  0  0  0  0  0  0
   22.1977   15.1879    5.8940 H   0  0  0  0  0  0  0  0  0  0  0  0
  1  2  1  0
  2  3  1  0
  3  4  2  0
  4  5  1  0
  5  6  1  0
  6  7  2  0
  6  8  2  0
  6  9  1  0
  9 10  2  0
 10 11  1  0
 11 12  2  0
 12 13  1  0
 13 14  1  0
 14 15  2  0
 14 16  1  0
 16 17  1  0
 17 18  1  0
 18 19  1  0
 19 20  1  0
 20 21  2  0
 20 22  1  0
 22 23  1  0
 23 24  2  0
 13 25  2  0
 12 26  1  0
 26 27  1  0
 27 28  1  0
 28 29  1  0
  5 30  1  0
 30 31  2  0
 31  3  1  0
 25  9  1  0
 29 11  1  0
 23 17  1  0
  1 32  1  0
  1 33  1  0
  1 34  1  0
  2 35  1  0
  2 36  1  0
  4 37  1  0
 10 38  1  0
 16 39  1  0
 17 40  1  6
 18 41  1  0
 18 42  1  0
 19 43  1  0
 19 44  1  0
 22 45  1  0
 25 46  1  0
 26 47  1  0
 27 48  1  0
 27 49  1  0
 28 50  1  0
 28 51  1  0
 29 52  1  0
 29 53  1  0
 30 54  1  0
M  END
>  <meeko>  (80) 
{"is_sidechain": [true], "free_energy": -11.39, "intermolecular_energy": 0.0, "internal_energy": -11.39, "cluster_size": 20, "cluster_id": 1, "rank_in_cluster": 1}

>  <_RMSD_MCS_to_ref>  (80) 
0.5686087309291766

$$$$
ligand
     RDKit          3D

 55 59  0  0  0  0  0  0  0  0999 V2000
   18.9090   19.1540    7.5370 C   0  0  0  0  0  0  0  0  0  0  0  0
   18.7730   17.6460    7.6780 C   0  0  0  0  0  0  0  0  0  0  0  0
   19.7090   16.9110    6.7850 C   0  0  0  0  0  0  0  0  0  0  0  0
   21.0290   17.1930    6.4930 C   0  0  0  0  0  0  0  0  0  0  0  0
   21.4030   16.1960    5.6350 N   0  0  0  0  0  0  0  0  0  0  0  0
   22.8570   16.1140    4.7910 S   0  0  0  0  0  6  0  0  0  0  0  0
   22.6530   15.0980    3.7730 O   0  0  0  0  0  0  0  0  0  0  0  0
   23.2050   17.4830    4.4620 O   0  0  0  0  0  0  0  0  0  0  0  0
   24.0260   15.4960    5.9700 C   0  0  0  0  0  0  0  0  0  0  0  0
   25.0510   14.6620    5.5680 C   0  0  0  0  0  0  0  0  0  0  0  0
   25.8990   14.1900    6.5590 C   0  0  0  0  0  0  0  0  0  0  0  0
   25.6870   14.5690    7.8900 C   0  0  0  0  0  0  0  0  0  0  0  0
   24.6290   15.4220    8.2100 C   0  0  0  0  0  0  0  0  0  0  0  0
   24.3160   15.8770    9.5840 C   0  0  0  0  0  0  0  0  0  0  0  0
   23.0590   15.6250   10.1980 C   0  0  0  0  0  0  0  0  0  0  0  0
   22.7690   16.0520   11.5010 C   0  0  0  0  0  0  0  0  0  0  0  0
   23.7590   16.7250   12.1840 C   0  0  0  0  0  0  0  0  0  0  0  0
   25.0040   16.9870   11.6280 C   0  0  0  0  0  0  0  0  0  0  0  0
   25.2910   16.5750   10.3370 C   0  0  0  0  0  0  0  0  0  0  0  0
   25.8570   17.7310   12.5980 C   0  0  0  0  0  0  0  0  0  0  0  0
   25.0100   17.7890   13.7830 N   0  0  0  0  0  0  0  0  0  0  0  0
   25.2990   18.6320   14.9350 C   0  0  1  0  0  0  0  0  0  0  0  0
   26.3010   17.9910   15.8910 C   0  0  0  0  0  0  0  0  0  0  0  0
   26.4830   18.8850   17.1070 C   0  0  0  0  0  0  0  0  0  0  0  0
   26.9020   20.2790   16.7020 C   0  0  0  0  0  0  0  0  0  0  0  0
   27.6740   20.9550   17.3750 O   0  0  0  0  0  0  0  0  0  0  0  0
   26.3590   20.7710   15.5420 N   0  0  0  0  0  0  0  0  0  0  0  0
   25.8190   20.0200   14.5220 C   0  0  0  0  0  0  0  0  0  0  0  0
   25.7840   20.4660   13.3790 O   0  0  0  0  0  0  0  0  0  0  0  0
   23.7420   17.2770   13.5440 C   0  0  0  0  0  0  0  0  0  0  0  0
   22.7820   17.2700   14.2890 O   0  0  0  0  0  0  0  0  0  0  0  0
   23.7940   15.8830    7.2470 N   0  0  0  0  0  0  0  0  0  0  0  0
   20.3350   15.3890    5.4010 C   0  0  0  0  0  0  0  0  0  0  0  0
   19.2890   15.7900    6.0950 N   0  0  0  0  0  0  0  0  0  0  0  0
   18.9504   19.6134    8.5356 H   0  0  0  0  0  0  0  0  0  0  0  0
   19.8320   19.3891    6.9867 H   0  0  0  0  0  0  0  0  0  0  0  0
   18.0430   19.5504    6.9867 H   0  0  0  0  0  0  0  0  0  0  0  0
   18.9857   17.3671    8.7206 H   0  0  0  0  0  0  0  0  0  0  0  0
   17.7472   17.3713    7.3912 H   0  0  0  0  0  0  0  0  0  0  0  0
   21.6399   18.0285    6.8654 H   0  0  0  0  0  0  0  0  0  0  0  0
   25.1883   14.3853    4.5123 H   0  0  0  0  0  0  0  0  0  0  0  0
   26.7335   13.5216    6.3006 H   0  0  0  0  0  0  0  0  0  0  0  0
   26.3527   14.1955    8.6821 H   0  0  0  0  0  0  0  0  0  0  0  0
   22.2900   15.0779    9.6329 H   0  0  0  0  0  0  0  0  0  0  0  0
   21.7889   15.8575   11.9609 H   0  0  0  0  0  0  0  0  0  0  0  0
   26.2760   16.7900    9.8970 H   0  0  0  0  0  0  0  0  0  0  0  0
   26.7915   17.1883   12.8035 H   0  0  0  0  0  0  0  0  0  0  0  0
   26.1725   18.7205   12.2356 H   0  0  0  0  0  0  0  0  0  0  0  0
   24.3381   18.7488   15.4575 H   0  0  0  0  0  0  0  0  0  0  0  0
   25.9253   17.0080   16.2113 H   0  0  0  0  0  0  0  0  0  0  0  0
   27.2670   17.8651   15.3801 H   0  0  0  0  0  0  0  0  0  0  0  0
   25.5317   18.9416   17.6564 H   0  0  0  0  0  0  0  0  0  0  0  0
   27.2719   18.4544   17.7412 H   0  0  0  0  0  0  0  0  0  0  0  0
   26.3549   21.7942   15.4235 H   0  0  0  0  0  0  0  0  0  0  0  0
   20.3426   14.5209    4.7255 H   0  0  0  0  0  0  0  0  0  0  0  0
  1  2  1  0
  2  3  1  0
  3  4  2  0
  4  5  1  0
  5  6  1  0
  6  7  2  0
  6  8  2  0
  6  9  1  0
  9 10  2  0
 10 11  1  0
 11 12  2  0
 12 13  1  0
 13 14  1  0
 14 15  2  0
 15 16  1  0
 16 17  2  0
 17 18  1  0
 18 19  2  0
 18 20  1  0
 20 21  1  0
 21 22  1  0
 22 23  1  0
 23 24  1  0
 24 25  1  0
 25 26  2  0
 25 27  1  0
 27 28  1  0
 28 29  2  0
 21 30  1  0
 30 31  2  0
 13 32  2  0
  5 33  1  0
 33 34  2  0
 34  3  1  0
 32  9  1  0
 19 14  1  0
 28 22  1  0
 30 17  1  0
  1 35  1  0
  1 36  1  0
  1 37  1  0
  2 38  1  0
  2 39  1  0
  4 40  1  0
 10 41  1  0
 11 42  1  0
 12 43  1  0
 15 44  1  0
 16 45  1  0
 19 46  1  0
 20 47  1  0
 20 48  1  0
 22 49  1  1
 23 50  1  0
 23 51  1  0
 24 52  1  0
 24 53  1  0
 27 54  1  0
 33 55  1  0
M  END
>  <meeko>  (81) 
{"is_sidechain": [true], "free_energy": -11.39, "intermolecular_energy": 0.0, "internal_energy": -11.39, "cluster_size": 19, "cluster_id": 1, "rank_in_cluster": 1}

>  <_RMSD_MCS_to_ref>  (81) 
0.716292188984356

$$$$
ligand
     RDKit          3D

 55 59  0  0  0  0  0  0  0  0999 V2000
   18.9090   19.1540    7.5370 C   0  0  0  0  0  0  0  0  0  0  0  0
   18.7730   17.6460    7.6780 C   0  0  0  0  0  0  0  0  0  0  0  0
   20.0920   16.9600    7.6180 C   0  0  0  0  0  0  0  0  0  0  0  0
   20.6420   16.0550    8.5040 C   0  0  0  0  0  0  0  0  0  0  0  0
   21.8520   15.7430    7.9520 N   0  0  0  0  0  0  0  0  0  0  0  0
   22.9620   14.6590    8.5890 S   0  0  0  0  0  6  0  0  0  0  0  0
   22.2340   13.7560    9.4570 O   0  0  0  0  0  0  0  0  0  0  0  0
   23.6940   14.1850    7.4300 O   0  0  0  0  0  0  0  0  0  0  0  0
   24.0760   15.6220    9.5960 C   0  0  0  0  0  0  0  0  0  0  0  0
   23.6300   15.9300   10.8940 C   0  0  0  0  0  0  0  0  0  0  0  0
   24.4690   16.6710   11.7010 C   0  0  0  0  0  0  0  0  0  0  0  0
   25.7110   17.1240   11.2770 C   0  0  0  0  0  0  0  0  0  0  0  0
   26.1550   16.8360    9.9980 C   0  0  0  0  0  0  0  0  0  0  0  0
   25.3400   16.0750    9.1240 C   0  0  0  0  0  0  0  0  0  0  0  0
   25.8690   15.8170    7.7810 C   0  0  0  0  0  0  0  0  0  0  0  0
   25.5840   16.6780    6.7130 C   0  0  0  0  0  0  0  0  0  0  0  0
   26.0880   16.4100    5.4430 C   0  0  0  0  0  0  0  0  0  0  0  0
   26.8550   15.2730    5.2690 C   0  0  0  0  0  0  0  0  0  0  0  0
   27.1330   14.4020    6.2620 N   0  0  0  0  0  0  0  0  0  0  0  0
   26.6360   14.6890    7.4870 C   0  0  0  0  0  0  0  0  0  0  0  0
   26.3640   17.9200   12.3580 C   0  0  0  0  0  0  0  0  0  0  0  0
   25.4210   17.7860   13.4610 N   0  0  0  0  0  0  0  0  0  0  0  0
   25.4730   18.6050   14.6680 C   0  0  1  0  0  0  0  0  0  0  0  0
   26.3380   17.9830   15.7600 C   0  0  0  0  0  0  0  0  0  0  0  0
   26.2740   18.8490   17.0090 C   0  0  0  0  0  0  0  0  0  0  0  0
   26.6820   20.2720   16.7060 C   0  0  0  0  0  0  0  0  0  0  0  0
   27.3180   20.9560   17.5010 O   0  0  0  0  0  0  0  0  0  0  0  0
   26.2910   20.7760   15.4930 N   0  0  0  0  0  0  0  0  0  0  0  0
   25.9820   20.0280   14.3800 C   0  0  0  0  0  0  0  0  0  0  0  0
   26.1300   20.4970   13.2540 O   0  0  0  0  0  0  0  0  0  0  0  0
   24.2610   17.1280   13.0790 C   0  0  0  0  0  0  0  0  0  0  0  0
   23.2510   16.9450   13.7290 O   0  0  0  0  0  0  0  0  0  0  0  0
   22.0240   16.4590    6.8130 C   0  0  0  0  0  0  0  0  0  0  0  0
   20.9580   17.1950    6.5690 N   0  0  0  0  0  0  0  0  0  0  0  0
   18.9504   19.6134    8.5356 H   0  0  0  0  0  0  0  0  0  0  0  0
   19.8320   19.3891    6.9867 H   0  0  0  0  0  0  0  0  0  0  0  0
   18.0430   19.5504    6.9867 H   0  0  0  0  0  0  0  0  0  0  0  0
   18.2991   17.4209    8.6448 H   0  0  0  0  0  0  0  0  0  0  0  0
   18.1609   17.2800    6.8405 H   0  0  0  0  0  0  0  0  0  0  0  0
   20.2062   15.6732    9.4390 H   0  0  0  0  0  0  0  0  0  0  0  0
   22.6468   15.5920   11.2532 H   0  0  0  0  0  0  0  0  0  0  0  0
   27.1379   17.1970    9.6611 H   0  0  0  0  0  0  0  0  0  0  0  0
   24.9600   17.5687    6.8784 H   0  0  0  0  0  0  0  0  0  0  0  0
   25.8812   17.0855    4.5999 H   0  0  0  0  0  0  0  0  0  0  0  0
   27.2605   15.0671    4.2674 H   0  0  0  0  0  0  0  0  0  0  0  0
   26.8508   13.9865    8.3057 H   0  0  0  0  0  0  0  0  0  0  0  0
   27.3465   17.5015   12.6218 H   0  0  0  0  0  0  0  0  0  0  0  0
   26.5627   18.9642   12.0750 H   0  0  0  0  0  0  0  0  0  0  0  0
   24.4347   18.6579   15.0273 H   0  0  0  0  0  0  0  0  0  0  0  0
   25.9659   16.9744   15.9931 H   0  0  0  0  0  0  0  0  0  0  0  0
   27.3792   17.9169   15.4113 H   0  0  0  0  0  0  0  0  0  0  0  0
   25.2445   18.8452   17.3964 H   0  0  0  0  0  0  0  0  0  0  0  0
   26.9695   18.4376   17.7553 H   0  0  0  0  0  0  0  0  0  0  0  0
   26.2227   21.8002   15.4073 H   0  0  0  0  0  0  0  0  0  0  0  0
   22.9249   16.4297    6.1825 H   0  0  0  0  0  0  0  0  0  0  0  0
  1  2  1  0
  2  3  1  0
  3  4  2  0
  4  5  1  0
  5  6  1  0
  6  7  2  0
  6  8  2  0
  6  9  1  0
  9 10  2  0
 10 11  1  0
 11 12  2  0
 12 13  1  0
 13 14  2  0
 14 15  1  0
 15 16  2  0
 16 17  1  0
 17 18  2  0
 18 19  1  0
 19 20  2  0
 12 21  1  0
 21 22  1  0
 22 23  1  0
 23 24  1  0
 24 25  1  0
 25 26  1  0
 26 27  2  0
 26 28  1  0
 28 29  1  0
 29 30  2  0
 22 31  1  0
 31 32  2  0
  5 33  1  0
 33 34  2  0
 34  3  1  0
 14  9  1  0
 20 15  1  0
 29 23  1  0
 31 11  1  0
  1 35  1  0
  1 36  1  0
  1 37  1  0
  2 38  1  0
  2 39  1  0
  4 40  1  0
 10 41  1  0
 13 42  1  0
 16 43  1  0
 17 44  1  0
 18 45  1  0
 20 46  1  0
 21 47  1  0
 21 48  1  0
 23 49  1  1
 24 50  1  0
 24 51  1  0
 25 52  1  0
 25 53  1  0
 28 54  1  0
 33 55  1  0
M  END
>  <meeko>  (82) 
{"is_sidechain": [true], "free_energy": -11.39, "intermolecular_energy": 0.0, "internal_energy": -11.39, "cluster_size": 19, "cluster_id": 1, "rank_in_cluster": 1}

>  <_RMSD_MCS_to_ref>  (82) 
0.8199329240858668

$$$$
ligand
     RDKit          3D

 54 58  0  0  0  0  0  0  0  0999 V2000
   18.9090   19.1540    7.5370 C   0  0  0  0  0  0  0  0  0  0  0  0
   18.7730   17.6460    7.6780 C   0  0  0  0  0  0  0  0  0  0  0  0
   20.0930   16.9600    7.6400 C   0  0  0  0  0  0  0  0  0  0  0  0
   20.6040   16.0100    8.5000 C   0  0  0  0  0  0  0  0  0  0  0  0
   21.8450   15.7360    7.9980 N   0  0  0  0  0  0  0  0  0  0  0  0
   22.9390   14.6450    8.6500 S   0  0  0  0  0  6  0  0  0  0  0  0
   23.6550   14.0340    7.5510 O   0  0  0  0  0  0  0  0  0  0  0  0
   22.1220   13.8570    9.5570 O   0  0  0  0  0  0  0  0  0  0  0  0
   24.0920   15.5770    9.6460 C   0  0  0  0  0  0  0  0  0  0  0  0
   23.6470   15.8950   10.9440 C   0  0  0  0  0  0  0  0  0  0  0  0
   24.4840   16.6380   11.7490 C   0  0  0  0  0  0  0  0  0  0  0  0
   25.7330   17.0750   11.3280 C   0  0  0  0  0  0  0  0  0  0  0  0
   26.1830   16.7680   10.0560 C   0  0  0  0  0  0  0  0  0  0  0  0
   25.3680   16.0050    9.1810 C   0  0  0  0  0  0  0  0  0  0  0  0
   25.9180   15.6790    7.8630 C   0  0  0  0  0  0  0  0  0  0  0  0
   26.7870   14.6150    7.6500 C   0  0  0  0  0  0  0  0  0  0  0  0
   27.2630   14.3880    6.3640 C   0  0  0  0  0  0  0  0  0  0  0  0
   26.8390   15.2280    5.3550 C   0  0  0  0  0  0  0  0  0  0  0  0
   25.9800   16.2410    5.5790 N   0  0  0  0  0  0  0  0  0  0  0  0
   25.5190   16.4670    6.8460 N   0  0  0  0  0  0  0  0  0  0  0  0
   26.3970   17.8570   12.4150 C   0  0  0  0  0  0  0  0  0  0  0  0
   25.4350   17.7600   13.5060 N   0  0  0  0  0  0  0  0  0  0  0  0
   25.4910   18.5920   14.7020 C   0  0  1  0  0  0  0  0  0  0  0  0
   26.3360   17.9700   15.8090 C   0  0  0  0  0  0  0  0  0  0  0  0
   26.2770   18.8550   17.0460 C   0  0  0  0  0  0  0  0  0  0  0  0
   26.7100   20.2670   16.7260 C   0  0  0  0  0  0  0  0  0  0  0  0
   27.3590   20.9500   17.5110 O   0  0  0  0  0  0  0  0  0  0  0  0
   26.3280   20.7630   15.5050 N   0  0  0  0  0  0  0  0  0  0  0  0
   26.0250   20.0030   14.3990 C   0  0  0  0  0  0  0  0  0  0  0  0
   26.2010   20.4500   13.2680 O   0  0  0  0  0  0  0  0  0  0  0  0
   24.2690   17.1170   13.1180 C   0  0  0  0  0  0  0  0  0  0  0  0
   23.2460   16.9690   13.7560 O   0  0  0  0  0  0  0  0  0  0  0  0
   22.0410   16.4650    6.8700 C   0  0  0  0  0  0  0  0  0  0  0  0
   21.0010   17.2430    6.6390 N   0  0  0  0  0  0  0  0  0  0  0  0
   18.9504   19.6134    8.5356 H   0  0  0  0  0  0  0  0  0  0  0  0
   19.8320   19.3891    6.9867 H   0  0  0  0  0  0  0  0  0  0  0  0
   18.0430   19.5504    6.9867 H   0  0  0  0  0  0  0  0  0  0  0  0
   18.2841   17.4219    8.6376 H   0  0  0  0  0  0  0  0  0  0  0  0
   18.1753   17.2786    6.8308 H   0  0  0  0  0  0  0  0  0  0  0  0
   20.1224   15.5729    9.3872 H   0  0  0  0  0  0  0  0  0  0  0  0
   22.6627   15.5610   11.3040 H   0  0  0  0  0  0  0  0  0  0  0  0
   27.1723   17.1155    9.7235 H   0  0  0  0  0  0  0  0  0  0  0  0
   27.0921   13.9651    8.4834 H   0  0  0  0  0  0  0  0  0  0  0  0
   27.9585   13.5615    6.1565 H   0  0  0  0  0  0  0  0  0  0  0  0
   27.2148   15.0651    4.3341 H   0  0  0  0  0  0  0  0  0  0  0  0
   27.3618   17.4088   12.6947 H   0  0  0  0  0  0  0  0  0  0  0  0
   26.6328   18.8927   12.1290 H   0  0  0  0  0  0  0  0  0  0  0  0
   24.4512   18.6661   15.0533 H   0  0  0  0  0  0  0  0  0  0  0  0
   25.9444   16.9714   16.0529 H   0  0  0  0  0  0  0  0  0  0  0  0
   27.3786   17.8805   15.4699 H   0  0  0  0  0  0  0  0  0  0  0  0
   25.2448   18.8731   17.4258 H   0  0  0  0  0  0  0  0  0  0  0  0
   26.9605   18.4431   17.8031 H   0  0  0  0  0  0  0  0  0  0  0  0
   26.2629   21.7864   15.4088 H   0  0  0  0  0  0  0  0  0  0  0  0
   22.9398   16.4143    6.2379 H   0  0  0  0  0  0  0  0  0  0  0  0
  1  2  1  0
  2  3  1  0
  3  4  2  0
  4  5  1  0
  5  6  1  0
  6  7  2  0
  6  8  2  0
  6  9  1  0
  9 10  2  0
 10 11  1  0
 11 12  2  0
 12 13  1  0
 13 14  2  0
 14 15  1  0
 15 16  2  0
 16 17  1  0
 17 18  2  0
 18 19  1  0
 19 20  2  0
 12 21  1  0
 21 22  1  0
 22 23  1  0
 23 24  1  0
 24 25  1  0
 25 26  1  0
 26 27  2  0
 26 28  1  0
 28 29  1  0
 29 30  2  0
 22 31  1  0
 31 32  2  0
  5 33  1  0
 33 34  2  0
 34  3  1  0
 14  9  1  0
 20 15  1  0
 29 23  1  0
 31 11  1  0
  1 35  1  0
  1 36  1  0
  1 37  1  0
  2 38  1  0
  2 39  1  0
  4 40  1  0
 10 41  1  0
 13 42  1  0
 16 43  1  0
 17 44  1  0
 18 45  1  0
 21 46  1  0
 21 47  1  0
 23 48  1  1
 24 49  1  0
 24 50  1  0
 25 51  1  0
 25 52  1  0
 28 53  1  0
 33 54  1  0
M  END
>  <meeko>  (83) 
{"is_sidechain": [true], "free_energy": -11.39, "intermolecular_energy": 0.0, "internal_energy": -11.39, "cluster_size": 18, "cluster_id": 1, "rank_in_cluster": 1}

>  <_RMSD_MCS_to_ref>  (83) 
0.8136218750473435

$$$$
ligand
     RDKit          3D

 46 49  0  0  0  0  0  0  0  0999 V2000
   18.9090   19.1540    7.5370 C   0  0  0  0  0  0  0  0  0  0  0  0
   18.7730   17.6460    7.6780 C   0  0  0  0  0  0  0  0  0  0  0  0
   20.0750   16.9460    7.5040 C   0  0  0  0  0  0  0  0  0  0  0  0
   20.6230   15.9280    8.2610 C   0  0  0  0  0  0  0  0  0  0  0  0
   21.8060   15.6490    7.6380 N   0  0  0  0  0  0  0  0  0  0  0  0
   23.0510   14.7000    8.2760 S   0  0  0  0  0  6  0  0  0  0  0  0
   24.1450   14.8730    7.3390 O   0  0  0  0  0  0  0  0  0  0  0  0
   22.4460   13.3960    8.4670 O   0  0  0  0  0  0  0  0  0  0  0  0
   23.4550   15.3920    9.8040 C   0  0  0  0  0  0  0  0  0  0  0  0
   22.5730   15.3040   10.8230 C   0  0  0  0  0  0  0  0  0  0  0  0
   22.8050   15.7990   12.1010 N   0  0  0  0  0  0  0  0  0  0  0  0
   23.9650   16.3670   12.3270 C   0  0  0  0  0  0  0  0  0  0  0  0
   24.2850   16.9130   13.7000 C   0  0  0  0  0  0  0  0  0  0  0  0
   23.8000   16.4050   14.6980 O   0  0  0  0  0  0  0  0  0  0  0  0
   25.0940   18.0280   13.6850 N   0  0  0  0  0  0  0  0  0  0  0  0
   25.3380   18.7940   14.8970 C   0  0  1  0  0  0  0  0  0  0  0  0
   26.2840   18.0780   15.8540 C   0  0  0  0  0  0  0  0  0  0  0  0
   26.5270   18.9490   17.0760 C   0  0  0  0  0  0  0  0  0  0  0  0
   27.0480   20.3130   16.6860 C   0  0  0  0  0  0  0  0  0  0  0  0
   27.8370   20.9420   17.3830 O   0  0  0  0  0  0  0  0  0  0  0  0
   26.5690   20.8400   15.5130 N   0  0  0  0  0  0  0  0  0  0  0  0
   25.9500   20.1440   14.5060 C   0  0  0  0  0  0  0  0  0  0  0  0
   25.8840   20.5970   13.3630 O   0  0  0  0  0  0  0  0  0  0  0  0
   24.9430   16.5150   11.2930 C   0  0  0  0  0  0  0  0  0  0  0  0
   26.1190   17.0910   11.3140 N   0  0  0  0  0  0  0  0  0  0  0  0
   26.6450   16.9690   10.0480 N   0  0  0  0  0  0  0  0  0  0  0  0
   25.7660   16.3380    9.2990 C   0  0  0  0  0  0  0  0  0  0  0  0
   24.6630   16.0250   10.0410 N   0  0  0  0  0  0  0  0  0  0  0  0
   21.9740   16.5040    6.5960 C   0  0  0  0  0  0  0  0  0  0  0  0
   20.9330   17.3000    6.4820 N   0  0  0  0  0  0  0  0  0  0  0  0
   18.9504   19.6134    8.5356 H   0  0  0  0  0  0  0  0  0  0  0  0
   19.8320   19.3891    6.9867 H   0  0  0  0  0  0  0  0  0  0  0  0
   18.0430   19.5504    6.9867 H   0  0  0  0  0  0  0  0  0  0  0  0
   18.3790   17.4178    8.6794 H   0  0  0  0  0  0  0  0  0  0  0  0
   18.0915   17.2930    6.8900 H   0  0  0  0  0  0  0  0  0  0  0  0
   20.2029   15.4517    9.1591 H   0  0  0  0  0  0  0  0  0  0  0  0
   21.6099   14.8092   10.6293 H   0  0  0  0  0  0  0  0  0  0  0  0
   25.5330   18.3238   12.8014 H   0  0  0  0  0  0  0  0  0  0  0  0
   24.3772   18.9245   15.4164 H   0  0  0  0  0  0  0  0  0  0  0  0
   25.8349   17.1241   16.1676 H   0  0  0  0  0  0  0  0  0  0  0  0
   27.2406   17.8849   15.3464 H   0  0  0  0  0  0  0  0  0  0  0  0
   25.5804   19.0704   17.6230 H   0  0  0  0  0  0  0  0  0  0  0  0
   27.2821   18.4574   17.7070 H   0  0  0  0  0  0  0  0  0  0  0  0
   26.6853   21.8542   15.3757 H   0  0  0  0  0  0  0  0  0  0  0  0
   25.8998   16.0983    8.2338 H   0  0  0  0  0  0  0  0  0  0  0  0
   22.8565   16.5275    5.9398 H   0  0  0  0  0  0  0  0  0  0  0  0
  1  2  1  0
  2  3  1  0
  3  4  2  0
  4  5  1  0
  5  6  1  0
  6  7  2  0
  6  8  2  0
  6  9  1  0
  9 10  2  0
 10 11  1  0
 11 12  2  0
 12 13  1  0
 13 14  2  0
 13 15  1  0
 15 16  1  0
 16 17  1  0
 17 18  1  0
 18 19  1  0
 19 20  2  0
 19 21  1  0
 21 22  1  0
 22 23  2  0
 12 24  1  0
 24 25  2  0
 25 26  1  0
 26 27  2  0
 27 28  1  0
  5 29  1  0
 29 30  2  0
 30  3  1  0
 28  9  1  0
 22 16  1  0
 28 24  1  0
  1 31  1  0
  1 32  1  0
  1 33  1  0
  2 34  1  0
  2 35  1  0
  4 36  1  0
 10 37  1  0
 15 38  1  0
 16 39  1  1
 17 40  1  0
 17 41  1  0
 18 42  1  0
 18 43  1  0
 21 44  1  0
 27 45  1  0
 29 46  1  0
M  END
>  <meeko>  (84) 
{"is_sidechain": [true], "free_energy": -11.37, "intermolecular_energy": 0.0, "internal_energy": -11.37, "cluster_size": 19, "cluster_id": 1, "rank_in_cluster": 1}

>  <_RMSD_MCS_to_ref>  (84) 
0.7680293686514277

$$$$
ligand
     RDKit          3D

 55 59  0  0  0  0  0  0  0  0999 V2000
   18.9090   19.1540    7.5370 C   0  0  0  0  0  0  0  0  0  0  0  0
   18.7730   17.6460    7.6780 C   0  0  0  0  0  0  0  0  0  0  0  0
   20.0900   16.9570    7.6090 C   0  0  0  0  0  0  0  0  0  0  0  0
   20.6770   16.1120    8.5290 C   0  0  0  0  0  0  0  0  0  0  0  0
   21.8820   15.7930    7.9680 N   0  0  0  0  0  0  0  0  0  0  0  0
   22.9980   14.7110    8.5970 S   0  0  0  0  0  6  0  0  0  0  0  0
   23.7070   14.1150    7.4830 O   0  0  0  0  0  0  0  0  0  0  0  0
   22.1940   13.8980    9.4950 O   0  0  0  0  0  0  0  0  0  0  0  0
   24.1500   15.6240    9.6070 C   0  0  0  0  0  0  0  0  0  0  0  0
   23.6890   15.9440   10.8990 C   0  0  0  0  0  0  0  0  0  0  0  0
   24.5190   16.6800   11.7180 C   0  0  0  0  0  0  0  0  0  0  0  0
   25.7750   17.1100   11.3150 C   0  0  0  0  0  0  0  0  0  0  0  0
   26.2410   16.8010   10.0480 C   0  0  0  0  0  0  0  0  0  0  0  0
   25.4340   16.0460    9.1590 C   0  0  0  0  0  0  0  0  0  0  0  0
   26.0030   15.7060    7.8490 C   0  0  0  0  0  0  0  0  0  0  0  0
   26.8000   14.5790    7.6450 C   0  0  0  0  0  0  0  0  0  0  0  0
   27.2810   14.3170    6.3650 C   0  0  0  0  0  0  0  0  0  0  0  0
   26.9480   15.1740    5.3240 C   0  0  0  0  0  0  0  0  0  0  0  0
   26.1480   16.2650    5.6100 C   0  0  0  0  0  0  0  0  0  0  0  0
   25.6790   16.5490    6.8470 N   0  0  0  0  0  0  0  0  0  0  0  0
   26.4300   17.8850   12.4110 C   0  0  0  0  0  0  0  0  0  0  0  0
   25.4550   17.7910   13.4900 N   0  0  0  0  0  0  0  0  0  0  0  0
   25.5020   18.6140   14.6920 C   0  0  1  0  0  0  0  0  0  0  0  0
   26.3440   17.9860   15.7980 C   0  0  0  0  0  0  0  0  0  0  0  0
   26.2760   18.8600   17.0420 C   0  0  0  0  0  0  0  0  0  0  0  0
   26.7060   20.2760   16.7350 C   0  0  0  0  0  0  0  0  0  0  0  0
   27.3480   20.9550   17.5310 O   0  0  0  0  0  0  0  0  0  0  0  0
   26.3310   20.7810   15.5160 N   0  0  0  0  0  0  0  0  0  0  0  0
   26.0340   20.0290   14.4040 C   0  0  0  0  0  0  0  0  0  0  0  0
   26.2150   20.4880   13.2770 O   0  0  0  0  0  0  0  0  0  0  0  0
   24.2900   17.1560   13.0860 C   0  0  0  0  0  0  0  0  0  0  0  0
   23.2580   17.0100   13.7120 O   0  0  0  0  0  0  0  0  0  0  0  0
   21.9620   16.3590    6.7370 C   0  0  0  0  0  0  0  0  0  0  0  0
   20.9020   17.1070    6.5020 N   0  0  0  0  0  0  0  0  0  0  0  0
   18.9504   19.6134    8.5356 H   0  0  0  0  0  0  0  0  0  0  0  0
   19.8320   19.3891    6.9867 H   0  0  0  0  0  0  0  0  0  0  0  0
   18.0430   19.5504    6.9867 H   0  0  0  0  0  0  0  0  0  0  0  0
   18.3053   17.4211    8.6479 H   0  0  0  0  0  0  0  0  0  0  0  0
   18.1557   17.2818    6.8436 H   0  0  0  0  0  0  0  0  0  0  0  0
   20.2688   15.7730    9.4926 H   0  0  0  0  0  0  0  0  0  0  0  0
   22.6971   15.6167   11.2441 H   0  0  0  0  0  0  0  0  0  0  0  0
   27.2378   17.1414    9.7309 H   0  0  0  0  0  0  0  0  0  0  0  0
   27.0443   13.9084    8.4820 H   0  0  0  0  0  0  0  0  0  0  0  0
   27.9185   13.4399    6.1800 H   0  0  0  0  0  0  0  0  0  0  0  0
   27.3101   14.9902    4.3017 H   0  0  0  0  0  0  0  0  0  0  0  0
   25.8775   16.9404    4.7850 H   0  0  0  0  0  0  0  0  0  0  0  0
   27.3889   17.4306   12.7010 H   0  0  0  0  0  0  0  0  0  0  0  0
   26.6750   18.9200   12.1303 H   0  0  0  0  0  0  0  0  0  0  0  0
   24.4598   18.6825   15.0373 H   0  0  0  0  0  0  0  0  0  0  0  0
   25.9549   16.9840   16.0316 H   0  0  0  0  0  0  0  0  0  0  0  0
   27.3885   17.9035   15.4631 H   0  0  0  0  0  0  0  0  0  0  0  0
   25.2420   18.8717   17.4170 H   0  0  0  0  0  0  0  0  0  0  0  0
   26.9567   18.4441   17.7994 H   0  0  0  0  0  0  0  0  0  0  0  0
   26.2668   21.8051   15.4266 H   0  0  0  0  0  0  0  0  0  0  0  0
   22.7951   16.2139    6.0335 H   0  0  0  0  0  0  0  0  0  0  0  0
  1  2  1  0
  2  3  1  0
  3  4  2  0
  4  5  1  0
  5  6  1  0
  6  7  2  0
  6  8  2  0
  6  9  1  0
  9 10  2  0
 10 11  1  0
 11 12  2  0
 12 13  1  0
 13 14  2  0
 14 15  1  0
 15 16  2  0
 16 17  1  0
 17 18  2  0
 18 19  1  0
 19 20  2  0
 12 21  1  0
 21 22  1  0
 22 23  1  0
 23 24  1  0
 24 25  1  0
 25 26  1  0
 26 27  2  0
 26 28  1  0
 28 29  1  0
 29 30  2  0
 22 31  1  0
 31 32  2  0
  5 33  1  0
 33 34  2  0
 34  3  1  0
 14  9  1  0
 20 15  1  0
 29 23  1  0
 31 11  1  0
  1 35  1  0
  1 36  1  0
  1 37  1  0
  2 38  1  0
  2 39  1  0
  4 40  1  0
 10 41  1  0
 13 42  1  0
 16 43  1  0
 17 44  1  0
 18 45  1  0
 19 46  1  0
 21 47  1  0
 21 48  1  0
 23 49  1  1
 24 50  1  0
 24 51  1  0
 25 52  1  0
 25 53  1  0
 28 54  1  0
 33 55  1  0
M  END
>  <meeko>  (85) 
{"is_sidechain": [true], "free_energy": -11.37, "intermolecular_energy": 0.0, "internal_energy": -11.37, "cluster_size": 18, "cluster_id": 1, "rank_in_cluster": 1}

>  <_RMSD_MCS_to_ref>  (85) 
0.8532344343731091

$$$$
ligand
     RDKit          3D

 55 59  0  0  0  0  0  0  0  0999 V2000
   18.8250   19.0180    7.5350 C   0  0  0  0  0  0  0  0  0  0  0  0
   18.5200   17.5410    7.7330 C   0  0  0  0  0  0  0  0  0  0  0  0
   19.7560   16.7140    7.7480 C   0  0  0  0  0  0  0  0  0  0  0  0
   20.2060   15.8450    8.7230 C   0  0  0  0  0  0  0  0  0  0  0  0
   21.3550   15.3260    8.2000 N   0  0  0  0  0  0  0  0  0  0  0  0
   22.4020   14.2710    8.9770 S   0  0  0  0  0  6  0  0  0  0  0  0
   23.5840   14.2570    8.1330 O   0  0  0  0  0  0  0  0  0  0  0  0
   21.6570   13.0580    9.2570 O   0  0  0  0  0  0  0  0  0  0  0  0
   22.8340   15.0240   10.5330 C   0  0  0  0  0  0  0  0  0  0  0  0
   21.8090   15.1330   11.5060 C   0  0  0  0  0  0  0  0  0  0  0  0
   22.0660   15.7110   12.7480 C   0  0  0  0  0  0  0  0  0  0  0  0
   23.3490   16.1600   12.9840 C   0  0  0  0  0  0  0  0  0  0  0  0
   24.3660   16.0700   12.0340 C   0  0  0  0  0  0  0  0  0  0  0  0
   24.1350   15.5170   10.7730 C   0  0  0  0  0  0  0  0  0  0  0  0
   25.2280   15.4480    9.8100 C   0  0  0  0  0  0  0  0  0  0  0  0
   26.2100   14.4640    9.8520 C   0  0  0  0  0  0  0  0  0  0  0  0
   27.2180   14.4910    8.8930 C   0  0  0  0  0  0  0  0  0  0  0  0
   27.2150   15.4890    7.9260 C   0  0  0  0  0  0  0  0  0  0  0  0
   26.1920   16.4210    7.9520 C   0  0  0  0  0  0  0  0  0  0  0  0
   25.1960   16.4150    8.8670 N   0  0  0  0  0  0  0  0  0  0  0  0
   25.6270   16.6460   12.5960 C   0  0  0  0  0  0  0  0  0  0  0  0
   25.2490   16.9840   13.9620 N   0  0  0  0  0  0  0  0  0  0  0  0
   26.1190   17.7950   14.8060 C   0  0  2  0  0  0  0  0  0  0  0  0
   25.7670   17.7380   16.2920 C   0  0  0  0  0  0  0  0  0  0  0  0
   26.7710   18.5660   17.0790 C   0  0  0  0  0  0  0  0  0  0  0  0
   26.8170   19.9920   16.5800 C   0  0  0  0  0  0  0  0  0  0  0  0
   27.2040   20.9190   17.2840 O   0  0  0  0  0  0  0  0  0  0  0  0
   26.4830   20.1960   15.2650 N   0  0  0  0  0  0  0  0  0  0  0  0
   26.1600   19.2510   14.3180 C   0  0  0  0  0  0  0  0  0  0  0  0
   26.0200   19.5750   13.1380 O   0  0  0  0  0  0  0  0  0  0  0  0
   23.8950   16.7950   14.1870 C   0  0  0  0  0  0  0  0  0  0  0  0
   23.2380   17.0980   15.1630 O   0  0  0  0  0  0  0  0  0  0  0  0
   21.6130   15.9230    7.0080 C   0  0  0  0  0  0  0  0  0  0  0  0
   20.6430   16.7570    6.6890 N   0  0  0  0  0  0  0  0  0  0  0  0
   18.9258   19.5062    8.5155 H   0  0  0  0  0  0  0  0  0  0  0  0
   19.7645   19.1263    6.9731 H   0  0  0  0  0  0  0  0  0  0  0  0
   18.0053   19.4896    6.9731 H   0  0  0  0  0  0  0  0  0  0  0  0
   17.9948   17.4121    8.6909 H   0  0  0  0  0  0  0  0  0  0  0  0
   17.8977   17.2066    6.8899 H   0  0  0  0  0  0  0  0  0  0  0  0
   19.7447   15.6225    9.6965 H   0  0  0  0  0  0  0  0  0  0  0  0
   20.8004   14.7576   11.2785 H   0  0  0  0  0  0  0  0  0  0  0  0
   21.2777   15.8054   13.5093 H   0  0  0  0  0  0  0  0  0  0  0  0
   26.1903   13.6823   10.6256 H   0  0  0  0  0  0  0  0  0  0  0  0
   28.0108   13.7285    8.9003 H   0  0  0  0  0  0  0  0  0  0  0  0
   28.0039   15.5370    7.1609 H   0  0  0  0  0  0  0  0  0  0  0  0
   26.1889   17.2104    7.1859 H   0  0  0  0  0  0  0  0  0  0  0  0
   26.4408   15.9061   12.5820 H   0  0  0  0  0  0  0  0  0  0  0  0
   26.0047   17.5063   12.0239 H   0  0  0  0  0  0  0  0  0  0  0  0
   27.1210   17.3512   14.7108 H   0  0  0  0  0  0  0  0  0  0  0  0
   24.7559   18.1430   16.4458 H   0  0  0  0  0  0  0  0  0  0  0  0
   25.7985   16.6944   16.6382 H   0  0  0  0  0  0  0  0  0  0  0  0
   26.4815   18.5668   18.1402 H   0  0  0  0  0  0  0  0  0  0  0  0
   27.7679   18.1198   16.9482 H   0  0  0  0  0  0  0  0  0  0  0  0
   26.4727   21.1759   14.9478 H   0  0  0  0  0  0  0  0  0  0  0  0
   22.5066   15.7368    6.3942 H   0  0  0  0  0  0  0  0  0  0  0  0
  1  2  1  0
  2  3  1  0
  3  4  2  0
  4  5  1  0
  5  6  1  0
  6  7  2  0
  6  8  2  0
  6  9  1  0
  9 10  2  0
 10 11  1  0
 11 12  2  0
 12 13  1  0
 13 14  2  0
 14 15  1  0
 15 16  2  0
 16 17  1  0
 17 18  2  0
 18 19  1  0
 19 20  2  0
 13 21  1  0
 21 22  1  0
 22 23  1  0
 23 24  1  0
 24 25  1  0
 25 26  1  0
 26 27  2  0
 26 28  1  0
 28 29  1  0
 29 30  2  0
 22 31  1  0
 31 32  2  0
  5 33  1  0
 33 34  2  0
 34  3  1  0
 14  9  1  0
 20 15  1  0
 29 23  1  0
 31 12  1  0
  1 35  1  0
  1 36  1  0
  1 37  1  0
  2 38  1  0
  2 39  1  0
  4 40  1  0
 10 41  1  0
 11 42  1  0
 16 43  1  0
 17 44  1  0
 18 45  1  0
 19 46  1  0
 21 47  1  0
 21 48  1  0
 23 49  1  1
 24 50  1  0
 24 51  1  0
 25 52  1  0
 25 53  1  0
 28 54  1  0
 33 55  1  0
M  END
>  <meeko>  (86) 
{"is_sidechain": [true], "free_energy": -11.36, "intermolecular_energy": 0.0, "internal_energy": -11.36, "cluster_size": 14, "cluster_id": 1, "rank_in_cluster": 1}

>  <_RMSD_MCS_to_ref>  (86) 
0.8739673589124735

$$$$
ligand
     RDKit          3D

 58 62  0  0  0  0  0  0  0  0999 V2000
   18.9090   19.1540    7.5370 C   0  0  0  0  0  0  0  0  0  0  0  0
   18.7730   17.6460    7.6780 C   0  0  0  0  0  0  0  0  0  0  0  0
   20.0870   16.9810    7.8900 C   0  0  0  0  0  0  0  0  0  0  0  0
   20.4600   16.0920    8.8790 C   0  0  0  0  0  0  0  0  0  0  0  0
   21.7670   15.8110    8.6020 N   0  0  0  0  0  0  0  0  0  0  0  0
   22.7030   14.6240    9.3350 S   0  0  0  0  0  6  0  0  0  0  0  0
   24.0850   14.9860    9.0980 O   0  0  0  0  0  0  0  0  0  0  0  0
   22.1380   13.3610    8.8930 O   0  0  0  0  0  0  0  0  0  0  0  0
   22.3560   14.8060   11.0640 C   0  0  0  0  0  0  0  0  0  0  0  0
   23.3460   15.3360   11.9040 C   0  0  0  0  0  0  0  0  0  0  0  0
   23.1100   15.5230   13.2710 C   0  0  0  0  0  0  0  0  0  0  0  0
   24.2080   16.1060   14.0950 C   0  0  0  0  0  0  0  0  0  0  0  0
   24.9390   15.3740   14.7530 O   0  0  0  0  0  0  0  0  0  0  0  0
   24.3740   17.4720   14.0390 N   0  0  0  0  0  0  0  0  0  0  0  0
   25.5100   18.1160   14.6850 C   0  0  2  0  0  0  0  0  0  0  0  0
   25.5280   17.8830   16.1920 C   0  0  0  0  0  0  0  0  0  0  0  0
   26.7120   18.6170   16.8030 C   0  0  0  0  0  0  0  0  0  0  0  0
   26.6810   20.0880   16.4610 C   0  0  0  0  0  0  0  0  0  0  0  0
   27.0870   20.9530   17.2320 O   0  0  0  0  0  0  0  0  0  0  0  0
   26.2010   20.4210   15.2200 N   0  0  0  0  0  0  0  0  0  0  0  0
   25.4300   19.6220   14.4140 C   0  0  0  0  0  0  0  0  0  0  0  0
   24.7280   20.1000   13.5220 O   0  0  0  0  0  0  0  0  0  0  0  0
   21.8790   15.1470   13.8340 C   0  0  0  0  0  0  0  0  0  0  0  0
   20.8750   14.5940   13.0120 C   0  0  0  0  0  0  0  0  0  0  0  0
   19.5550   14.1150   13.2470 C   0  0  0  0  0  0  0  0  0  0  0  0
   19.0580   13.6910   12.0320 C   0  0  0  0  0  0  0  0  0  0  0  0
   20.0060   13.8740   11.0740 N   0  0  0  0  0  0  0  0  0  0  0  0
   21.1330   14.4370   11.6450 C   0  0  0  0  0  0  0  0  0  0  0  0
   17.7090   13.0930   11.8350 C   0  0  0  0  0  0  0  0  0  0  0  0
   16.8850   13.2930   13.1330 C   0  0  0  0  0  0  0  0  0  0  0  0
   17.6700   13.0630   14.3700 N   0  0  0  0  0  0  0  0  0  0  0  0
   18.7550   14.0590   14.5090 C   0  0  0  0  0  0  0  0  0  0  0  0
   22.1350   16.4730    7.4750 C   0  0  0  0  0  0  0  0  0  0  0  0
   21.1380   17.2040    7.0220 N   0  0  0  0  0  0  0  0  0  0  0  0
   18.9504   19.6134    8.5356 H   0  0  0  0  0  0  0  0  0  0  0  0
   19.8320   19.3891    6.9867 H   0  0  0  0  0  0  0  0  0  0  0  0
   18.0430   19.5504    6.9867 H   0  0  0  0  0  0  0  0  0  0  0  0
   18.1226   17.4277    8.5379 H   0  0  0  0  0  0  0  0  0  0  0  0
   18.3442   17.2565    6.7429 H   0  0  0  0  0  0  0  0  0  0  0  0
   19.8445   15.6999    9.7020 H   0  0  0  0  0  0  0  0  0  0  0  0
   24.3242   15.6093   11.4816 H   0  0  0  0  0  0  0  0  0  0  0  0
   23.6850   18.0467   13.5331 H   0  0  0  0  0  0  0  0  0  0  0  0
   26.4314   17.6800   14.2716 H   0  0  0  0  0  0  0  0  0  0  0  0
   24.5942   18.2618   16.6330 H   0  0  0  0  0  0  0  0  0  0  0  0
   25.6186   16.8059   16.3960 H   0  0  0  0  0  0  0  0  0  0  0  0
   26.6792   18.5025   17.8965 H   0  0  0  0  0  0  0  0  0  0  0  0
   27.6373   18.1847   16.3943 H   0  0  0  0  0  0  0  0  0  0  0  0
   26.4412   21.3559   14.8605 H   0  0  0  0  0  0  0  0  0  0  0  0
   21.6990   15.2832   14.9106 H   0  0  0  0  0  0  0  0  0  0  0  0
   19.9010   13.6312   10.0785 H   0  0  0  0  0  0  0  0  0  0  0  0
   17.2026   13.5898   10.9943 H   0  0  0  0  0  0  0  0  0  0  0  0
   17.8026   12.0202   11.6108 H   0  0  0  0  0  0  0  0  0  0  0  0
   16.5039   14.3247   13.1486 H   0  0  0  0  0  0  0  0  0  0  0  0
   16.0737   12.5503   13.1204 H   0  0  0  0  0  0  0  0  0  0  0  0
   17.0427   13.1339   15.1839 H   0  0  0  0  0  0  0  0  0  0  0  0
   18.3188   15.0488   14.7092 H   0  0  0  0  0  0  0  0  0  0  0  0
   19.4110   13.7679   15.3426 H   0  0  0  0  0  0  0  0  0  0  0  0
   23.1278   16.4077    7.0058 H   0  0  0  0  0  0  0  0  0  0  0  0
  1  2  1  0
  2  3  1  0
  3  4  2  0
  4  5  1  0
  5  6  1  0
  6  7  2  0
  6  8  2  0
  6  9  1  0
  9 10  2  0
 10 11  1  0
 11 12  1  0
 12 13  2  0
 12 14  1  0
 14 15  1  0
 15 16  1  0
 16 17  1  0
 17 18  1  0
 18 19  2  0
 18 20  1  0
 20 21  1  0
 21 22  2  0
 11 23  2  0
 23 24  1  0
 24 25  1  0
 25 26  2  0
 26 27  1  0
 27 28  1  0
 26 29  1  0
 29 30  1  0
 30 31  1  0
 31 32  1  0
  5 33  1  0
 33 34  2  0
 34  3  1  0
 28  9  1  0
 21 15  1  0
 28 24  2  0
 32 25  1  0
  1 35  1  0
  1 36  1  0
  1 37  1  0
  2 38  1  0
  2 39  1  0
  4 40  1  0
 10 41  1  0
 14 42  1  0
 15 43  1  6
 16 44  1  0
 16 45  1  0
 17 46  1  0
 17 47  1  0
 20 48  1  0
 23 49  1  0
 27 50  1  0
 29 51  1  0
 29 52  1  0
 30 53  1  0
 30 54  1  0
 31 55  1  0
 32 56  1  0
 32 57  1  0
 33 58  1  0
M  END
>  <meeko>  (87) 
{"is_sidechain": [true], "free_energy": -11.36, "intermolecular_energy": 0.0, "internal_energy": -11.36, "cluster_size": 20, "cluster_id": 1, "rank_in_cluster": 1}

>  <_RMSD_MCS_to_ref>  (87) 
0.4391978483553857

$$$$
ligand
     RDKit          3D

 60 64  0  0  0  0  0  0  0  0999 V2000
   18.9090   19.1540    7.5370 C   0  0  0  0  0  0  0  0  0  0  0  0
   18.7730   17.6460    7.6780 C   0  0  0  0  0  0  0  0  0  0  0  0
   19.9990   16.9270    7.2350 C   0  0  0  0  0  0  0  0  0  0  0  0
   21.2250   16.8330    7.8620 C   0  0  0  0  0  0  0  0  0  0  0  0
   21.9780   16.0750    7.0120 N   0  0  0  0  0  0  0  0  0  0  0  0
   23.5010   15.4480    7.3440 S   0  0  0  0  0  6  0  0  0  0  0  0
   24.4450   16.4560    6.9000 O   0  0  0  0  0  0  0  0  0  0  0  0
   23.5040   14.0980    6.8160 O   0  0  0  0  0  0  0  0  0  0  0  0
   23.5450   15.3680    9.1100 C   0  0  0  0  0  0  0  0  0  0  0  0
   24.5860   15.9730    9.8070 C   0  0  0  0  0  0  0  0  0  0  0  0
   24.6000   15.8910   11.1970 C   0  0  0  0  0  0  0  0  0  0  0  0
   23.5770   15.2050   11.9040 C   0  0  0  0  0  0  0  0  0  0  0  0
   23.5120   15.0700   13.3100 C   0  0  0  0  0  0  0  0  0  0  0  0
   24.5910   15.6590   14.1330 C   0  0  0  0  0  0  0  0  0  0  0  0
   25.3680   14.9450   14.7510 O   0  0  0  0  0  0  0  0  0  0  0  0
   24.6230   17.0320   14.1440 N   0  0  0  0  0  0  0  0  0  0  0  0
   25.6990   17.7640   14.7920 C   0  0  2  0  0  0  0  0  0  0  0  0
   25.5920   17.7130   16.3120 C   0  0  0  0  0  0  0  0  0  0  0  0
   26.7230   18.5240   16.9260 C   0  0  0  0  0  0  0  0  0  0  0  0
   26.7260   19.9430   16.4060 C   0  0  0  0  0  0  0  0  0  0  0  0
   27.0670   20.8970   17.0990 O   0  0  0  0  0  0  0  0  0  0  0  0
   26.3520   20.1200   15.0980 N   0  0  0  0  0  0  0  0  0  0  0  0
   25.6470   19.2250   14.3330 C   0  0  0  0  0  0  0  0  0  0  0  0
   25.0250   19.5890   13.3350 O   0  0  0  0  0  0  0  0  0  0  0  0
   22.4540   14.3960   13.9440 C   0  0  0  0  0  0  0  0  0  0  0  0
   21.4980   13.8200   13.1120 C   0  0  0  0  0  0  0  0  0  0  0  0
   21.5440   13.9190   11.7610 N   0  0  0  0  0  0  0  0  0  0  0  0
   22.5420   14.5910   11.1750 C   0  0  0  0  0  0  0  0  0  0  0  0
   22.5430   14.6750    9.7920 C   0  0  0  0  0  0  0  0  0  0  0  0
   20.2960   13.0960   13.6630 C   0  0  0  0  0  0  0  0  0  0  0  0
   20.4610   12.6690   15.1180 C   0  0  0  0  0  0  0  0  0  0  0  0
   20.9880   13.8340   15.9440 C   0  0  0  0  0  0  0  0  0  0  0  0
   22.3680   14.2600   15.4440 C   0  0  0  0  0  0  0  0  0  0  0  0
   21.2140   15.6990    5.9530 C   0  0  0  0  0  0  0  0  0  0  0  0
   20.0060   16.2140    6.0530 N   0  0  0  0  0  0  0  0  0  0  0  0
   18.9504   19.6134    8.5356 H   0  0  0  0  0  0  0  0  0  0  0  0
   19.8320   19.3891    6.9867 H   0  0  0  0  0  0  0  0  0  0  0  0
   18.0430   19.5504    6.9867 H   0  0  0  0  0  0  0  0  0  0  0  0
   18.5830   17.4047    8.7342 H   0  0  0  0  0  0  0  0  0  0  0  0
   17.9404   17.3206    7.0370 H   0  0  0  0  0  0  0  0  0  0  0  0
   21.5264   17.2690    8.8259 H   0  0  0  0  0  0  0  0  0  0  0  0
   25.3838   16.5066    9.2696 H   0  0  0  0  0  0  0  0  0  0  0  0
   25.4184   16.3663   11.7577 H   0  0  0  0  0  0  0  0  0  0  0  0
   23.8661   17.5559   13.6818 H   0  0  0  0  0  0  0  0  0  0  0  0
   26.6520   17.2938   14.5079 H   0  0  0  0  0  0  0  0  0  0  0  0
   24.6257   18.1345   16.6262 H   0  0  0  0  0  0  0  0  0  0  0  0
   25.6632   16.6688   16.6503 H   0  0  0  0  0  0  0  0  0  0  0  0
   26.5981   18.5430   18.0187 H   0  0  0  0  0  0  0  0  0  0  0  0
   27.6778   18.0516   16.6517 H   0  0  0  0  0  0  0  0  0  0  0  0
   26.6254   21.0058   14.6490 H   0  0  0  0  0  0  0  0  0  0  0  0
   21.7396   14.1867    9.2209 H   0  0  0  0  0  0  0  0  0  0  0  0
   19.4242   13.7631   13.5920 H   0  0  0  0  0  0  0  0  0  0  0  0
   20.1676   12.1797   13.0680 H   0  0  0  0  0  0  0  0  0  0  0  0
   19.4868   12.3503   15.5172 H   0  0  0  0  0  0  0  0  0  0  0  0
   21.1761   11.8348   15.1714 H   0  0  0  0  0  0  0  0  0  0  0  0
   20.2935   14.6827   15.8582 H   0  0  0  0  0  0  0  0  0  0  0  0
   21.0708   13.5182   16.9944 H   0  0  0  0  0  0  0  0  0  0  0  0
   22.6163   15.2318   15.8956 H   0  0  0  0  0  0  0  0  0  0  0  0
   23.0742   13.4688   15.7361 H   0  0  0  0  0  0  0  0  0  0  0  0
   21.5561   15.0556    5.1290 H   0  0  0  0  0  0  0  0  0  0  0  0
  1  2  1  0
  2  3  1  0
  3  4  2  0
  4  5  1  0
  5  6  1  0
  6  7  2  0
  6  8  2  0
  6  9  1  0
  9 10  2  0
 10 11  1  0
 11 12  2  0
 12 13  1  0
 13 14  1  0
 14 15  2  0
 14 16  1  0
 16 17  1  0
 17 18  1  0
 18 19  1  0
 19 20  1  0
 20 21  2  0
 20 22  1  0
 22 23  1  0
 23 24  2  0
 13 25  2  0
 25 26  1  0
 26 27  2  0
 27 28  1  0
 28 29  2  0
 26 30  1  0
 30 31  1  0
 31 32  1  0
 32 33  1  0
  5 34  1  0
 34 35  2  0
 35  3  1  0
 29  9  1  0
 28 12  1  0
 23 17  1  0
 33 25  1  0
  1 36  1  0
  1 37  1  0
  1 38  1  0
  2 39  1  0
  2 40  1  0
  4 41  1  0
 10 42  1  0
 11 43  1  0
 16 44  1  0
 17 45  1  1
 18 46  1  0
 18 47  1  0
 19 48  1  0
 19 49  1  0
 22 50  1  0
 29 51  1  0
 30 52  1  0
 30 53  1  0
 31 54  1  0
 31 55  1  0
 32 56  1  0
 32 57  1  0
 33 58  1  0
 33 59  1  0
 34 60  1  0
M  END
>  <meeko>  (88) 
{"is_sidechain": [true], "free_energy": -11.36, "intermolecular_energy": 0.0, "internal_energy": -11.36, "cluster_size": 13, "cluster_id": 1, "rank_in_cluster": 1}

>  <_RMSD_MCS_to_ref>  (88) 
0.6552343940233226

$$$$
ligand
     RDKit          3D

 52 55  0  0  0  0  0  0  0  0999 V2000
   18.9090   19.1540    7.5370 C   0  0  0  0  0  0  0  0  0  0  0  0
   18.7730   17.6460    7.6780 C   0  0  0  0  0  0  0  0  0  0  0  0
   20.0660   16.9420    7.4600 C   0  0  0  0  0  0  0  0  0  0  0  0
   21.0050   16.5440    8.3900 C   0  0  0  0  0  0  0  0  0  0  0  0
   21.9710   15.9270    7.6470 N   0  0  0  0  0  0  0  0  0  0  0  0
   23.4600   15.4060    8.2220 S   0  0  0  0  0  6  0  0  0  0  0  0
   24.4410   16.3660    7.7610 O   0  0  0  0  0  0  0  0  0  0  0  0
   23.5260   13.9960    7.8880 O   0  0  0  0  0  0  0  0  0  0  0  0
   23.4800   15.4860   10.0010 C   0  0  0  0  0  0  0  0  0  0  0  0
   24.8390   16.2490   10.6940 S   0  0  0  0  0  0  0  0  0  0  0  0
   24.2740   16.0230   12.2970 C   0  0  0  0  0  0  0  0  0  0  0  0
   25.0550   16.4790   13.4470 C   0  0  0  0  0  0  0  0  0  0  0  0
   25.5190   15.7210   14.2960 O   0  0  0  0  0  0  0  0  0  0  0  0
   25.2640   17.8390   13.5380 N   0  0  0  0  0  0  0  0  0  0  0  0
   26.1520   18.4210   14.5300 C   0  0  2  0  0  0  0  0  0  0  0  0
   25.7790   18.0130   15.9500 C   0  0  0  0  0  0  0  0  0  0  0  0
   26.7220   18.6860   16.9360 C   0  0  0  0  0  0  0  0  0  0  0  0
   26.7180   20.1860   16.7620 C   0  0  0  0  0  0  0  0  0  0  0  0
   26.8680   20.9590   17.7040 O   0  0  0  0  0  0  0  0  0  0  0  0
   26.5710   20.6560   15.4810 N   0  0  0  0  0  0  0  0  0  0  0  0
   26.0800   19.9470   14.4140 C   0  0  0  0  0  0  0  0  0  0  0  0
   25.6220   20.5180   13.4240 O   0  0  0  0  0  0  0  0  0  0  0  0
   23.0490   15.3700   12.3020 C   0  0  0  0  0  0  0  0  0  0  0  0
   22.6050   15.0300   10.9720 C   0  0  0  0  0  0  0  0  0  0  0  0
   21.3180   14.2940   10.7190 C   0  0  0  0  0  0  0  0  0  0  0  0
   20.7820   13.6160   11.9840 C   0  0  0  0  0  0  0  0  0  0  0  0
   20.8190   14.5670   13.1830 C   0  0  0  0  0  0  0  0  0  0  0  0
   22.2530   14.9880   13.5250 C   0  0  0  0  0  0  0  0  0  0  0  0
   21.6400   16.0050    6.3330 C   0  0  0  0  0  0  0  0  0  0  0  0
   20.4790   16.6090    6.1850 N   0  0  0  0  0  0  0  0  0  0  0  0
   18.9504   19.6134    8.5356 H   0  0  0  0  0  0  0  0  0  0  0  0
   19.8320   19.3891    6.9867 H   0  0  0  0  0  0  0  0  0  0  0  0
   18.0430   19.5504    6.9867 H   0  0  0  0  0  0  0  0  0  0  0  0
   18.4109   17.4162    8.6910 H   0  0  0  0  0  0  0  0  0  0  0  0
   18.0654   17.2976    6.9112 H   0  0  0  0  0  0  0  0  0  0  0  0
   20.9810   16.6902    9.4800 H   0  0  0  0  0  0  0  0  0  0  0  0
   24.7744   18.4630   12.8809 H   0  0  0  0  0  0  0  0  0  0  0  0
   27.1695   18.0517   14.3345 H   0  0  0  0  0  0  0  0  0  0  0  0
   24.7452   18.3238   16.1611 H   0  0  0  0  0  0  0  0  0  0  0  0
   25.8618   16.9208   16.0511 H   0  0  0  0  0  0  0  0  0  0  0  0
   26.4026   18.4432   17.9602 H   0  0  0  0  0  0  0  0  0  0  0  0
   27.7413   18.3173   16.7487 H   0  0  0  0  0  0  0  0  0  0  0  0
   26.8553   21.6301   15.3045 H   0  0  0  0  0  0  0  0  0  0  0  0
   20.5662   15.0096   10.3547 H   0  0  0  0  0  0  0  0  0  0  0  0
   21.5177   13.5099    9.9738 H   0  0  0  0  0  0  0  0  0  0  0  0
   19.7428   13.3007   11.8087 H   0  0  0  0  0  0  0  0  0  0  0  0
   21.4192   12.7482   12.2094 H   0  0  0  0  0  0  0  0  0  0  0  0
   20.2304   15.4652   12.9446 H   0  0  0  0  0  0  0  0  0  0  0  0
   20.3980   14.0411   14.0526 H   0  0  0  0  0  0  0  0  0  0  0  0
   22.2146   15.8517   14.2051 H   0  0  0  0  0  0  0  0  0  0  0  0
   22.7519   14.1269   13.9935 H   0  0  0  0  0  0  0  0  0  0  0  0
   22.2552   15.6180    5.5073 H   0  0  0  0  0  0  0  0  0  0  0  0
  1  2  1  0
  2  3  1  0
  3  4  2  0
  4  5  1  0
  5  6  1  0
  6  7  2  0
  6  8  2  0
  6  9  1  0
  9 10  1  0
 10 11  1  0
 11 12  1  0
 12 13  2  0
 12 14  1  0
 14 15  1  0
 15 16  1  0
 16 17  1  0
 17 18  1  0
 18 19  2  0
 18 20  1  0
 20 21  1  0
 21 22  2  0
 11 23  2  0
 23 24  1  0
 24 25  1  0
 25 26  1  0
 26 27  1  0
 27 28  1  0
  5 29  1  0
 29 30  2  0
 30  3  1  0
 24  9  2  0
 21 15  1  0
 28 23  1  0
  1 31  1  0
  1 32  1  0
  1 33  1  0
  2 34  1  0
  2 35  1  0
  4 36  1  0
 14 37  1  0
 15 38  1  6
 16 39  1  0
 16 40  1  0
 17 41  1  0
 17 42  1  0
 20 43  1  0
 25 44  1  0
 25 45  1  0
 26 46  1  0
 26 47  1  0
 27 48  1  0
 27 49  1  0
 28 50  1  0
 28 51  1  0
 29 52  1  0
M  END
>  <meeko>  (89) 
{"is_sidechain": [true], "free_energy": -11.36, "intermolecular_energy": 0.0, "internal_energy": -11.36, "cluster_size": 17, "cluster_id": 1, "rank_in_cluster": 1}

>  <_RMSD_MCS_to_ref>  (89) 
0.8034748837946892

$$$$
ligand
     RDKit          3D

 49 52  0  0  0  0  0  0  0  0999 V2000
   18.9090   19.1540    7.5370 C   0  0  0  0  0  0  0  0  0  0  0  0
   18.7730   17.6460    7.6780 C   0  0  0  0  0  0  0  0  0  0  0  0
   20.0580   16.9410    7.4230 C   0  0  0  0  0  0  0  0  0  0  0  0
   20.7940   16.1390    8.2750 C   0  0  0  0  0  0  0  0  0  0  0  0
   21.8810   15.7740    7.5340 N   0  0  0  0  0  0  0  0  0  0  0  0
   23.0420   14.6480    7.9860 S   0  0  0  0  0  6  0  0  0  0  0  0
   23.8420   14.4200    6.7950 O   0  0  0  0  0  0  0  0  0  0  0  0
   22.3350   13.5810    8.6670 O   0  0  0  0  0  0  0  0  0  0  0  0
   24.0430   15.5150    9.1640 C   0  0  0  0  0  0  0  0  0  0  0  0
   25.2380   16.1110    8.7330 C   0  0  0  0  0  0  0  0  0  0  0  0
   26.0580   16.7840    9.6340 C   0  0  0  0  0  0  0  0  0  0  0  0
   25.7020   16.8860   10.9840 C   0  0  0  0  0  0  0  0  0  0  0  0
   24.4940   16.3160   11.4440 C   0  0  0  0  0  0  0  0  0  0  0  0
   23.8410   16.2480   12.7260 C   0  0  0  0  0  0  0  0  0  0  0  0
   24.3300   16.8140   13.9850 C   0  0  0  0  0  0  0  0  0  0  0  0
   24.3100   16.1940   15.0450 O   0  0  0  0  0  0  0  0  0  0  0  0
   24.8020   18.1040   13.9100 N   0  0  0  0  0  0  0  0  0  0  0  0
   25.1730   18.8480   15.1040 C   0  0  1  0  0  0  0  0  0  0  0  0
   26.2110   18.1130   15.9440 C   0  0  0  0  0  0  0  0  0  0  0  0
   26.5800   18.9630   17.1510 C   0  0  0  0  0  0  0  0  0  0  0  0
   27.0610   20.3320   16.7310 C   0  0  0  0  0  0  0  0  0  0  0  0
   27.9260   20.9450   17.3490 O   0  0  0  0  0  0  0  0  0  0  0  0
   26.4610   20.8830   15.6270 N   0  0  0  0  0  0  0  0  0  0  0  0
   25.7480   20.2010   14.6730 C   0  0  0  0  0  0  0  0  0  0  0  0
   25.5820   20.6670   13.5460 O   0  0  0  0  0  0  0  0  0  0  0  0
   22.6580   15.5560   12.5190 C   0  0  0  0  0  0  0  0  0  0  0  0
   22.5770   15.2080   11.1980 N   0  0  0  0  0  0  0  0  0  0  0  0
   23.6900   15.6490   10.5190 C   0  0  0  0  0  0  0  0  0  0  0  0
   21.7710   16.3030    6.2880 C   0  0  0  0  0  0  0  0  0  0  0  0
   20.6750   17.0270    6.1900 N   0  0  0  0  0  0  0  0  0  0  0  0
   18.9504   19.6134    8.5356 H   0  0  0  0  0  0  0  0  0  0  0  0
   19.8320   19.3891    6.9867 H   0  0  0  0  0  0  0  0  0  0  0  0
   18.0430   19.5504    6.9867 H   0  0  0  0  0  0  0  0  0  0  0  0
   18.4382   17.4142    8.6999 H   0  0  0  0  0  0  0  0  0  0  0  0
   18.0436   17.3007    6.9305 H   0  0  0  0  0  0  0  0  0  0  0  0
   20.5580   15.8591    9.3123 H   0  0  0  0  0  0  0  0  0  0  0  0
   25.5291   16.0458    7.6742 H   0  0  0  0  0  0  0  0  0  0  0  0
   26.9950   17.2402    9.2819 H   0  0  0  0  0  0  0  0  0  0  0  0
   26.3642   17.4111   11.6881 H   0  0  0  0  0  0  0  0  0  0  0  0
   24.8948   18.5533   12.9878 H   0  0  0  0  0  0  0  0  0  0  0  0
   24.2723   18.9721   15.7232 H   0  0  0  0  0  0  0  0  0  0  0  0
   25.7946   17.1535   16.2846 H   0  0  0  0  0  0  0  0  0  0  0  0
   27.1096   17.9276   15.3372 H   0  0  0  0  0  0  0  0  0  0  0  0
   25.6947   19.0758   17.7941 H   0  0  0  0  0  0  0  0  0  0  0  0
   27.3937   18.4603   17.6943 H   0  0  0  0  0  0  0  0  0  0  0  0
   26.5541   21.9012   15.5029 H   0  0  0  0  0  0  0  0  0  0  0  0
   21.9079   15.3247   13.2896 H   0  0  0  0  0  0  0  0  0  0  0  0
   21.7949   14.6901   10.7727 H   0  0  0  0  0  0  0  0  0  0  0  0
   22.4955   16.1485    5.4748 H   0  0  0  0  0  0  0  0  0  0  0  0
  1  2  1  0
  2  3  1  0
  3  4  2  0
  4  5  1  0
  5  6  1  0
  6  7  2  0
  6  8  2  0
  6  9  1  0
  9 10  2  0
 10 11  1  0
 11 12  2  0
 12 13  1  0
 13 14  1  0
 14 15  1  0
 15 16  2  0
 15 17  1  0
 17 18  1  0
 18 19  1  0
 19 20  1  0
 20 21  1  0
 21 22  2  0
 21 23  1  0
 23 24  1  0
 24 25  2  0
 14 26  2  0
 26 27  1  0
 27 28  1  0
  5 29  1  0
 29 30  2  0
 30  3  1  0
 28  9  1  0
 28 13  2  0
 24 18  1  0
  1 31  1  0
  1 32  1  0
  1 33  1  0
  2 34  1  0
  2 35  1  0
  4 36  1  0
 10 37  1  0
 11 38  1  0
 12 39  1  0
 17 40  1  0
 18 41  1  1
 19 42  1  0
 19 43  1  0
 20 44  1  0
 20 45  1  0
 23 46  1  0
 26 47  1  0
 27 48  1  0
 29 49  1  0
M  END
>  <meeko>  (90) 
{"is_sidechain": [true], "free_energy": -11.35, "intermolecular_energy": 0.0, "internal_energy": -11.35, "cluster_size": 15, "cluster_id": 1, "rank_in_cluster": 1}

>  <_RMSD_MCS_to_ref>  (90) 
0.7410226885865234

$$$$
ligand
     RDKit          3D

 48 51  0  0  0  0  0  0  0  0999 V2000
   18.9090   19.1540    7.5370 C   0  0  0  0  0  0  0  0  0  0  0  0
   18.7730   17.6460    7.6780 C   0  0  0  0  0  0  0  0  0  0  0  0
   20.0920   16.9580    7.6450 C   0  0  0  0  0  0  0  0  0  0  0  0
   20.4980   15.8250    8.3220 C   0  0  0  0  0  0  0  0  0  0  0  0
   21.7840   15.6310    7.9090 N   0  0  0  0  0  0  0  0  0  0  0  0
   22.8730   14.5250    8.5560 S   0  0  0  0  0  6  0  0  0  0  0  0
   23.3580   13.7550    7.4260 O   0  0  0  0  0  0  0  0  0  0  0  0
   22.1980   13.9060    9.6790 O   0  0  0  0  0  0  0  0  0  0  0  0
   24.1820   15.5430    9.1750 C   0  0  0  0  0  0  0  0  0  0  0  0
   25.2620   15.8020    8.3160 C   0  0  0  0  0  0  0  0  0  0  0  0
   26.3350   16.5690    8.7610 C   0  0  0  0  0  0  0  0  0  0  0  0
   26.3300   17.0780   10.0570 C   0  0  0  0  0  0  0  0  0  0  0  0
   25.2540   16.8420   10.9190 C   0  0  0  0  0  0  0  0  0  0  0  0
   25.3270   17.3920   12.2110 N   0  0  0  0  0  0  0  0  0  0  0  0
   24.3370   17.2120   13.0380 C   0  0  0  0  0  0  0  0  0  0  0  0
   24.3530   17.7140   14.3240 N   0  0  0  0  0  0  0  0  0  0  0  0
   25.5640   18.2390   14.9420 C   0  0  2  0  0  0  0  0  0  0  0  0
   25.4870   18.0900   16.4580 C   0  0  0  0  0  0  0  0  0  0  0  0
   26.7320   18.6870   17.0950 C   0  0  0  0  0  0  0  0  0  0  0  0
   26.9100   20.1340   16.7000 C   0  0  0  0  0  0  0  0  0  0  0  0
   27.4520   20.9540   17.4340 O   0  0  0  0  0  0  0  0  0  0  0  0
   26.4720   20.4840   15.4480 N   0  0  0  0  0  0  0  0  0  0  0  0
   25.7150   19.7240   14.5900 C   0  0  0  0  0  0  0  0  0  0  0  0
   25.2060   20.2250   13.5870 O   0  0  0  0  0  0  0  0  0  0  0  0
   23.0760   16.4240   12.6150 C   0  0  0  0  0  0  0  0  0  0  0  0
   22.1390   16.3200   13.3940 O   0  0  0  0  0  0  0  0  0  0  0  0
   23.0910   15.8880   11.3550 N   0  0  0  0  0  0  0  0  0  0  0  0
   24.1630   16.0760   10.4700 C   0  0  0  0  0  0  0  0  0  0  0  0
   22.1370   16.6310    7.0620 C   0  0  0  0  0  0  0  0  0  0  0  0
   21.1240   17.4520    6.8740 N   0  0  0  0  0  0  0  0  0  0  0  0
   18.9504   19.6134    8.5356 H   0  0  0  0  0  0  0  0  0  0  0  0
   19.8320   19.3891    6.9867 H   0  0  0  0  0  0  0  0  0  0  0  0
   18.0430   19.5504    6.9867 H   0  0  0  0  0  0  0  0  0  0  0  0
   18.2806   17.4226    8.6359 H   0  0  0  0  0  0  0  0  0  0  0  0
   18.1790   17.2792    6.8279 H   0  0  0  0  0  0  0  0  0  0  0  0
   19.9174   15.2177    9.0320 H   0  0  0  0  0  0  0  0  0  0  0  0
   25.2602   15.3992    7.2924 H   0  0  0  0  0  0  0  0  0  0  0  0
   27.1837   16.7722    8.0913 H   0  0  0  0  0  0  0  0  0  0  0  0
   27.1849   17.6745   10.4082 H   0  0  0  0  0  0  0  0  0  0  0  0
   23.4773   17.7176   14.8663 H   0  0  0  0  0  0  0  0  0  0  0  0
   26.4299   17.6746   14.5656 H   0  0  0  0  0  0  0  0  0  0  0  0
   24.5965   18.6160   16.8324 H   0  0  0  0  0  0  0  0  0  0  0  0
   25.4213   17.0228   16.7165 H   0  0  0  0  0  0  0  0  0  0  0  0
   26.6406   18.6228   18.1893 H   0  0  0  0  0  0  0  0  0  0  0  0
   27.6074   18.1209   16.7440 H   0  0  0  0  0  0  0  0  0  0  0  0
   26.7406   21.4207   15.1143 H   0  0  0  0  0  0  0  0  0  0  0  0
   22.2852   15.3259   11.0456 H   0  0  0  0  0  0  0  0  0  0  0  0
   23.1284   16.7405    6.5982 H   0  0  0  0  0  0  0  0  0  0  0  0
  1  2  1  0
  2  3  1  0
  3  4  2  0
  4  5  1  0
  5  6  1  0
  6  7  2  0
  6  8  2  0
  6  9  1  0
  9 10  2  0
 10 11  1  0
 11 12  2  0
 12 13  1  0
 13 14  1  0
 14 15  2  0
 15 16  1  0
 16 17  1  0
 17 18  1  0
 18 19  1  0
 19 20  1  0
 20 21  2  0
 20 22  1  0
 22 23  1  0
 23 24  2  0
 15 25  1  0
 25 26  2  0
 25 27  1  0
 27 28  1  0
  5 29  1  0
 29 30  2  0
 30  3  1  0
 28  9  1  0
 28 13  2  0
 23 17  1  0
  1 31  1  0
  1 32  1  0
  1 33  1  0
  2 34  1  0
  2 35  1  0
  4 36  1  0
 10 37  1  0
 11 38  1  0
 12 39  1  0
 16 40  1  0
 17 41  1  6
 18 42  1  0
 18 43  1  0
 19 44  1  0
 19 45  1  0
 22 46  1  0
 27 47  1  0
 29 48  1  0
M  END
>  <meeko>  (91) 
{"is_sidechain": [true], "free_energy": -11.35, "intermolecular_energy": 0.0, "internal_energy": -11.35, "cluster_size": 14, "cluster_id": 1, "rank_in_cluster": 1}

>  <_RMSD_MCS_to_ref>  (91) 
0.6630439067077097

$$$$
ligand
     RDKit          3D

 47 50  0  0  0  0  0  0  0  0999 V2000
   18.9090   19.1540    7.5370 C   0  0  0  0  0  0  0  0  0  0  0  0
   18.7730   17.6460    7.6780 C   0  0  0  0  0  0  0  0  0  0  0  0
   19.9780   16.9250    7.1870 C   0  0  0  0  0  0  0  0  0  0  0  0
   20.9960   16.3360    7.9120 C   0  0  0  0  0  0  0  0  0  0  0  0
   21.8510   15.8570    6.9610 N   0  0  0  0  0  0  0  0  0  0  0  0
   23.1550   14.8270    7.2400 S   0  0  0  0  0  6  0  0  0  0  0  0
   23.8180   14.7130    5.9530 O   0  0  0  0  0  0  0  0  0  0  0  0
   22.5820   13.6730    7.9050 O   0  0  0  0  0  0  0  0  0  0  0  0
   24.1350   15.6140    8.2780 O   0  0  0  0  0  0  0  0  0  0  0  0
   23.8730   15.7020    9.6240 C   0  0  0  0  0  0  0  0  0  0  0  0
   22.8400   15.0200   10.2970 C   0  0  0  0  0  0  0  0  0  0  0  0
   22.6540   15.1820   11.6750 C   0  0  0  0  0  0  0  0  0  0  0  0
   23.5170   16.0300   12.3410 C   0  0  0  0  0  0  0  0  0  0  0  0
   24.5410   16.7060   11.6940 C   0  0  0  0  0  0  0  0  0  0  0  0
   24.7330   16.5560   10.3290 C   0  0  0  0  0  0  0  0  0  0  0  0
   25.3370   17.5520   12.6010 C   0  0  0  0  0  0  0  0  0  0  0  0
   26.2640   18.2630   12.2610 O   0  0  0  0  0  0  0  0  0  0  0  0
   24.8600   17.4020   13.9240 N   0  0  0  0  0  0  0  0  0  0  0  0
   25.1310   18.3110   15.0450 C   0  0  1  0  0  0  0  0  0  0  0  0
   26.3070   17.7950   15.8690 C   0  0  0  0  0  0  0  0  0  0  0  0
   26.6000   18.7660   17.0010 C   0  0  0  0  0  0  0  0  0  0  0  0
   26.8640   20.1560   16.4740 C   0  0  0  0  0  0  0  0  0  0  0  0
   27.5890   20.9540   17.0610 O   0  0  0  0  0  0  0  0  0  0  0  0
   26.2010   20.5130   15.3260 N   0  0  0  0  0  0  0  0  0  0  0  0
   25.4200   19.7160   14.5210 C   0  0  0  0  0  0  0  0  0  0  0  0
   24.9670   20.1530   13.4640 O   0  0  0  0  0  0  0  0  0  0  0  0
   23.5050   16.4110   14.0370 S   0  0  0  0  0  6  0  0  0  0  0  0
   22.3400   17.2090   14.3310 O   0  0  0  0  0  0  0  0  0  0  0  0
   23.8680   15.2300   14.7830 O   0  0  0  0  0  0  0  0  0  0  0  0
   21.3180   16.0790    5.7320 C   0  0  0  0  0  0  0  0  0  0  0  0
   20.1890   16.7490    5.8330 N   0  0  0  0  0  0  0  0  0  0  0  0
   18.9504   19.6134    8.5356 H   0  0  0  0  0  0  0  0  0  0  0  0
   19.8320   19.3891    6.9867 H   0  0  0  0  0  0  0  0  0  0  0  0
   18.0430   19.5504    6.9867 H   0  0  0  0  0  0  0  0  0  0  0  0
   18.6221   17.4016    8.7398 H   0  0  0  0  0  0  0  0  0  0  0  0
   17.9157   17.3256    7.0678 H   0  0  0  0  0  0  0  0  0  0  0  0
   21.0951   16.2684    9.0054 H   0  0  0  0  0  0  0  0  0  0  0  0
   22.1719   14.3525    9.7331 H   0  0  0  0  0  0  0  0  0  0  0  0
   21.8499   14.6533   12.2078 H   0  0  0  0  0  0  0  0  0  0  0  0
   25.5408   17.0942    9.8115 H   0  0  0  0  0  0  0  0  0  0  0  0
   24.2434   18.3535   15.6934 H   0  0  0  0  0  0  0  0  0  0  0  0
   26.0563   16.8092   16.2877 H   0  0  0  0  0  0  0  0  0  0  0  0
   27.1940   17.7060   15.2246 H   0  0  0  0  0  0  0  0  0  0  0  0
   25.7346   18.7979   17.6793 H   0  0  0  0  0  0  0  0  0  0  0  0
   27.4979   18.4192   17.5335 H   0  0  0  0  0  0  0  0  0  0  0  0
   26.3001   21.4952   15.0321 H   0  0  0  0  0  0  0  0  0  0  0  0
   21.7666   15.7457    4.7846 H   0  0  0  0  0  0  0  0  0  0  0  0
  1  2  1  0
  2  3  1  0
  3  4  2  0
  4  5  1  0
  5  6  1  0
  6  7  2  0
  6  8  2  0
  6  9  1  0
  9 10  1  0
 10 11  2  0
 11 12  1  0
 12 13  2  0
 13 14  1  0
 14 15  2  0
 14 16  1  0
 16 17  2  0
 16 18  1  0
 18 19  1  0
 19 20  1  0
 20 21  1  0
 21 22  1  0
 22 23  2  0
 22 24  1  0
 24 25  1  0
 25 26  2  0
 18 27  1  0
 27 28  2  0
 27 29  2  0
  5 30  1  0
 30 31  2  0
 31  3  1  0
 15 10  1  0
 25 19  1  0
 27 13  1  0
  1 32  1  0
  1 33  1  0
  1 34  1  0
  2 35  1  0
  2 36  1  0
  4 37  1  0
 11 38  1  0
 12 39  1  0
 15 40  1  0
 19 41  1  1
 20 42  1  0
 20 43  1  0
 21 44  1  0
 21 45  1  0
 24 46  1  0
 30 47  1  0
M  END
>  <meeko>  (92) 
{"is_sidechain": [true], "free_energy": -11.35, "intermolecular_energy": 0.0, "internal_energy": -11.35, "cluster_size": 20, "cluster_id": 1, "rank_in_cluster": 1}

>  <_RMSD_MCS_to_ref>  (92) 
0.3651369606051951

$$$$
ligand
     RDKit          3D

 54 58  0  0  0  0  0  0  0  0999 V2000
   18.7970   18.8170    7.7190 C   0  0  0  0  0  0  0  0  0  0  0  0
   18.5280   17.3290    7.8810 C   0  0  0  0  0  0  0  0  0  0  0  0
   19.7620   16.5140    7.7160 C   0  0  0  0  0  0  0  0  0  0  0  0
   20.4170   15.7290    8.6440 C   0  0  0  0  0  0  0  0  0  0  0  0
   21.4970   15.2380    7.9660 N   0  0  0  0  0  0  0  0  0  0  0  0
   22.5440   14.0480    8.5190 S   0  0  0  0  0  6  0  0  0  0  0  0
   23.7230   14.1370    7.6780 O   0  0  0  0  0  0  0  0  0  0  0  0
   21.7560   12.8370    8.6280 O   0  0  0  0  0  0  0  0  0  0  0  0
   22.9760   14.5960   10.1490 C   0  0  0  0  0  0  0  0  0  0  0  0
   24.1200   15.3700   10.3260 C   0  0  0  0  0  0  0  0  0  0  0  0
   24.4020   15.7580   11.6190 C   0  0  0  0  0  0  0  0  0  0  0  0
   23.5980   15.4270   12.7150 C   0  0  0  0  0  0  0  0  0  0  0  0
   22.4260   14.6840   12.5560 C   0  0  0  0  0  0  0  0  0  0  0  0
   21.5420   14.3540   13.6860 C   0  0  0  0  0  0  0  0  0  0  0  0
   20.9410   13.1050   13.8580 C   0  0  0  0  0  0  0  0  0  0  0  0
   20.1400   12.7970   14.9080 N   0  0  0  0  0  0  0  0  0  0  0  0
   19.9460   13.7940   15.7970 C   0  0  0  0  0  0  0  0  0  0  0  0
   20.5240   15.0400   15.6400 C   0  0  0  0  0  0  0  0  0  0  0  0
   21.3240   15.3460   14.5900 N   0  0  0  0  0  0  0  0  0  0  0  0
   22.1350   14.2660   11.2370 C   0  0  0  0  0  0  0  0  0  0  0  0
   24.1880   16.0220   13.9590 C   0  0  0  0  0  0  0  0  0  0  0  0
   25.4050   16.6580   13.4680 N   0  0  0  0  0  0  0  0  0  0  0  0
   26.1860   17.6040   14.2560 C   0  0  2  0  0  0  0  0  0  0  0  0
   26.0090   17.4040   15.7580 C   0  0  0  0  0  0  0  0  0  0  0  0
   26.9120   18.3720   16.5070 C   0  0  0  0  0  0  0  0  0  0  0  0
   26.6410   19.8000   16.0930 C   0  0  0  0  0  0  0  0  0  0  0  0
   26.7020   20.7370   16.8850 O   0  0  0  0  0  0  0  0  0  0  0  0
   26.3360   20.0090   14.7720 N   0  0  0  0  0  0  0  0  0  0  0  0
   25.8480   19.0630   13.8990 C   0  0  0  0  0  0  0  0  0  0  0  0
   25.1880   19.4030   12.9210 O   0  0  0  0  0  0  0  0  0  0  0  0
   25.5230   16.5760   12.0930 C   0  0  0  0  0  0  0  0  0  0  0  0
   26.3700   17.0710   11.3760 O   0  0  0  0  0  0  0  0  0  0  0  0
   21.4490   15.6720    6.6800 C   0  0  0  0  0  0  0  0  0  0  0  0
   20.4090   16.4590    6.4970 N   0  0  0  0  0  0  0  0  0  0  0  0
   18.8815   19.2845    8.7111 H   0  0  0  0  0  0  0  0  0  0  0  0
   19.7359   18.9616    7.1643 H   0  0  0  0  0  0  0  0  0  0  0  0
   17.9682   19.2812    7.1643 H   0  0  0  0  0  0  0  0  0  0  0  0
   18.1172   17.1505    8.8857 H   0  0  0  0  0  0  0  0  0  0  0  0
   17.8165   17.0271    7.0983 H   0  0  0  0  0  0  0  0  0  0  0  0
   20.1340   15.5416    9.6903 H   0  0  0  0  0  0  0  0  0  0  0  0
   24.7634   15.6562    9.4809 H   0  0  0  0  0  0  0  0  0  0  0  0
   21.1275   12.3292   13.1008 H   0  0  0  0  0  0  0  0  0  0  0  0
   19.3080   13.6093   16.6739 H   0  0  0  0  0  0  0  0  0  0  0  0
   20.3268   15.8133   16.3971 H   0  0  0  0  0  0  0  0  0  0  0  0
   21.2303   13.6682   11.0522 H   0  0  0  0  0  0  0  0  0  0  0  0
   23.5072   16.7615   14.4058 H   0  0  0  0  0  0  0  0  0  0  0  0
   24.3731   15.2808   14.7504 H   0  0  0  0  0  0  0  0  0  0  0  0
   27.2365   17.4018   14.0001 H   0  0  0  0  0  0  0  0  0  0  0  0
   24.9607   17.5932   16.0323 H   0  0  0  0  0  0  0  0  0  0  0  0
   26.2765   16.3710   16.0249 H   0  0  0  0  0  0  0  0  0  0  0  0
   26.7301   18.2704   17.5871 H   0  0  0  0  0  0  0  0  0  0  0  0
   27.9581   18.1311   16.2667 H   0  0  0  0  0  0  0  0  0  0  0  0
   26.4854   20.9579   14.4003 H   0  0  0  0  0  0  0  0  0  0  0  0
   22.1770   15.4037    5.9002 H   0  0  0  0  0  0  0  0  0  0  0  0
  1  2  1  0
  2  3  1  0
  3  4  2  0
  4  5  1  0
  5  6  1  0
  6  7  2  0
  6  8  2  0
  6  9  1  0
  9 10  2  0
 10 11  1  0
 11 12  2  0
 12 13  1  0
 13 14  1  0
 14 15  2  0
 15 16  1  0
 16 17  2  0
 17 18  1  0
 18 19  2  0
 13 20  2  0
 12 21  1  0
 21 22  1  0
 22 23  1  0
 23 24  1  0
 24 25  1  0
 25 26  1  0
 26 27  2  0
 26 28  1  0
 28 29  1  0
 29 30  2  0
 22 31  1  0
 31 32  2  0
  5 33  1  0
 33 34  2  0
 34  3  1  0
 20  9  1  0
 29 23  1  0
 31 11  1  0
 19 14  1  0
  1 35  1  0
  1 36  1  0
  1 37  1  0
  2 38  1  0
  2 39  1  0
  4 40  1  0
 10 41  1  0
 15 42  1  0
 17 43  1  0
 18 44  1  0
 20 45  1  0
 21 46  1  0
 21 47  1  0
 23 48  1  1
 24 49  1  0
 24 50  1  0
 25 51  1  0
 25 52  1  0
 28 53  1  0
 33 54  1  0
M  END
>  <meeko>  (93) 
{"is_sidechain": [true], "free_energy": -11.34, "intermolecular_energy": 0.0, "internal_energy": -11.34, "cluster_size": 15, "cluster_id": 1, "rank_in_cluster": 1}

>  <_RMSD_MCS_to_ref>  (93) 
1.9926361378279225

$$$$
ligand
     RDKit          3D

 52 56  0  0  0  0  0  0  0  0999 V2000
   18.9090   19.1530    7.5370 C   0  0  0  0  0  0  0  0  0  0  0  0
   18.7730   17.6470    7.6780 C   0  0  0  0  0  0  0  0  0  0  0  0
   20.0810   16.9830    7.9240 C   0  0  0  0  0  0  0  0  0  0  0  0
   21.1500   16.8290    7.0640 C   0  0  0  0  0  0  0  0  0  0  0  0
   22.0830   16.1640    7.8050 N   0  0  0  0  0  0  0  0  0  0  0  0
   23.6680   15.8350    7.3650 S   0  0  0  0  0  6  0  0  0  0  0  0
   23.6160   15.6420    5.9290 O   0  0  0  0  0  0  0  0  0  0  0  0
   24.4870   16.8520    7.9950 O   0  0  0  0  0  0  0  0  0  0  0  0
   24.1750   14.3080    8.0780 C   0  0  0  0  0  0  0  0  0  0  0  0
   24.6720   13.0750    6.9890 S   0  0  0  0  0  0  0  0  0  0  0  0
   24.9260   12.0200    8.3130 C   0  0  0  0  0  0  0  0  0  0  0  0
   24.6830   12.5200    9.5040 N   0  0  0  0  0  0  0  0  0  0  0  0
   24.2940   13.8410    9.3740 C   0  0  0  0  0  0  0  0  0  0  0  0
   24.0050   14.6340   10.5500 C   0  0  0  0  0  0  0  0  0  0  0  0
   22.8780   14.3310   11.3490 C   0  0  0  0  0  0  0  0  0  0  0  0
   22.6150   15.0590   12.5110 C   0  0  0  0  0  0  0  0  0  0  0  0
   23.4930   16.0760   12.8370 C   0  0  0  0  0  0  0  0  0  0  0  0
   24.6000   16.3980   12.0530 C   0  0  0  0  0  0  0  0  0  0  0  0
   24.8630   15.6910   10.8930 C   0  0  0  0  0  0  0  0  0  0  0  0
   25.3600   17.5240   12.6740 C   0  0  0  0  0  0  0  0  0  0  0  0
   24.5620   17.8250   13.8570 N   0  0  0  0  0  0  0  0  0  0  0  0
   24.9880   18.7350   14.9180 C   0  0  1  0  0  0  0  0  0  0  0  0
   25.9800   18.0480   15.8570 C   0  0  0  0  0  0  0  0  0  0  0  0
   26.3090   18.9670   17.0210 C   0  0  0  0  0  0  0  0  0  0  0  0
   26.8370   20.2960   16.5370 C   0  0  0  0  0  0  0  0  0  0  0  0
   27.6530   20.9520   17.1770 O   0  0  0  0  0  0  0  0  0  0  0  0
   26.3290   20.7630   15.3510 N   0  0  0  0  0  0  0  0  0  0  0  0
   25.5820   20.0660   14.4290 C   0  0  0  0  0  0  0  0  0  0  0  0
   25.3990   20.5370   13.3080 O   0  0  0  0  0  0  0  0  0  0  0  0
   23.4910   16.9600   14.0070 C   0  0  0  0  0  0  0  0  0  0  0  0
   22.7100   16.8870   14.9360 O   0  0  0  0  0  0  0  0  0  0  0  0
   21.5820   15.9230    9.0420 C   0  0  0  0  0  0  0  0  0  0  0  0
   20.3700   16.4270    9.1560 N   0  0  0  0  0  0  0  0  0  0  0  0
   18.9505   19.6125    8.5356 H   0  0  0  0  0  0  0  0  0  0  0  0
   19.8320   19.3879    6.9867 H   0  0  0  0  0  0  0  0  0  0  0  0
   18.0430   19.5494    6.9867 H   0  0  0  0  0  0  0  0  0  0  0  0
   18.1017   17.4299    8.5219 H   0  0  0  0  0  0  0  0  0  0  0  0
   18.3692   17.2555    6.7327 H   0  0  0  0  0  0  0  0  0  0  0  0
   21.2311   17.1655    6.0199 H   0  0  0  0  0  0  0  0  0  0  0  0
   25.2721   10.9850    8.1752 H   0  0  0  0  0  0  0  0  0  0  0  0
   22.2029   13.5148   11.0524 H   0  0  0  0  0  0  0  0  0  0  0  0
   21.7433   14.8323   13.1424 H   0  0  0  0  0  0  0  0  0  0  0  0
   25.7217   15.9503   10.2563 H   0  0  0  0  0  0  0  0  0  0  0  0
   26.3784   17.2127   12.9495 H   0  0  0  0  0  0  0  0  0  0  0  0
   25.4951   18.3857   12.0038 H   0  0  0  0  0  0  0  0  0  0  0  0
   24.0621   18.9919   15.4534 H   0  0  0  0  0  0  0  0  0  0  0  0
   25.5353   17.1179   16.2406 H   0  0  0  0  0  0  0  0  0  0  0  0
   26.9028   17.8177   15.3044 H   0  0  0  0  0  0  0  0  0  0  0  0
   25.3971   19.1373   17.6122 H   0  0  0  0  0  0  0  0  0  0  0  0
   27.0857   18.4868   17.6343 H   0  0  0  0  0  0  0  0  0  0  0  0
   26.5297   21.7477   15.1250 H   0  0  0  0  0  0  0  0  0  0  0  0
   22.1134   15.3822    9.8390 H   0  0  0  0  0  0  0  0  0  0  0  0
  1  2  1  0
  2  3  1  0
  3  4  2  0
  4  5  1  0
  5  6  1  0
  6  7  2  0
  6  8  2  0
  6  9  1  0
  9 10  1  0
 10 11  1  0
 11 12  2  0
 12 13  1  0
 13 14  1  0
 14 15  2  0
 15 16  1  0
 16 17  2  0
 17 18  1  0
 18 19  2  0
 18 20  1  0
 20 21  1  0
 21 22  1  0
 22 23  1  0
 23 24  1  0
 24 25  1  0
 25 26  2  0
 25 27  1  0
 27 28  1  0
 28 29  2  0
 21 30  1  0
 30 31  2  0
  5 32  1  0
 32 33  2  0
 33  3  1  0
 13  9  2  0
 19 14  1  0
 28 22  1  0
 30 17  1  0
  1 34  1  0
  1 35  1  0
  1 36  1  0
  2 37  1  0
  2 38  1  0
  4 39  1  0
 11 40  1  0
 15 41  1  0
 16 42  1  0
 19 43  1  0
 20 44  1  0
 20 45  1  0
 22 46  1  1
 23 47  1  0
 23 48  1  0
 24 49  1  0
 24 50  1  0
 27 51  1  0
 32 52  1  0
M  END
>  <meeko>  (94) 
{"is_sidechain": [true], "free_energy": -11.34, "intermolecular_energy": 0.0, "internal_energy": -11.34, "cluster_size": 20, "cluster_id": 1, "rank_in_cluster": 1}

>  <_RMSD_MCS_to_ref>  (94) 
0.8828969676896369

$$$$
ligand
     RDKit          3D

 48 51  0  0  0  0  0  0  0  0999 V2000
   18.9090   19.1540    7.5370 C   0  0  0  0  0  0  0  0  0  0  0  0
   18.7730   17.6460    7.6780 C   0  0  0  0  0  0  0  0  0  0  0  0
   20.0540   16.9380    7.4060 C   0  0  0  0  0  0  0  0  0  0  0  0
   20.8920   16.2880    8.2900 C   0  0  0  0  0  0  0  0  0  0  0  0
   21.9160   15.8370    7.5090 N   0  0  0  0  0  0  0  0  0  0  0  0
   23.1270   14.7810    7.9980 S   0  0  0  0  0  6  0  0  0  0  0  0
   22.5070   13.4840    8.1600 O   0  0  0  0  0  0  0  0  0  0  0  0
   24.2400   15.0170    7.0970 O   0  0  0  0  0  0  0  0  0  0  0  0
   23.6000   15.3810    9.5980 C   0  0  0  0  0  0  0  0  0  0  0  0
   22.7870   15.1130   10.7090 C   0  0  0  0  0  0  0  0  0  0  0  0
   23.1330   15.5870   11.9790 C   0  0  0  0  0  0  0  0  0  0  0  0
   24.3120   16.3350   12.1810 C   0  0  0  0  0  0  0  0  0  0  0  0
   24.6900   16.8540   13.5200 C   0  0  0  0  0  0  0  0  0  0  0  0
   24.6450   16.1330   14.5080 O   0  0  0  0  0  0  0  0  0  0  0  0
   25.0590   18.1810   13.5820 N   0  0  0  0  0  0  0  0  0  0  0  0
   25.2920   18.8360   14.8630 C   0  0  1  0  0  0  0  0  0  0  0  0
   26.3560   18.1240   15.6930 C   0  0  0  0  0  0  0  0  0  0  0  0
   26.5790   18.8850   16.9910 C   0  0  0  0  0  0  0  0  0  0  0  0
   26.9430   20.3270   16.7260 C   0  0  0  0  0  0  0  0  0  0  0  0
   27.7180   20.9540   17.4410 O   0  0  0  0  0  0  0  0  0  0  0  0
   26.3400   20.9250   15.6480 N   0  0  0  0  0  0  0  0  0  0  0  0
   25.7500   20.2720   14.5940 C   0  0  0  0  0  0  0  0  0  0  0  0
   25.5960   20.8250   13.5050 O   0  0  0  0  0  0  0  0  0  0  0  0
   25.1370   16.6080   11.0680 C   0  0  0  0  0  0  0  0  0  0  0  0
   26.3500   17.2950   10.8270 C   0  0  0  0  0  0  0  0  0  0  0  0
   26.7340   17.2390    9.5490 N   0  0  0  0  0  0  0  0  0  0  0  0
   25.7740   16.5090    8.9620 N   0  0  0  0  0  0  0  0  0  0  0  0
   24.7730   16.1170    9.8180 C   0  0  0  0  0  0  0  0  0  0  0  0
   21.6740   16.1730    6.2160 C   0  0  0  0  0  0  0  0  0  0  0  0
   20.5490   16.8500    6.1200 N   0  0  0  0  0  0  0  0  0  0  0  0
   18.9504   19.6134    8.5356 H   0  0  0  0  0  0  0  0  0  0  0  0
   19.8320   19.3891    6.9867 H   0  0  0  0  0  0  0  0  0  0  0  0
   18.0430   19.5504    6.9867 H   0  0  0  0  0  0  0  0  0  0  0  0
   18.4508   17.4137    8.7038 H   0  0  0  0  0  0  0  0  0  0  0  0
   18.0340   17.3030    6.9389 H   0  0  0  0  0  0  0  0  0  0  0  0
   20.7636   16.1625    9.3752 H   0  0  0  0  0  0  0  0  0  0  0  0
   21.8672   14.5236   10.5804 H   0  0  0  0  0  0  0  0  0  0  0  0
   22.4750   15.3730   12.8341 H   0  0  0  0  0  0  0  0  0  0  0  0
   25.1717   18.7175   12.7100 H   0  0  0  0  0  0  0  0  0  0  0  0
   24.3533   18.8115   15.4359 H   0  0  0  0  0  0  0  0  0  0  0  0
   26.0203   17.1015   15.9204 H   0  0  0  0  0  0  0  0  0  0  0  0
   27.2974   18.0829   15.1254 H   0  0  0  0  0  0  0  0  0  0  0  0
   25.6561   18.8524   17.5886 H   0  0  0  0  0  0  0  0  0  0  0  0
   27.4105   18.4109   17.5331 H   0  0  0  0  0  0  0  0  0  0  0  0
   26.3290   21.9547   15.6277 H   0  0  0  0  0  0  0  0  0  0  0  0
   26.9172   17.8200   11.6097 H   0  0  0  0  0  0  0  0  0  0  0  0
   25.7860   16.2647    7.9615 H   0  0  0  0  0  0  0  0  0  0  0  0
   22.3260   15.9158    5.3682 H   0  0  0  0  0  0  0  0  0  0  0  0
  1  2  1  0
  2  3  1  0
  3  4  2  0
  4  5  1  0
  5  6  1  0
  6  7  2  0
  6  8  2  0
  6  9  1  0
  9 10  2  0
 10 11  1  0
 11 12  2  0
 12 13  1  0
 13 14  2  0
 13 15  1  0
 15 16  1  0
 16 17  1  0
 17 18  1  0
 18 19  1  0
 19 20  2  0
 19 21  1  0
 21 22  1  0
 22 23  2  0
 12 24  1  0
 24 25  1  0
 25 26  2  0
 26 27  1  0
 27 28  1  0
  5 29  1  0
 29 30  2  0
 30  3  1  0
 28  9  1  0
 22 16  1  0
 28 24  2  0
  1 31  1  0
  1 32  1  0
  1 33  1  0
  2 34  1  0
  2 35  1  0
  4 36  1  0
 10 37  1  0
 11 38  1  0
 15 39  1  0
 16 40  1  1
 17 41  1  0
 17 42  1  0
 18 43  1  0
 18 44  1  0
 21 45  1  0
 25 46  1  0
 27 47  1  0
 29 48  1  0
M  END
>  <meeko>  (95) 
{"is_sidechain": [true], "free_energy": -11.34, "intermolecular_energy": 0.0, "internal_energy": -11.34, "cluster_size": 14, "cluster_id": 1, "rank_in_cluster": 1}

>  <_RMSD_MCS_to_ref>  (95) 
0.7263000604280425

$$$$
ligand
     RDKit          3D

 52 56  0  0  0  0  0  0  0  0999 V2000
   18.9090   19.1540    7.5370 C   0  0  0  0  0  0  0  0  0  0  0  0
   18.7730   17.6460    7.6780 C   0  0  0  0  0  0  0  0  0  0  0  0
   20.0450   16.9360    7.3730 C   0  0  0  0  0  0  0  0  0  0  0  0
   21.2140   16.8930    8.1070 C   0  0  0  0  0  0  0  0  0  0  0  0
   22.0380   16.0830    7.3790 N   0  0  0  0  0  0  0  0  0  0  0  0
   23.6490   15.7660    7.7010 S   0  0  0  0  0  6  0  0  0  0  0  0
   24.3290   15.7500    6.4220 O   0  0  0  0  0  0  0  0  0  0  0  0
   24.0280   16.6410    8.7950 O   0  0  0  0  0  0  0  0  0  0  0  0
   23.8020   14.1550    8.3310 C   0  0  0  0  0  0  0  0  0  0  0  0
   23.9810   13.0710    7.4720 N   0  0  0  0  0  0  0  0  0  0  0  0
   24.0750   11.9690    8.1810 C   0  0  0  0  0  0  0  0  0  0  0  0
   23.9570   12.1480    9.8790 S   0  0  0  0  0  0  0  0  0  0  0  0
   23.7580   13.8460    9.6820 C   0  0  0  0  0  0  0  0  0  0  0  0
   23.5690   14.6940   10.8570 C   0  0  0  0  0  0  0  0  0  0  0  0
   22.4050   14.5580   11.6500 C   0  0  0  0  0  0  0  0  0  0  0  0
   22.2120   15.3480   12.7870 C   0  0  0  0  0  0  0  0  0  0  0  0
   23.2000   16.2590   13.1010 C   0  0  0  0  0  0  0  0  0  0  0  0
   24.3560   16.4100   12.3390 C   0  0  0  0  0  0  0  0  0  0  0  0
   24.5540   15.6340   11.2090 C   0  0  0  0  0  0  0  0  0  0  0  0
   25.2360   17.4570   12.9390 C   0  0  0  0  0  0  0  0  0  0  0  0
   24.4500   17.9080   14.0820 N   0  0  0  0  0  0  0  0  0  0  0  0
   24.9620   18.7920   15.1250 C   0  0  1  0  0  0  0  0  0  0  0  0
   25.9670   18.0590   16.0140 C   0  0  0  0  0  0  0  0  0  0  0  0
   26.3870   18.9580   17.1660 C   0  0  0  0  0  0  0  0  0  0  0  0
   26.9450   20.2670   16.6630 C   0  0  0  0  0  0  0  0  0  0  0  0
   27.8200   20.8840   17.2630 O   0  0  0  0  0  0  0  0  0  0  0  0
   26.3990   20.7630   15.5060 N   0  0  0  0  0  0  0  0  0  0  0  0
   25.5890   20.0990   14.6130 C   0  0  0  0  0  0  0  0  0  0  0  0
   25.3820   20.5780   13.5000 O   0  0  0  0  0  0  0  0  0  0  0  0
   23.2730   17.1910   14.2310 C   0  0  0  0  0  0  0  0  0  0  0  0
   22.4570   17.2720   15.1280 O   0  0  0  0  0  0  0  0  0  0  0  0
   21.4040   15.7200    6.2340 C   0  0  0  0  0  0  0  0  0  0  0  0
   20.1780   16.2010    6.2110 N   0  0  0  0  0  0  0  0  0  0  0  0
   18.9504   19.6134    8.5356 H   0  0  0  0  0  0  0  0  0  0  0  0
   19.8320   19.3891    6.9867 H   0  0  0  0  0  0  0  0  0  0  0  0
   18.0430   19.5504    6.9867 H   0  0  0  0  0  0  0  0  0  0  0  0
   18.4756   17.4121    8.7109 H   0  0  0  0  0  0  0  0  0  0  0  0
   18.0152   17.3063    6.9566 H   0  0  0  0  0  0  0  0  0  0  0  0
   21.4318   17.3964    9.0605 H   0  0  0  0  0  0  0  0  0  0  0  0
   24.2214   10.9860    7.7096 H   0  0  0  0  0  0  0  0  0  0  0  0
   21.6404   13.8194   11.3675 H   0  0  0  0  0  0  0  0  0  0  0  0
   21.3087   15.2476   13.4067 H   0  0  0  0  0  0  0  0  0  0  0  0
   25.4625   15.7505   10.5998 H   0  0  0  0  0  0  0  0  0  0  0  0
   26.1983   17.0319   13.2604 H   0  0  0  0  0  0  0  0  0  0  0  0
   25.4987   18.2644   12.2397 H   0  0  0  0  0  0  0  0  0  0  0  0
   24.0737   19.0839   15.7044 H   0  0  0  0  0  0  0  0  0  0  0  0
   25.5025   17.1457   16.4141 H   0  0  0  0  0  0  0  0  0  0  0  0
   26.8530   17.7939   15.4185 H   0  0  0  0  0  0  0  0  0  0  0  0
   25.5113   19.1614   17.7998 H   0  0  0  0  0  0  0  0  0  0  0  0
   27.1713   18.4435   17.7406 H   0  0  0  0  0  0  0  0  0  0  0  0
   26.6204   21.7433   15.2802 H   0  0  0  0  0  0  0  0  0  0  0  0
   21.8522   15.1091    5.4366 H   0  0  0  0  0  0  0  0  0  0  0  0
  1  2  1  0
  2  3  1  0
  3  4  2  0
  4  5  1  0
  5  6  1  0
  6  7  2  0
  6  8  2  0
  6  9  1  0
  9 10  1  0
 10 11  2  0
 11 12  1  0
 12 13  1  0
 13 14  1  0
 14 15  2  0
 15 16  1  0
 16 17  2  0
 17 18  1  0
 18 19  2  0
 18 20  1  0
 20 21  1  0
 21 22  1  0
 22 23  1  0
 23 24  1  0
 24 25  1  0
 25 26  2  0
 25 27  1  0
 27 28  1  0
 28 29  2  0
 21 30  1  0
 30 31  2  0
  5 32  1  0
 32 33  2  0
 33  3  1  0
 13  9  2  0
 19 14  1  0
 28 22  1  0
 30 17  1  0
  1 34  1  0
  1 35  1  0
  1 36  1  0
  2 37  1  0
  2 38  1  0
  4 39  1  0
 11 40  1  0
 15 41  1  0
 16 42  1  0
 19 43  1  0
 20 44  1  0
 20 45  1  0
 22 46  1  1
 23 47  1  0
 23 48  1  0
 24 49  1  0
 24 50  1  0
 27 51  1  0
 32 52  1  0
M  END
>  <meeko>  (96) 
{"is_sidechain": [true], "free_energy": -11.32, "intermolecular_energy": 0.0, "internal_energy": -11.32, "cluster_size": 20, "cluster_id": 1, "rank_in_cluster": 1}

>  <_RMSD_MCS_to_ref>  (96) 
1.1694407020262105

$$$$
ligand
     RDKit          3D

 48 51  0  0  0  0  0  0  0  0999 V2000
   18.9090   19.1540    7.5370 C   0  0  0  0  0  0  0  0  0  0  0  0
   18.7730   17.6460    7.6780 C   0  0  0  0  0  0  0  0  0  0  0  0
   20.0550   16.9390    7.4100 C   0  0  0  0  0  0  0  0  0  0  0  0
   20.6720   15.9490    8.1490 C   0  0  0  0  0  0  0  0  0  0  0  0
   21.7990   15.6510    7.4350 N   0  0  0  0  0  0  0  0  0  0  0  0
   23.0810   14.6980    7.9850 S   0  0  0  0  0  6  0  0  0  0  0  0
   22.4870   13.3830    8.1650 O   0  0  0  0  0  0  0  0  0  0  0  0
   24.1280   14.8990    6.9980 O   0  0  0  0  0  0  0  0  0  0  0  0
   23.5520   15.3700    9.5340 C   0  0  0  0  0  0  0  0  0  0  0  0
   22.7150   15.1990   10.5790 C   0  0  0  0  0  0  0  0  0  0  0  0
   23.0090   15.7500   11.8900 C   0  0  0  0  0  0  0  0  0  0  0  0
   24.1410   16.4580   12.0810 C   0  0  0  0  0  0  0  0  0  0  0  0
   24.3770   17.0040   13.4530 C   0  0  0  0  0  0  0  0  0  0  0  0
   23.9930   16.4090   14.4580 O   0  0  0  0  0  0  0  0  0  0  0  0
   25.0360   18.2010   13.5240 N   0  0  0  0  0  0  0  0  0  0  0  0
   25.2850   18.8800   14.7840 C   0  0  1  0  0  0  0  0  0  0  0  0
   26.3340   18.1500   15.6170 C   0  0  0  0  0  0  0  0  0  0  0  0
   26.5630   18.8980   16.9210 C   0  0  0  0  0  0  0  0  0  0  0  0
   26.9530   20.3340   16.6660 C   0  0  0  0  0  0  0  0  0  0  0  0
   27.7140   20.9500   17.4050 O   0  0  0  0  0  0  0  0  0  0  0  0
   26.3830   20.9410   15.5750 N   0  0  0  0  0  0  0  0  0  0  0  0
   25.7600   20.3140   14.5220 C   0  0  0  0  0  0  0  0  0  0  0  0
   25.5860   20.9030   13.4570 O   0  0  0  0  0  0  0  0  0  0  0  0
   25.0200   16.6350   11.0000 N   0  0  0  0  0  0  0  0  0  0  0  0
   26.2080   17.3090   11.0000 N   0  0  0  0  0  0  0  0  0  0  0  0
   26.6810   17.1940    9.7620 C   0  0  0  0  0  0  0  0  0  0  0  0
   25.8340   16.4560    8.9260 C   0  0  0  0  0  0  0  0  0  0  0  0
   24.7640   16.1080    9.7210 C   0  0  0  0  0  0  0  0  0  0  0  0
   21.8700   16.4720    6.3560 C   0  0  0  0  0  0  0  0  0  0  0  0
   20.8170   17.2590    6.3040 N   0  0  0  0  0  0  0  0  0  0  0  0
   18.9504   19.6134    8.5356 H   0  0  0  0  0  0  0  0  0  0  0  0
   19.8320   19.3891    6.9867 H   0  0  0  0  0  0  0  0  0  0  0  0
   18.0430   19.5504    6.9867 H   0  0  0  0  0  0  0  0  0  0  0  0
   18.4478   17.4138    8.7029 H   0  0  0  0  0  0  0  0  0  0  0  0
   18.0362   17.3024    6.9370 H   0  0  0  0  0  0  0  0  0  0  0  0
   20.3339   15.5023    9.0957 H   0  0  0  0  0  0  0  0  0  0  0  0
   21.7863   14.6276   10.4338 H   0  0  0  0  0  0  0  0  0  0  0  0
   22.3106   15.5904   12.7248 H   0  0  0  0  0  0  0  0  0  0  0  0
   25.3679   18.6369   12.6518 H   0  0  0  0  0  0  0  0  0  0  0  0
   24.3400   18.8921   15.3470 H   0  0  0  0  0  0  0  0  0  0  0  0
   25.9825   17.1311   15.8366 H   0  0  0  0  0  0  0  0  0  0  0  0
   27.2777   18.1014   15.0539 H   0  0  0  0  0  0  0  0  0  0  0  0
   25.6365   18.8777   17.5136 H   0  0  0  0  0  0  0  0  0  0  0  0
   27.3827   18.4060   17.4652 H   0  0  0  0  0  0  0  0  0  0  0  0
   26.4263   21.9696   15.5418 H   0  0  0  0  0  0  0  0  0  0  0  0
   27.6344   17.6314    9.4308 H   0  0  0  0  0  0  0  0  0  0  0  0
   25.9892   16.2081    7.8656 H   0  0  0  0  0  0  0  0  0  0  0  0
   22.6934   16.4783    5.6267 H   0  0  0  0  0  0  0  0  0  0  0  0
  1  2  1  0
  2  3  1  0
  3  4  2  0
  4  5  1  0
  5  6  1  0
  6  7  2  0
  6  8  2  0
  6  9  1  0
  9 10  2  0
 10 11  1  0
 11 12  2  0
 12 13  1  0
 13 14  2  0
 13 15  1  0
 15 16  1  0
 16 17  1  0
 17 18  1  0
 18 19  1  0
 19 20  2  0
 19 21  1  0
 21 22  1  0
 22 23  2  0
 12 24  1  0
 24 25  1  0
 25 26  2  0
 26 27  1  0
 27 28  2  0
  5 29  1  0
 29 30  2  0
 30  3  1  0
 28  9  1  0
 22 16  1  0
 28 24  1  0
  1 31  1  0
  1 32  1  0
  1 33  1  0
  2 34  1  0
  2 35  1  0
  4 36  1  0
 10 37  1  0
 11 38  1  0
 15 39  1  0
 16 40  1  1
 17 41  1  0
 17 42  1  0
 18 43  1  0
 18 44  1  0
 21 45  1  0
 26 46  1  0
 27 47  1  0
 29 48  1  0
M  END
>  <meeko>  (97) 
{"is_sidechain": [true], "free_energy": -11.32, "intermolecular_energy": 0.0, "internal_energy": -11.32, "cluster_size": 18, "cluster_id": 1, "rank_in_cluster": 1}

>  <_RMSD_MCS_to_ref>  (97) 
0.7329170788325537

$$$$
ligand
     RDKit          3D

 55 59  0  0  0  0  0  0  0  0999 V2000
   18.9090   19.1540    7.5370 C   0  0  0  0  0  0  0  0  0  0  0  0
   18.7730   17.6460    7.6780 C   0  0  0  0  0  0  0  0  0  0  0  0
   20.0880   16.9530    7.6000 C   0  0  0  0  0  0  0  0  0  0  0  0
   21.0450   16.7930    8.5820 C   0  0  0  0  0  0  0  0  0  0  0  0
   22.0270   16.0610    7.9770 N   0  0  0  0  0  0  0  0  0  0  0  0
   23.5140   15.6730    8.6570 S   0  0  0  0  0  6  0  0  0  0  0  0
   24.3740   16.8290    8.4730 O   0  0  0  0  0  0  0  0  0  0  0  0
   23.8570   14.3730    8.1090 O   0  0  0  0  0  0  0  0  0  0  0  0
   23.1710   15.4770   10.3730 C   0  0  0  0  0  0  0  0  0  0  0  0
   24.0630   15.9960   11.3240 C   0  0  0  0  0  0  0  0  0  0  0  0
   23.8050   15.8230   12.6960 C   0  0  0  0  0  0  0  0  0  0  0  0
   24.7230   16.3530   13.7420 C   0  0  0  0  0  0  0  0  0  0  0  0
   25.2640   15.5920   14.5350 O   0  0  0  0  0  0  0  0  0  0  0  0
   24.9450   17.7120   13.7390 N   0  0  0  0  0  0  0  0  0  0  0  0
   25.9400   18.3120   14.6180 C   0  0  2  0  0  0  0  0  0  0  0  0
   25.6710   18.0070   16.0870 C   0  0  0  0  0  0  0  0  0  0  0  0
   26.7180   18.6990   16.9470 C   0  0  0  0  0  0  0  0  0  0  0  0
   26.7560   20.1850   16.6780 C   0  0  0  0  0  0  0  0  0  0  0  0
   27.0180   21.0060   17.5520 O   0  0  0  0  0  0  0  0  0  0  0  0
   26.5140   20.5830   15.3870 N   0  0  0  0  0  0  0  0  0  0  0  0
   25.9150   19.8290   14.4100 C   0  0  0  0  0  0  0  0  0  0  0  0
   25.4040   20.3540   13.4190 O   0  0  0  0  0  0  0  0  0  0  0  0
   22.6450   15.1570   13.1140 C   0  0  0  0  0  0  0  0  0  0  0  0
   21.7620   14.6580   12.1630 C   0  0  0  0  0  0  0  0  0  0  0  0
   22.0180   14.8330   10.7960 C   0  0  0  0  0  0  0  0  0  0  0  0
   21.0260   14.2290    9.9750 N   0  0  0  0  0  0  0  0  0  0  0  0
   19.9440   13.7770   10.8860 C   0  0  0  0  0  0  0  0  0  0  0  0
   20.4740   13.9380   12.3040 C   0  0  0  0  0  0  0  0  0  0  0  0
   19.5250   14.1580   13.4560 C   0  0  0  0  0  0  0  0  0  0  0  0
   20.2630   12.8530   13.3320 C   0  0  0  0  0  0  0  0  0  0  0  0
   21.6870   15.8480    6.6800 C   0  0  0  0  0  0  0  0  0  0  0  0
   20.5020   16.3640    6.4230 N   0  0  0  0  0  0  0  0  0  0  0  0
   18.9504   19.6134    8.5356 H   0  0  0  0  0  0  0  0  0  0  0  0
   19.8320   19.3891    6.9867 H   0  0  0  0  0  0  0  0  0  0  0  0
   18.0430   19.5504    6.9867 H   0  0  0  0  0  0  0  0  0  0  0  0
   18.3114   17.4214    8.6509 H   0  0  0  0  0  0  0  0  0  0  0  0
   18.1507   17.2839    6.8464 H   0  0  0  0  0  0  0  0  0  0  0  0
   21.0221   17.1690    9.6155 H   0  0  0  0  0  0  0  0  0  0  0  0
   24.9629   16.5375   10.9969 H   0  0  0  0  0  0  0  0  0  0  0  0
   24.3993   18.3136   13.1056 H   0  0  0  0  0  0  0  0  0  0  0  0
   26.9228   17.8870   14.3659 H   0  0  0  0  0  0  0  0  0  0  0  0
   24.6707   18.3736   16.3607 H   0  0  0  0  0  0  0  0  0  0  0  0
   25.7202   16.9205   16.2516 H   0  0  0  0  0  0  0  0  0  0  0  0
   26.4771   18.5331   18.0074 H   0  0  0  0  0  0  0  0  0  0  0  0
   27.7034   18.2767   16.7005 H   0  0  0  0  0  0  0  0  0  0  0  0
   26.8092   21.5352   15.1279 H   0  0  0  0  0  0  0  0  0  0  0  0
   22.4347   15.0300   14.1862 H   0  0  0  0  0  0  0  0  0  0  0  0
   21.0528   14.1255    8.9506 H   0  0  0  0  0  0  0  0  0  0  0  0
   19.0454   14.3953   10.7442 H   0  0  0  0  0  0  0  0  0  0  0  0
   19.6648   12.7326   10.6830 H   0  0  0  0  0  0  0  0  0  0  0  0
   19.7878   14.8641   14.2575 H   0  0  0  0  0  0  0  0  0  0  0  0
   18.4676   14.4471   13.5474 H   0  0  0  0  0  0  0  0  0  0  0  0
   21.0653   12.6054   14.0427 H   0  0  0  0  0  0  0  0  0  0  0  0
   19.9684   11.7938   13.2951 H   0  0  0  0  0  0  0  0  0  0  0  0
   22.3130   15.3188    5.9464 H   0  0  0  0  0  0  0  0  0  0  0  0
  1  2  1  0
  2  3  1  0
  3  4  2  0
  4  5  1  0
  5  6  1  0
  6  7  2  0
  6  8  2  0
  6  9  1  0
  9 10  2  0
 10 11  1  0
 11 12  1  0
 12 13  2  0
 12 14  1  0
 14 15  1  0
 15 16  1  0
 16 17  1  0
 17 18  1  0
 18 19  2  0
 18 20  1  0
 20 21  1  0
 21 22  2  0
 11 23  2  0
 23 24  1  0
 24 25  2  0
 25 26  1  0
 26 27  1  0
 27 28  1  0
 28 29  1  0
 29 30  1  0
  5 31  1  0
 31 32  2  0
 32  3  1  0
 25  9  1  0
 30 28  1  0
 21 15  1  0
 28 24  1  0
  1 33  1  0
  1 34  1  0
  1 35  1  0
  2 36  1  0
  2 37  1  0
  4 38  1  0
 10 39  1  0
 14 40  1  0
 15 41  1  6
 16 42  1  0
 16 43  1  0
 17 44  1  0
 17 45  1  0
 20 46  1  0
 23 47  1  0
 26 48  1  0
 27 49  1  0
 27 50  1  0
 29 51  1  0
 29 52  1  0
 30 53  1  0
 30 54  1  0
 31 55  1  0
M  END
>  <meeko>  (98) 
{"is_sidechain": [true], "free_energy": -11.32, "intermolecular_energy": 0.0, "internal_energy": -11.32, "cluster_size": 20, "cluster_id": 1, "rank_in_cluster": 1}

>  <_RMSD_MCS_to_ref>  (98) 
0.6930397715860179

$$$$
ligand
     RDKit          3D

 55 59  0  0  0  0  0  0  0  0999 V2000
   18.9090   19.1540    7.5370 C   0  0  0  0  0  0  0  0  0  0  0  0
   18.7730   17.6460    7.6780 C   0  0  0  0  0  0  0  0  0  0  0  0
   20.0900   16.9550    7.6280 C   0  0  0  0  0  0  0  0  0  0  0  0
   20.5850   15.9670    8.4540 C   0  0  0  0  0  0  0  0  0  0  0  0
   21.8250   15.6970    7.9480 N   0  0  0  0  0  0  0  0  0  0  0  0
   22.9170   14.5970    8.5880 S   0  0  0  0  0  6  0  0  0  0  0  0
   22.1120   13.7740    9.4730 O   0  0  0  0  0  0  0  0  0  0  0  0
   23.6540   14.0220    7.4810 O   0  0  0  0  0  0  0  0  0  0  0  0
   24.0330   15.5650    9.5880 C   0  0  0  0  0  0  0  0  0  0  0  0
   23.6180   15.8400   10.9020 C   0  0  0  0  0  0  0  0  0  0  0  0
   24.4510   16.6050   11.6920 C   0  0  0  0  0  0  0  0  0  0  0  0
   25.6670   17.1000   11.2380 C   0  0  0  0  0  0  0  0  0  0  0  0
   26.0890   16.8300    9.9490 C   0  0  0  0  0  0  0  0  0  0  0  0
   25.2780   16.0470    9.0930 C   0  0  0  0  0  0  0  0  0  0  0  0
   25.7980   15.7800    7.7450 C   0  0  0  0  0  0  0  0  0  0  0  0
   25.5180   16.6450    6.6820 C   0  0  0  0  0  0  0  0  0  0  0  0
   26.0480   16.3620    5.4330 C   0  0  0  0  0  0  0  0  0  0  0  0
   26.8440   15.3030    5.1830 N   0  0  0  0  0  0  0  0  0  0  0  0
   27.1180   14.4870    6.2200 C   0  0  0  0  0  0  0  0  0  0  0  0
   26.6320   14.6840    7.5010 C   0  0  0  0  0  0  0  0  0  0  0  0
   26.3260   17.9040   12.3110 C   0  0  0  0  0  0  0  0  0  0  0  0
   25.4090   17.7440   13.4320 N   0  0  0  0  0  0  0  0  0  0  0  0
   25.4610   18.5680   14.6350 C   0  0  1  0  0  0  0  0  0  0  0  0
   26.3400   17.9600   15.7240 C   0  0  0  0  0  0  0  0  0  0  0  0
   26.2780   18.8340   16.9690 C   0  0  0  0  0  0  0  0  0  0  0  0
   26.6680   20.2590   16.6540 C   0  0  0  0  0  0  0  0  0  0  0  0
   27.3040   20.9550   17.4410 O   0  0  0  0  0  0  0  0  0  0  0  0
   26.2640   20.7520   15.4410 N   0  0  0  0  0  0  0  0  0  0  0  0
   25.9540   19.9950   14.3340 C   0  0  0  0  0  0  0  0  0  0  0  0
   26.0880   20.4590   13.2040 O   0  0  0  0  0  0  0  0  0  0  0  0
   24.2610   17.0540   13.0740 C   0  0  0  0  0  0  0  0  0  0  0  0
   23.2670   16.8490   13.7420 O   0  0  0  0  0  0  0  0  0  0  0  0
   22.0440   16.4780    6.8600 C   0  0  0  0  0  0  0  0  0  0  0  0
   21.0140   17.2730    6.6520 N   0  0  0  0  0  0  0  0  0  0  0  0
   18.9504   19.6134    8.5356 H   0  0  0  0  0  0  0  0  0  0  0  0
   19.8320   19.3891    6.9867 H   0  0  0  0  0  0  0  0  0  0  0  0
   18.0430   19.5504    6.9867 H   0  0  0  0  0  0  0  0  0  0  0  0
   18.2921   17.4224    8.6417 H   0  0  0  0  0  0  0  0  0  0  0  0
   18.1685   17.2814    6.8344 H   0  0  0  0  0  0  0  0  0  0  0  0
   20.0936   15.5027    9.3217 H   0  0  0  0  0  0  0  0  0  0  0  0
   22.6612   15.4582   11.2877 H   0  0  0  0  0  0  0  0  0  0  0  0
   27.0519   17.2225    9.5901 H   0  0  0  0  0  0  0  0  0  0  0  0
   24.8884   17.5340    6.8346 H   0  0  0  0  0  0  0  0  0  0  0  0
   25.8059   17.0385    4.6001 H   0  0  0  0  0  0  0  0  0  0  0  0
   27.7641   13.6155    6.0382 H   0  0  0  0  0  0  0  0  0  0  0  0
   26.8970   13.9907    8.3129 H   0  0  0  0  0  0  0  0  0  0  0  0
   27.3222   17.5047   12.5520 H   0  0  0  0  0  0  0  0  0  0  0  0
   26.4971   18.9537   12.0304 H   0  0  0  0  0  0  0  0  0  0  0  0
   24.4255   18.6116   15.0035 H   0  0  0  0  0  0  0  0  0  0  0  0
   25.9785   16.9497   15.9662 H   0  0  0  0  0  0  0  0  0  0  0  0
   27.3790   17.9005   15.3676 H   0  0  0  0  0  0  0  0  0  0  0  0
   25.2521   18.8218   17.3656 H   0  0  0  0  0  0  0  0  0  0  0  0
   26.9847   18.4347   17.7114 H   0  0  0  0  0  0  0  0  0  0  0  0
   26.1857   21.7750   15.3499 H   0  0  0  0  0  0  0  0  0  0  0  0
   22.9522   16.4512    6.2399 H   0  0  0  0  0  0  0  0  0  0  0  0
  1  2  1  0
  2  3  1  0
  3  4  2  0
  4  5  1  0
  5  6  1  0
  6  7  2  0
  6  8  2  0
  6  9  1  0
  9 10  2  0
 10 11  1  0
 11 12  2  0
 12 13  1  0
 13 14  2  0
 14 15  1  0
 15 16  2  0
 16 17  1  0
 17 18  2  0
 18 19  1  0
 19 20  2  0
 12 21  1  0
 21 22  1  0
 22 23  1  0
 23 24  1  0
 24 25  1  0
 25 26  1  0
 26 27  2  0
 26 28  1  0
 28 29  1  0
 29 30  2  0
 22 31  1  0
 31 32  2  0
  5 33  1  0
 33 34  2  0
 34  3  1  0
 14  9  1  0
 20 15  1  0
 29 23  1  0
 31 11  1  0
  1 35  1  0
  1 36  1  0
  1 37  1  0
  2 38  1  0
  2 39  1  0
  4 40  1  0
 10 41  1  0
 13 42  1  0
 16 43  1  0
 17 44  1  0
 19 45  1  0
 20 46  1  0
 21 47  1  0
 21 48  1  0
 23 49  1  1
 24 50  1  0
 24 51  1  0
 25 52  1  0
 25 53  1  0
 28 54  1  0
 33 55  1  0
M  END
>  <meeko>  (99) 
{"is_sidechain": [true], "free_energy": -11.32, "intermolecular_energy": 0.0, "internal_energy": -11.32, "cluster_size": 17, "cluster_id": 1, "rank_in_cluster": 1}

>  <_RMSD_MCS_to_ref>  (99) 
0.7815387955110666

$$$$
ligand
     RDKit          3D

 53 57  0  0  0  0  0  0  0  0999 V2000
   18.9090   19.1540    7.5370 C   0  0  0  0  0  0  0  0  0  0  0  0
   18.7730   17.6460    7.6780 C   0  0  0  0  0  0  0  0  0  0  0  0
   20.0910   16.9570    7.6260 C   0  0  0  0  0  0  0  0  0  0  0  0
   20.6070   16.0040    8.4820 C   0  0  0  0  0  0  0  0  0  0  0  0
   21.8270   15.7050    7.9460 N   0  0  0  0  0  0  0  0  0  0  0  0
   22.9460   14.6390    8.5980 S   0  0  0  0  0  6  0  0  0  0  0  0
   22.2200   13.7320    9.4670 O   0  0  0  0  0  0  0  0  0  0  0  0
   23.6800   14.1570    7.4430 O   0  0  0  0  0  0  0  0  0  0  0  0
   24.0530   15.6090    9.5960 C   0  0  0  0  0  0  0  0  0  0  0  0
   23.6140   15.9130   10.8980 C   0  0  0  0  0  0  0  0  0  0  0  0
   24.4520   16.6610   11.7000 C   0  0  0  0  0  0  0  0  0  0  0  0
   25.6880   17.1240   11.2680 C   0  0  0  0  0  0  0  0  0  0  0  0
   26.1240   16.8430    9.9840 C   0  0  0  0  0  0  0  0  0  0  0  0
   25.3090   16.0710    9.1250 C   0  0  0  0  0  0  0  0  0  0  0  0
   25.8170   15.8260    7.7740 C   0  0  0  0  0  0  0  0  0  0  0  0
   26.6100   14.7940    7.3110 C   0  0  0  0  0  0  0  0  0  0  0  0
   26.8940   14.9090    5.9200 C   0  0  0  0  0  0  0  0  0  0  0  0
   26.2910   16.0120    5.3590 C   0  0  0  0  0  0  0  0  0  0  0  0
   25.3720   16.8910    6.5010 S   0  0  0  0  0  0  0  0  0  0  0  0
   26.3420   17.9240   12.3450 C   0  0  0  0  0  0  0  0  0  0  0  0
   25.4070   17.7830   13.4530 N   0  0  0  0  0  0  0  0  0  0  0  0
   25.4640   18.6000   14.6610 C   0  0  1  0  0  0  0  0  0  0  0  0
   26.3350   17.9780   15.7470 C   0  0  0  0  0  0  0  0  0  0  0  0
   26.2750   18.8420   16.9990 C   0  0  0  0  0  0  0  0  0  0  0  0
   26.6760   20.2670   16.6970 C   0  0  0  0  0  0  0  0  0  0  0  0
   27.3130   20.9530   17.4910 O   0  0  0  0  0  0  0  0  0  0  0  0
   26.2780   20.7730   15.4860 N   0  0  0  0  0  0  0  0  0  0  0  0
   25.9660   20.0260   14.3730 C   0  0  0  0  0  0  0  0  0  0  0  0
   26.1060   20.4980   13.2480 O   0  0  0  0  0  0  0  0  0  0  0  0
   24.2490   17.1170   13.0790 C   0  0  0  0  0  0  0  0  0  0  0  0
   23.2450   16.9260   13.7350 O   0  0  0  0  0  0  0  0  0  0  0  0
   22.0460   16.4900    6.8620 C   0  0  0  0  0  0  0  0  0  0  0  0
   20.9950   17.2480    6.6230 N   0  0  0  0  0  0  0  0  0  0  0  0
   18.9504   19.6134    8.5356 H   0  0  0  0  0  0  0  0  0  0  0  0
   19.8320   19.3891    6.9867 H   0  0  0  0  0  0  0  0  0  0  0  0
   18.0430   19.5504    6.9867 H   0  0  0  0  0  0  0  0  0  0  0  0
   18.2936   17.4219    8.6423 H   0  0  0  0  0  0  0  0  0  0  0  0
   18.1667   17.2807    6.8360 H   0  0  0  0  0  0  0  0  0  0  0  0
   20.1428   15.5832    9.3861 H   0  0  0  0  0  0  0  0  0  0  0  0
   22.6363   15.5663   11.2641 H   0  0  0  0  0  0  0  0  0  0  0  0
   27.0975   17.2178    9.6351 H   0  0  0  0  0  0  0  0  0  0  0  0
   26.9805   13.9753    7.9454 H   0  0  0  0  0  0  0  0  0  0  0  0
   27.5213   14.1999    5.3600 H   0  0  0  0  0  0  0  0  0  0  0  0
   26.3890   16.2944    4.3004 H   0  0  0  0  0  0  0  0  0  0  0  0
   27.3290   17.5123   12.6026 H   0  0  0  0  0  0  0  0  0  0  0  0
   26.5318   18.9697   12.0612 H   0  0  0  0  0  0  0  0  0  0  0  0
   24.4276   18.6497   15.0264 H   0  0  0  0  0  0  0  0  0  0  0  0
   25.9662   16.9682   15.9798 H   0  0  0  0  0  0  0  0  0  0  0  0
   27.3747   17.9149   15.3933 H   0  0  0  0  0  0  0  0  0  0  0  0
   25.2477   18.8336   17.3922 H   0  0  0  0  0  0  0  0  0  0  0  0
   26.9764   18.4316   17.7403 H   0  0  0  0  0  0  0  0  0  0  0  0
   26.2067   21.7971   15.4026 H   0  0  0  0  0  0  0  0  0  0  0  0
   22.9707   16.4934    6.2662 H   0  0  0  0  0  0  0  0  0  0  0  0
  1  2  1  0
  2  3  1  0
  3  4  2  0
  4  5  1  0
  5  6  1  0
  6  7  2  0
  6  8  2  0
  6  9  1  0
  9 10  2  0
 10 11  1  0
 11 12  2  0
 12 13  1  0
 13 14  2  0
 14 15  1  0
 15 16  2  0
 16 17  1  0
 17 18  2  0
 18 19  1  0
 12 20  1  0
 20 21  1  0
 21 22  1  0
 22 23  1  0
 23 24  1  0
 24 25  1  0
 25 26  2  0
 25 27  1  0
 27 28  1  0
 28 29  2  0
 21 30  1  0
 30 31  2  0
  5 32  1  0
 32 33  2  0
 33  3  1  0
 14  9  1  0
 19 15  1  0
 28 22  1  0
 30 11  1  0
  1 34  1  0
  1 35  1  0
  1 36  1  0
  2 37  1  0
  2 38  1  0
  4 39  1  0
 10 40  1  0
 13 41  1  0
 16 42  1  0
 17 43  1  0
 18 44  1  0
 20 45  1  0
 20 46  1  0
 22 47  1  1
 23 48  1  0
 23 49  1  0
 24 50  1  0
 24 51  1  0
 27 52  1  0
 32 53  1  0
M  END
>  <meeko>  (100) 
{"is_sidechain": [true], "free_energy": -11.31, "intermolecular_energy": 0.0, "internal_energy": -11.31, "cluster_size": 19, "cluster_id": 1, "rank_in_cluster": 1}

>  <_RMSD_MCS_to_ref>  (100) 
0.8054988102618985

$$$$
ligand
     RDKit          3D

 54 58  0  0  0  0  0  0  0  0999 V2000
   18.9090   19.1540    7.5370 C   0  0  0  0  0  0  0  0  0  0  0  0
   18.7730   17.6460    7.6780 C   0  0  0  0  0  0  0  0  0  0  0  0
   20.0810   16.9490    7.5450 C   0  0  0  0  0  0  0  0  0  0  0  0
   21.2590   17.1780    8.2280 C   0  0  0  0  0  0  0  0  0  0  0  0
   22.1260   16.2520    7.7180 N   0  0  0  0  0  0  0  0  0  0  0  0
   23.7570   16.1060    8.0970 S   0  0  0  0  0  6  0  0  0  0  0  0
   24.4620   16.4770    6.8830 O   0  0  0  0  0  0  0  0  0  0  0  0
   23.9290   16.8300    9.3460 O   0  0  0  0  0  0  0  0  0  0  0  0
   24.0230   14.3780    8.4100 C   0  0  0  0  0  0  0  0  0  0  0  0
   24.2570   13.6460    7.2840 N   0  0  0  0  0  0  0  0  0  0  0  0
   24.4800   12.3290    7.4580 C   0  0  0  0  0  0  0  0  0  0  0  0
   24.4780   11.7140    8.6980 C   0  0  0  0  0  0  0  0  0  0  0  0
   24.2330   12.4930    9.8300 C   0  0  0  0  0  0  0  0  0  0  0  0
   23.9920   13.8690    9.7110 C   0  0  0  0  0  0  0  0  0  0  0  0
   23.7360   14.6740   10.9080 C   0  0  0  0  0  0  0  0  0  0  0  0
   22.4880   14.5870   11.5820 C   0  0  0  0  0  0  0  0  0  0  0  0
   22.2150   15.3530   12.7230 C   0  0  0  0  0  0  0  0  0  0  0  0
   23.2110   16.1960   13.1690 C   0  0  0  0  0  0  0  0  0  0  0  0
   24.4320   16.2830   12.5300 C   0  0  0  0  0  0  0  0  0  0  0  0
   24.7290   15.5370   11.4050 C   0  0  0  0  0  0  0  0  0  0  0  0
   25.2460   17.2450   13.2670 C   0  0  0  0  0  0  0  0  0  0  0  0
   26.3980   17.5210   12.9910 O   0  0  0  0  0  0  0  0  0  0  0  0
   24.4640   17.7270   14.2830 N   0  0  0  0  0  0  0  0  0  0  0  0
   24.9830   18.5990   15.3260 C   0  0  1  0  0  0  0  0  0  0  0  0
   26.0430   17.9520   16.2140 C   0  0  0  0  0  0  0  0  0  0  0  0
   26.4750   18.9480   17.2810 C   0  0  0  0  0  0  0  0  0  0  0  0
   26.9750   20.2330   16.6630 C   0  0  0  0  0  0  0  0  0  0  0  0
   27.8010   20.9510   17.2200 O   0  0  0  0  0  0  0  0  0  0  0  0
   26.4160   20.5980   15.4640 N   0  0  0  0  0  0  0  0  0  0  0  0
   25.5370   19.8760   14.6870 C   0  0  0  0  0  0  0  0  0  0  0  0
   25.1970   20.2920   13.5810 O   0  0  0  0  0  0  0  0  0  0  0  0
   23.2470   17.1020   14.3160 C   0  0  0  0  0  0  0  0  0  0  0  0
   22.3490   17.2110   15.1270 O   0  0  0  0  0  0  0  0  0  0  0  0
   21.4960   15.5390    6.7500 C   0  0  0  0  0  0  0  0  0  0  0  0
   20.2420   15.9260    6.6300 N   0  0  0  0  0  0  0  0  0  0  0  0
   18.9504   19.6134    8.5356 H   0  0  0  0  0  0  0  0  0  0  0  0
   19.8320   19.3891    6.9867 H   0  0  0  0  0  0  0  0  0  0  0  0
   18.0430   19.5504    6.9867 H   0  0  0  0  0  0  0  0  0  0  0  0
   18.3498   17.4194    8.6678 H   0  0  0  0  0  0  0  0  0  0  0  0
   18.1164   17.2891    6.8708 H   0  0  0  0  0  0  0  0  0  0  0  0
   21.4549   17.9323    9.0043 H   0  0  0  0  0  0  0  0  0  0  0  0
   24.6736   11.7106    6.5691 H   0  0  0  0  0  0  0  0  0  0  0  0
   24.6656   10.6340    8.7894 H   0  0  0  0  0  0  0  0  0  0  0  0
   24.2290   12.0230   10.8245 H   0  0  0  0  0  0  0  0  0  0  0  0
   21.7176   13.9017   11.1987 H   0  0  0  0  0  0  0  0  0  0  0  0
   21.2471   15.2848   13.2411 H   0  0  0  0  0  0  0  0  0  0  0  0
   25.7103   15.6158   10.9143 H   0  0  0  0  0  0  0  0  0  0  0  0
   24.1386   18.8276   15.9928 H   0  0  0  0  0  0  0  0  0  0  0  0
   25.6237   17.0559   16.6948 H   0  0  0  0  0  0  0  0  0  0  0  0
   26.9114   17.6630   15.6037 H   0  0  0  0  0  0  0  0  0  0  0  0
   25.6157   19.1731   17.9298 H   0  0  0  0  0  0  0  0  0  0  0  0
   27.2949   18.5004   17.8619 H   0  0  0  0  0  0  0  0  0  0  0  0
   26.6863   21.5234   15.1013 H   0  0  0  0  0  0  0  0  0  0  0  0
   21.9671   14.7475    6.1487 H   0  0  0  0  0  0  0  0  0  0  0  0
  1  2  1  0
  2  3  1  0
  3  4  2  0
  4  5  1  0
  5  6  1  0
  6  7  2  0
  6  8  2  0
  6  9  1  0
  9 10  2  0
 10 11  1  0
 11 12  2  0
 12 13  1  0
 13 14  2  0
 14 15  1  0
 15 16  2  0
 16 17  1  0
 17 18  2  0
 18 19  1  0
 19 20  2  0
 19 21  1  0
 21 22  2  0
 21 23  1  0
 23 24  1  0
 24 25  1  0
 25 26  1  0
 26 27  1  0
 27 28  2  0
 27 29  1  0
 29 30  1  0
 30 31  2  0
 23 32  1  0
 32 33  2  0
  5 34  1  0
 34 35  2  0
 35  3  1  0
 14  9  1  0
 20 15  1  0
 30 24  1  0
 32 18  1  0
  1 36  1  0
  1 37  1  0
  1 38  1  0
  2 39  1  0
  2 40  1  0
  4 41  1  0
 11 42  1  0
 12 43  1  0
 13 44  1  0
 16 45  1  0
 17 46  1  0
 20 47  1  0
 24 48  1  1
 25 49  1  0
 25 50  1  0
 26 51  1  0
 26 52  1  0
 29 53  1  0
 34 54  1  0
M  END
>  <meeko>  (101) 
{"is_sidechain": [true], "free_energy": -11.31, "intermolecular_energy": 0.0, "internal_energy": -11.31, "cluster_size": 20, "cluster_id": 1, "rank_in_cluster": 1}

>  <_RMSD_MCS_to_ref>  (101) 
1.156719704026957

$$$$
ligand
     RDKit          3D

 49 52  0  0  0  0  0  0  0  0999 V2000
   18.9090   19.1540    7.5370 C   0  0  0  0  0  0  0  0  0  0  0  0
   18.7730   17.6460    7.6780 C   0  0  0  0  0  0  0  0  0  0  0  0
   20.0890   16.9550    7.6070 C   0  0  0  0  0  0  0  0  0  0  0  0
   21.0070   16.7280    8.6140 C   0  0  0  0  0  0  0  0  0  0  0  0
   22.0130   16.0400    8.0010 N   0  0  0  0  0  0  0  0  0  0  0  0
   23.5090   15.6670    8.6710 S   0  0  0  0  0  6  0  0  0  0  0  0
   24.3430   16.8290    8.4280 O   0  0  0  0  0  0  0  0  0  0  0  0
   23.8540   14.3460    8.1850 O   0  0  0  0  0  0  0  0  0  0  0  0
   23.1860   15.5590   10.4090 C   0  0  0  0  0  0  0  0  0  0  0  0
   22.0030   14.9540   10.8400 C   0  0  0  0  0  0  0  0  0  0  0  0
   21.7710   14.8980   12.1990 C   0  0  0  0  0  0  0  0  0  0  0  0
   22.6940   15.4110   13.1180 C   0  0  0  0  0  0  0  0  0  0  0  0
   23.8900   15.9810   12.7050 C   0  0  0  0  0  0  0  0  0  0  0  0
   24.8530   16.5070   13.7080 C   0  0  0  0  0  0  0  0  0  0  0  0
   25.5180   15.7420   14.3940 O   0  0  0  0  0  0  0  0  0  0  0  0
   24.9660   17.8780   13.7920 N   0  0  0  0  0  0  0  0  0  0  0  0
   25.9800   18.4960   14.6370 C   0  0  2  0  0  0  0  0  0  0  0  0
   25.8290   18.0990   16.1010 C   0  0  0  0  0  0  0  0  0  0  0  0
   26.8880   18.8090   16.9300 C   0  0  0  0  0  0  0  0  0  0  0  0
   26.8200   20.3070   16.7430 C   0  0  0  0  0  0  0  0  0  0  0  0
   27.0930   21.0960   17.6430 O   0  0  0  0  0  0  0  0  0  0  0  0
   26.4650   20.7550   15.4970 N   0  0  0  0  0  0  0  0  0  0  0  0
   25.8510   20.0170   14.5160 C   0  0  0  0  0  0  0  0  0  0  0  0
   25.2490   20.5600   13.5900 O   0  0  0  0  0  0  0  0  0  0  0  0
   24.1320   16.0630   11.3260 C   0  0  0  0  0  0  0  0  0  0  0  0
   22.1280   15.1910   14.4800 C   0  0  0  0  0  0  0  0  0  0  0  0
   20.8300   14.5050   14.0960 C   0  0  0  0  0  0  0  0  0  0  0  0
   20.6400   14.3480   12.8190 N   0  0  0  0  0  0  0  0  0  0  0  0
   21.7230   15.9070    6.6820 C   0  0  0  0  0  0  0  0  0  0  0  0
   20.5530   16.4450    6.4100 N   0  0  0  0  0  0  0  0  0  0  0  0
   18.9504   19.6134    8.5356 H   0  0  0  0  0  0  0  0  0  0  0  0
   19.8320   19.3891    6.9867 H   0  0  0  0  0  0  0  0  0  0  0  0
   18.0430   19.5504    6.9867 H   0  0  0  0  0  0  0  0  0  0  0  0
   18.3066   17.4214    8.6486 H   0  0  0  0  0  0  0  0  0  0  0  0
   18.1548   17.2827    6.8438 H   0  0  0  0  0  0  0  0  0  0  0  0
   20.9418   17.0324    9.6690 H   0  0  0  0  0  0  0  0  0  0  0  0
   21.2820   14.5370   10.1215 H   0  0  0  0  0  0  0  0  0  0  0  0
   24.3247   18.4744   13.2499 H   0  0  0  0  0  0  0  0  0  0  0  0
   26.9674   18.1491   14.2982 H   0  0  0  0  0  0  0  0  0  0  0  0
   24.8294   18.3875   16.4580 H   0  0  0  0  0  0  0  0  0  0  0  0
   25.9537   17.0107   16.2008 H   0  0  0  0  0  0  0  0  0  0  0  0
   26.7287   18.5731   17.9925 H   0  0  0  0  0  0  0  0  0  0  0  0
   27.8779   18.4627   16.5981 H   0  0  0  0  0  0  0  0  0  0  0  0
   26.6792   21.7380   15.2762 H   0  0  0  0  0  0  0  0  0  0  0  0
   25.0619   16.5215   10.9585 H   0  0  0  0  0  0  0  0  0  0  0  0
   22.7708   14.5420   15.0929 H   0  0  0  0  0  0  0  0  0  0  0  0
   22.0182   16.0956   15.0961 H   0  0  0  0  0  0  0  0  0  0  0  0
   20.1006   14.1642   14.8456 H   0  0  0  0  0  0  0  0  0  0  0  0
   22.3748   15.4178    5.9432 H   0  0  0  0  0  0  0  0  0  0  0  0
  1  2  1  0
  2  3  1  0
  3  4  2  0
  4  5  1  0
  5  6  1  0
  6  7  2  0
  6  8  2  0
  6  9  1  0
  9 10  2  0
 10 11  1  0
 11 12  2  0
 12 13  1  0
 13 14  1  0
 14 15  2  0
 14 16  1  0
 16 17  1  0
 17 18  1  0
 18 19  1  0
 19 20  1  0
 20 21  2  0
 20 22  1  0
 22 23  1  0
 23 24  2  0
 13 25  2  0
 12 26  1  0
 26 27  1  0
 27 28  2  0
  5 29  1  0
 29 30  2  0
 30  3  1  0
 25  9  1  0
 28 11  1  0
 23 17  1  0
  1 31  1  0
  1 32  1  0
  1 33  1  0
  2 34  1  0
  2 35  1  0
  4 36  1  0
 10 37  1  0
 16 38  1  0
 17 39  1  6
 18 40  1  0
 18 41  1  0
 19 42  1  0
 19 43  1  0
 22 44  1  0
 25 45  1  0
 26 46  1  0
 26 47  1  0
 27 48  1  0
 29 49  1  0
M  END
>  <meeko>  (102) 
{"is_sidechain": [true], "free_energy": -11.31, "intermolecular_energy": 0.0, "internal_energy": -11.31, "cluster_size": 20, "cluster_id": 1, "rank_in_cluster": 1}

>  <_RMSD_MCS_to_ref>  (102) 
0.7192010999867994

$$$$
ligand
     RDKit          3D

 48 51  0  0  0  0  0  0  0  0999 V2000
   18.9090   19.1540    7.5370 C   0  0  0  0  0  0  0  0  0  0  0  0
   18.7730   17.6460    7.6780 C   0  0  0  0  0  0  0  0  0  0  0  0
   20.0920   16.9580    7.6350 C   0  0  0  0  0  0  0  0  0  0  0  0
   20.9540   16.6680    8.6750 C   0  0  0  0  0  0  0  0  0  0  0  0
   21.9990   16.0270    8.0740 N   0  0  0  0  0  0  0  0  0  0  0  0
   23.4650   15.6400    8.7980 S   0  0  0  0  0  6  0  0  0  0  0  0
   24.2870   16.8280    8.6710 O   0  0  0  0  0  0  0  0  0  0  0  0
   23.8620   14.3590    8.2510 O   0  0  0  0  0  0  0  0  0  0  0  0
   23.0490   15.4140   10.5040 C   0  0  0  0  0  0  0  0  0  0  0  0
   23.9030   15.8950   11.4860 C   0  0  0  0  0  0  0  0  0  0  0  0
   23.5950   15.7310   12.8470 C   0  0  0  0  0  0  0  0  0  0  0  0
   24.5770   16.2700   13.8230 C   0  0  0  0  0  0  0  0  0  0  0  0
   25.2030   15.4980   14.5430 O   0  0  0  0  0  0  0  0  0  0  0  0
   24.7830   17.6250   13.8370 N   0  0  0  0  0  0  0  0  0  0  0  0
   25.8130   18.2440   14.6560 C   0  0  2  0  0  0  0  0  0  0  0  0
   25.6240   17.9430   16.1400 C   0  0  0  0  0  0  0  0  0  0  0  0
   26.7110   18.6420   16.9420 C   0  0  0  0  0  0  0  0  0  0  0  0
   26.7260   20.1270   16.6640 C   0  0  0  0  0  0  0  0  0  0  0  0
   27.0120   20.9550   17.5250 O   0  0  0  0  0  0  0  0  0  0  0  0
   26.4290   20.5170   15.3830 N   0  0  0  0  0  0  0  0  0  0  0  0
   25.7650   19.7600   14.4490 C   0  0  0  0  0  0  0  0  0  0  0  0
   25.1820   20.2890   13.5030 O   0  0  0  0  0  0  0  0  0  0  0  0
   22.4000   15.0530   13.2030 C   0  0  0  0  0  0  0  0  0  0  0  0
   21.7900   14.6480   14.7740 S   0  0  0  0  0  0  0  0  0  0  0  0
   20.3900   13.9150   14.1510 C   0  0  0  0  0  0  0  0  0  0  0  0
   20.3670   13.9410   12.7800 C   0  0  0  0  0  0  0  0  0  0  0  0
   21.5220   14.5800   12.2120 C   0  0  0  0  0  0  0  0  0  0  0  0
   21.8550   14.7750   10.8500 C   0  0  0  0  0  0  0  0  0  0  0  0
   21.7820   15.9780    6.7350 C   0  0  0  0  0  0  0  0  0  0  0  0
   20.6230   16.5270    6.4340 N   0  0  0  0  0  0  0  0  0  0  0  0
   18.9504   19.6134    8.5356 H   0  0  0  0  0  0  0  0  0  0  0  0
   19.8320   19.3891    6.9867 H   0  0  0  0  0  0  0  0  0  0  0  0
   18.0430   19.5504    6.9867 H   0  0  0  0  0  0  0  0  0  0  0  0
   18.2874   17.4221    8.6393 H   0  0  0  0  0  0  0  0  0  0  0  0
   18.1724   17.2797    6.8323 H   0  0  0  0  0  0  0  0  0  0  0  0
   20.8274   16.9003    9.7427 H   0  0  0  0  0  0  0  0  0  0  0  0
   24.8307   16.4100   11.1960 H   0  0  0  0  0  0  0  0  0  0  0  0
   24.1883   18.2250   13.2477 H   0  0  0  0  0  0  0  0  0  0  0  0
   26.7846   17.8306   14.3476 H   0  0  0  0  0  0  0  0  0  0  0  0
   24.6378   18.3061   16.4650 H   0  0  0  0  0  0  0  0  0  0  0  0
   25.6878   16.8573   16.3048 H   0  0  0  0  0  0  0  0  0  0  0  0
   26.5264   18.4796   18.0142 H   0  0  0  0  0  0  0  0  0  0  0  0
   27.6846   18.2229   16.6481 H   0  0  0  0  0  0  0  0  0  0  0  0
   26.7301   21.4595   15.0966 H   0  0  0  0  0  0  0  0  0  0  0  0
   19.5973   13.4727   14.7724 H   0  0  0  0  0  0  0  0  0  0  0  0
   19.5498   13.5170   12.1780 H   0  0  0  0  0  0  0  0  0  0  0  0
   21.1727   14.4229   10.0623 H   0  0  0  0  0  0  0  0  0  0  0  0
   22.4771   15.5408    6.0032 H   0  0  0  0  0  0  0  0  0  0  0  0
  1  2  1  0
  2  3  1  0
  3  4  2  0
  4  5  1  0
  5  6  1  0
  6  7  2  0
  6  8  2  0
  6  9  1  0
  9 10  2  0
 10 11  1  0
 11 12  1  0
 12 13  2  0
 12 14  1  0
 14 15  1  0
 15 16  1  0
 16 17  1  0
 17 18  1  0
 18 19  2  0
 18 20  1  0
 20 21  1  0
 21 22  2  0
 11 23  2  0
 23 24  1  0
 24 25  1  0
 25 26  2  0
 26 27  1  0
 27 28  2  0
  5 29  1  0
 29 30  2  0
 30  3  1  0
 28  9  1  0
 21 15  1  0
 27 23  1  0
  1 31  1  0
  1 32  1  0
  1 33  1  0
  2 34  1  0
  2 35  1  0
  4 36  1  0
 10 37  1  0
 14 38  1  0
 15 39  1  6
 16 40  1  0
 16 41  1  0
 17 42  1  0
 17 43  1  0
 20 44  1  0
 25 45  1  0
 26 46  1  0
 28 47  1  0
 29 48  1  0
M  END
>  <meeko>  (103) 
{"is_sidechain": [true], "free_energy": -11.31, "intermolecular_energy": 0.0, "internal_energy": -11.31, "cluster_size": 20, "cluster_id": 1, "rank_in_cluster": 1}

>  <_RMSD_MCS_to_ref>  (103) 
0.5766792869524614

$$$$
ligand
     RDKit          3D

 50 53  0  0  0  0  0  0  0  0999 V2000
   18.9090   19.1540    7.5370 C   0  0  0  0  0  0  0  0  0  0  0  0
   18.7730   17.6460    7.6780 C   0  0  0  0  0  0  0  0  0  0  0  0
   20.0280   16.9320    7.3150 C   0  0  0  0  0  0  0  0  0  0  0  0
   20.5790   15.7990    7.8790 C   0  0  0  0  0  0  0  0  0  0  0  0
   21.7300   15.6000    7.1740 N   0  0  0  0  0  0  0  0  0  0  0  0
   22.7180   14.2430    7.2610 S   0  0  0  0  0  6  0  0  0  0  0  0
   23.0330   13.8860    5.8920 O   0  0  0  0  0  0  0  0  0  0  0  0
   22.0430   13.3280    8.1640 O   0  0  0  0  0  0  0  0  0  0  0  0
   24.1890   14.8460    8.0390 C   0  0  0  0  0  0  0  0  0  0  0  0
   25.3580   14.9000    7.2630 C   0  0  0  0  0  0  0  0  0  0  0  0
   26.5370   15.3900    7.8160 C   0  0  0  0  0  0  0  0  0  0  0  0
   26.5540   15.8230    9.1400 C   0  0  0  0  0  0  0  0  0  0  0  0
   25.4030   15.7610    9.9300 C   0  0  0  0  0  0  0  0  0  0  0  0
   25.4970   16.2200   11.2540 N   0  0  0  0  0  0  0  0  0  0  0  0
   24.4370   16.1560   12.0180 C   0  0  0  0  0  0  0  0  0  0  0  0
   24.5890   16.7010   13.4260 C   0  0  0  0  0  0  0  0  0  0  0  0
   24.0240   16.1680   14.3670 O   0  0  0  0  0  0  0  0  0  0  0  0
   25.3460   17.8510   13.5000 N   0  0  0  0  0  0  0  0  0  0  0  0
   25.4030   18.6350   14.7220 C   0  0  1  0  0  0  0  0  0  0  0  0
   26.2920   17.9870   15.7780 C   0  0  0  0  0  0  0  0  0  0  0  0
   26.3390   18.8700   17.0160 C   0  0  0  0  0  0  0  0  0  0  0  0
   26.7990   20.2680   16.6760 C   0  0  0  0  0  0  0  0  0  0  0  0
   27.4560   20.9540   17.4530 O   0  0  0  0  0  0  0  0  0  0  0  0
   26.4160   20.7610   15.4530 N   0  0  0  0  0  0  0  0  0  0  0  0
   25.9500   20.0270   14.3900 C   0  0  0  0  0  0  0  0  0  0  0  0
   25.9570   20.4870   13.2490 O   0  0  0  0  0  0  0  0  0  0  0  0
   23.1280   15.5520   11.5420 C   0  0  0  0  0  0  0  0  0  0  0  0
   22.1920   15.3850   12.3060 O   0  0  0  0  0  0  0  0  0  0  0  0
   23.0880   15.1790   10.2190 N   0  0  0  0  0  0  0  0  0  0  0  0
   24.2100   15.2580    9.3780 C   0  0  0  0  0  0  0  0  0  0  0  0
   21.8320   16.5470    6.2070 C   0  0  0  0  0  0  0  0  0  0  0  0
   20.8130   17.3800    6.2700 N   0  0  0  0  0  0  0  0  0  0  0  0
   18.9504   19.6134    8.5356 H   0  0  0  0  0  0  0  0  0  0  0  0
   19.8320   19.3891    6.9867 H   0  0  0  0  0  0  0  0  0  0  0  0
   18.0430   19.5504    6.9867 H   0  0  0  0  0  0  0  0  0  0  0  0
   18.5199   17.4092    8.7220 H   0  0  0  0  0  0  0  0  0  0  0  0
   17.9831   17.3122    6.9891 H   0  0  0  0  0  0  0  0  0  0  0  0
   20.1810   15.1947    8.7075 H   0  0  0  0  0  0  0  0  0  0  0  0
   25.3417   14.5551    6.2186 H   0  0  0  0  0  0  0  0  0  0  0  0
   27.4534   15.4354    7.2093 H   0  0  0  0  0  0  0  0  0  0  0  0
   27.4861   16.2191    9.5694 H   0  0  0  0  0  0  0  0  0  0  0  0
   25.8801   18.1595   12.6751 H   0  0  0  0  0  0  0  0  0  0  0  0
   24.3853   18.6982   15.1346 H   0  0  0  0  0  0  0  0  0  0  0  0
   25.8833   17.0016   16.0463 H   0  0  0  0  0  0  0  0  0  0  0  0
   27.3088   17.8664   15.3760 H   0  0  0  0  0  0  0  0  0  0  0  0
   25.3330   18.9214   17.4579 H   0  0  0  0  0  0  0  0  0  0  0  0
   27.0548   18.4325   17.7275 H   0  0  0  0  0  0  0  0  0  0  0  0
   26.4849   21.7801   15.3200 H   0  0  0  0  0  0  0  0  0  0  0  0
   22.2012   14.8282    9.8299 H   0  0  0  0  0  0  0  0  0  0  0  0
   22.6499   16.6102    5.4742 H   0  0  0  0  0  0  0  0  0  0  0  0
  1  2  1  0
  2  3  1  0
  3  4  2  0
  4  5  1  0
  5  6  1  0
  6  7  2  0
  6  8  2  0
  6  9  1  0
  9 10  2  0
 10 11  1  0
 11 12  2  0
 12 13  1  0
 13 14  1  0
 14 15  2  0
 15 16  1  0
 16 17  2  0
 16 18  1  0
 18 19  1  0
 19 20  1  0
 20 21  1  0
 21 22  1  0
 22 23  2  0
 22 24  1  0
 24 25  1  0
 25 26  2  0
 15 27  1  0
 27 28  2  0
 27 29  1  0
 29 30  1  0
  5 31  1  0
 31 32  2  0
 32  3  1  0
 30  9  1  0
 30 13  2  0
 25 19  1  0
  1 33  1  0
  1 34  1  0
  1 35  1  0
  2 36  1  0
  2 37  1  0
  4 38  1  0
 10 39  1  0
 11 40  1  0
 12 41  1  0
 18 42  1  0
 19 43  1  1
 20 44  1  0
 20 45  1  0
 21 46  1  0
 21 47  1  0
 24 48  1  0
 29 49  1  0
 31 50  1  0
M  END
>  <meeko>  (104) 
{"is_sidechain": [true], "free_energy": -11.31, "intermolecular_energy": 0.0, "internal_energy": -11.31, "cluster_size": 17, "cluster_id": 1, "rank_in_cluster": 1}

>  <_RMSD_MCS_to_ref>  (104) 
0.7090668359032014

$$$$
ligand
     RDKit          3D

 53 57  0  0  0  0  0  0  0  0999 V2000
   18.8250   19.0170    7.5350 C   0  0  0  0  0  0  0  0  0  0  0  0
   18.5200   17.5420    7.7330 C   0  0  0  0  0  0  0  0  0  0  0  0
   19.6240   16.6700    7.2460 C   0  0  0  0  0  0  0  0  0  0  0  0
   20.4230   15.7980    7.9590 C   0  0  0  0  0  0  0  0  0  0  0  0
   21.2720   15.2810    7.0240 N   0  0  0  0  0  0  0  0  0  0  0  0
   22.3460   14.0080    7.2590 S   0  0  0  0  0  6  0  0  0  0  0  0
   21.8380   13.2890    8.4140 O   0  0  0  0  0  0  0  0  0  0  0  0
   22.4910   13.3690    5.9640 O   0  0  0  0  0  0  0  0  0  0  0  0
   23.8580   14.8180    7.6560 C   0  0  0  0  0  0  0  0  0  0  0  0
   24.8330   14.9560    6.6530 C   0  0  0  0  0  0  0  0  0  0  0  0
   26.0400   15.6340    6.9050 C   0  0  0  0  0  0  0  0  0  0  0  0
   26.3040   16.1890    8.1590 C   0  0  0  0  0  0  0  0  0  0  0  0
   25.3500   16.0410    9.1570 C   0  0  0  0  0  0  0  0  0  0  0  0
   24.1300   15.3410    8.9040 C   0  0  0  0  0  0  0  0  0  0  0  0
   23.4480   15.3880   10.1540 C   0  0  0  0  0  0  0  0  0  0  0  0
   22.3410   14.9130   10.7600 N   0  0  0  0  0  0  0  0  0  0  0  0
   22.2670   15.3070   12.0580 N   0  0  0  0  0  0  0  0  0  0  0  0
   23.4130   16.0070   12.2720 C   0  0  0  0  0  0  0  0  0  0  0  0
   23.7470   16.5850   13.5800 C   0  0  0  0  0  0  0  0  0  0  0  0
   23.3180   16.1390   14.6390 O   0  0  0  0  0  0  0  0  0  0  0  0
   24.5760   17.6790   13.4990 N   0  0  0  0  0  0  0  0  0  0  0  0
   24.9000   18.5010   14.6480 C   0  0  1  0  0  0  0  0  0  0  0  0
   25.7960   17.7640   15.6400 C   0  0  0  0  0  0  0  0  0  0  0  0
   26.1150   18.6760   16.8120 C   0  0  0  0  0  0  0  0  0  0  0  0
   26.7420   19.9700   16.3480 C   0  0  0  0  0  0  0  0  0  0  0  0
   27.5720   20.5760   17.0180 O   0  0  0  0  0  0  0  0  0  0  0  0
   26.3080   20.4630   15.1430 N   0  0  0  0  0  0  0  0  0  0  0  0
   25.6130   19.7750   14.1790 C   0  0  0  0  0  0  0  0  0  0  0  0
   25.5580   20.1930   13.0240 O   0  0  0  0  0  0  0  0  0  0  0  0
   24.1740   16.0610   11.0930 C   0  0  0  0  0  0  0  0  0  0  0  0
   25.4720   16.5830   10.6000 C   0  0  0  0  0  0  0  0  0  0  0  0
   20.9550   15.7880    5.8050 C   0  0  0  0  0  0  0  0  0  0  0  0
   19.9640   16.6480    5.9070 N   0  0  0  0  0  0  0  0  0  0  0  0
   18.9260   19.5054    8.5155 H   0  0  0  0  0  0  0  0  0  0  0  0
   19.7645   19.1250    6.9731 H   0  0  0  0  0  0  0  0  0  0  0  0
   18.0054   19.4887    6.9731 H   0  0  0  0  0  0  0  0  0  0  0  0
   18.3658   17.3528    8.8056 H   0  0  0  0  0  0  0  0  0  0  0  0
   17.6180   17.3022    7.1509 H   0  0  0  0  0  0  0  0  0  0  0  0
   20.3840   15.5718    9.0348 H   0  0  0  0  0  0  0  0  0  0  0  0
   24.6498   14.5277    5.6565 H   0  0  0  0  0  0  0  0  0  0  0  0
   26.7865   15.7282    6.1026 H   0  0  0  0  0  0  0  0  0  0  0  0
   27.2428   16.7291    8.3510 H   0  0  0  0  0  0  0  0  0  0  0  0
   21.6366   14.3227   10.2949 H   0  0  0  0  0  0  0  0  0  0  0  0
   24.9831   17.9242   12.5852 H   0  0  0  0  0  0  0  0  0  0  0  0
   23.9579   18.7502   15.1583 H   0  0  0  0  0  0  0  0  0  0  0  0
   25.2765   16.8659   16.0056 H   0  0  0  0  0  0  0  0  0  0  0  0
   26.7308   17.4703   15.1402 H   0  0  0  0  0  0  0  0  0  0  0  0
   25.1844   18.9028   17.3528 H   0  0  0  0  0  0  0  0  0  0  0  0
   26.8313   18.1596   17.4679 H   0  0  0  0  0  0  0  0  0  0  0  0
   26.5257   21.4493   14.9412 H   0  0  0  0  0  0  0  0  0  0  0  0
   25.5257   17.6811   10.6350 H   0  0  0  0  0  0  0  0  0  0  0  0
   26.3695   16.2896   11.1643 H   0  0  0  0  0  0  0  0  0  0  0  0
   21.4563   15.5178    4.8639 H   0  0  0  0  0  0  0  0  0  0  0  0
  1  2  1  0
  2  3  1  0
  3  4  2  0
  4  5  1  0
  5  6  1  0
  6  7  2  0
  6  8  2  0
  6  9  1  0
  9 10  2  0
 10 11  1  0
 11 12  2  0
 12 13  1  0
 13 14  2  0
 14 15  1  0
 15 16  1  0
 16 17  1  0
 17 18  2  0
 18 19  1  0
 19 20  2  0
 19 21  1  0
 21 22  1  0
 22 23  1  0
 23 24  1  0
 24 25  1  0
 25 26  2  0
 25 27  1  0
 27 28  1  0
 28 29  2  0
 18 30  1  0
 30 31  1  0
  5 32  1  0
 32 33  2  0
 33  3  1  0
 14  9  1  0
 30 15  2  0
 31 13  1  0
 28 22  1  0
  1 34  1  0
  1 35  1  0
  1 36  1  0
  2 37  1  0
  2 38  1  0
  4 39  1  0
 10 40  1  0
 11 41  1  0
 12 42  1  0
 16 43  1  0
 21 44  1  0
 22 45  1  1
 23 46  1  0
 23 47  1  0
 24 48  1  0
 24 49  1  0
 27 50  1  0
 31 51  1  0
 31 52  1  0
 32 53  1  0
M  END
>  <meeko>  (105) 
{"is_sidechain": [true], "free_energy": -11.3, "intermolecular_energy": 0.0, "internal_energy": -11.3, "cluster_size": 19, "cluster_id": 1, "rank_in_cluster": 1}

>  <_RMSD_MCS_to_ref>  (105) 
0.4279266551901412

$$$$
ligand
     RDKit          3D

 52 56  0  0  0  0  0  0  0  0999 V2000
   18.7970   18.8170    7.7190 C   0  0  0  0  0  0  0  0  0  0  0  0
   18.5280   17.3290    7.8810 C   0  0  0  0  0  0  0  0  0  0  0  0
   19.7420   16.5080    7.6190 C   0  0  0  0  0  0  0  0  0  0  0  0
   20.9380   16.4800    8.3100 C   0  0  0  0  0  0  0  0  0  0  0  0
   21.6810   15.5420    7.6540 N   0  0  0  0  0  0  0  0  0  0  0  0
   23.3130   15.2250    7.8960 S   0  0  0  0  0  6  0  0  0  0  0  0
   23.4970   13.8100    7.6480 O   0  0  0  0  0  0  0  0  0  0  0  0
   24.0200   16.2490    7.1510 O   0  0  0  0  0  0  0  0  0  0  0  0
   23.5630   15.5220    9.6280 C   0  0  0  0  0  0  0  0  0  0  0  0
   24.7210   16.1800   10.0430 C   0  0  0  0  0  0  0  0  0  0  0  0
   24.8650   16.3820   11.4020 C   0  0  0  0  0  0  0  0  0  0  0  0
   23.9170   15.9810   12.3510 C   0  0  0  0  0  0  0  0  0  0  0  0
   22.7490   15.3410   11.9350 C   0  0  0  0  0  0  0  0  0  0  0  0
   21.7560   14.9320   12.8640 N   0  0  0  0  0  0  0  0  0  0  0  0
   20.8240   13.9250   12.7490 C   0  0  0  0  0  0  0  0  0  0  0  0
   20.1250   13.9570   13.9310 C   0  0  0  0  0  0  0  0  0  0  0  0
   20.6210   14.9430   14.7240 N   0  0  0  0  0  0  0  0  0  0  0  0
   21.6110   15.5330   14.0690 N   0  0  0  0  0  0  0  0  0  0  0  0
   22.5770   15.1120   10.5550 C   0  0  0  0  0  0  0  0  0  0  0  0
   24.3910   16.3910   13.7140 C   0  0  0  0  0  0  0  0  0  0  0  0
   25.7060   16.9640   13.4470 N   0  0  0  0  0  0  0  0  0  0  0  0
   26.4420   17.7580   14.4240 C   0  0  2  0  0  0  0  0  0  0  0  0
   25.9550   17.5300   15.8520 C   0  0  0  0  0  0  0  0  0  0  0  0
   26.8220   18.3280   16.8140 C   0  0  0  0  0  0  0  0  0  0  0  0
   26.8350   19.7950   16.4530 C   0  0  0  0  0  0  0  0  0  0  0  0
   26.9150   20.6790   17.3000 O   0  0  0  0  0  0  0  0  0  0  0  0
   26.7810   20.1000   15.1150 N   0  0  0  0  0  0  0  0  0  0  0  0
   26.3720   19.2620   14.1030 C   0  0  0  0  0  0  0  0  0  0  0  0
   25.9910   19.7240   13.0300 O   0  0  0  0  0  0  0  0  0  0  0  0
   25.9770   17.0410   12.0930 C   0  0  0  0  0  0  0  0  0  0  0  0
   26.9330   17.5450   11.5390 O   0  0  0  0  0  0  0  0  0  0  0  0
   20.9710   15.0670    6.5990 C   0  0  0  0  0  0  0  0  0  0  0  0
   19.7820   15.6310    6.5530 N   0  0  0  0  0  0  0  0  0  0  0  0
   18.8815   19.2845    8.7111 H   0  0  0  0  0  0  0  0  0  0  0  0
   19.7359   18.9616    7.1643 H   0  0  0  0  0  0  0  0  0  0  0  0
   17.9682   19.2812    7.1643 H   0  0  0  0  0  0  0  0  0  0  0  0
   18.1875   17.1402    8.9098 H   0  0  0  0  0  0  0  0  0  0  0  0
   17.7604   17.0420    7.1472 H   0  0  0  0  0  0  0  0  0  0  0  0
   21.2255   17.0771    9.1880 H   0  0  0  0  0  0  0  0  0  0  0  0
   25.4810   16.5208    9.3245 H   0  0  0  0  0  0  0  0  0  0  0  0
   20.6726   13.2447   11.8980 H   0  0  0  0  0  0  0  0  0  0  0  0
   19.2926   13.2881   14.1949 H   0  0  0  0  0  0  0  0  0  0  0  0
   21.6669   14.6095   10.1956 H   0  0  0  0  0  0  0  0  0  0  0  0
   23.7172   17.1383   14.1584 H   0  0  0  0  0  0  0  0  0  0  0  0
   24.4194   15.5576   14.4313 H   0  0  0  0  0  0  0  0  0  0  0  0
   27.4859   17.4181   14.3551 H   0  0  0  0  0  0  0  0  0  0  0  0
   24.9093   17.8597   15.9404 H   0  0  0  0  0  0  0  0  0  0  0  0
   26.0226   16.4598   16.0972 H   0  0  0  0  0  0  0  0  0  0  0  0
   26.4251   18.2133   17.8335 H   0  0  0  0  0  0  0  0  0  0  0  0
   27.8517   17.9460   16.7521 H   0  0  0  0  0  0  0  0  0  0  0  0
   27.0754   21.0486   14.8424 H   0  0  0  0  0  0  0  0  0  0  0  0
   21.3374   14.3165    5.8832 H   0  0  0  0  0  0  0  0  0  0  0  0
  1  2  1  0
  2  3  1  0
  3  4  2  0
  4  5  1  0
  5  6  1  0
  6  7  2  0
  6  8  2  0
  6  9  1  0
  9 10  2  0
 10 11  1  0
 11 12  2  0
 12 13  1  0
 13 14  1  0
 14 15  1  0
 15 16  2  0
 16 17  1  0
 17 18  2  0
 13 19  2  0
 12 20  1  0
 20 21  1  0
 21 22  1  0
 22 23  1  0
 23 24  1  0
 24 25  1  0
 25 26  2  0
 25 27  1  0
 27 28  1  0
 28 29  2  0
 21 30  1  0
 30 31  2  0
  5 32  1  0
 32 33  2  0
 33  3  1  0
 19  9  1  0
 28 22  1  0
 30 11  1  0
 18 14  1  0
  1 34  1  0
  1 35  1  0
  1 36  1  0
  2 37  1  0
  2 38  1  0
  4 39  1  0
 10 40  1  0
 15 41  1  0
 16 42  1  0
 19 43  1  0
 20 44  1  0
 20 45  1  0
 22 46  1  1
 23 47  1  0
 23 48  1  0
 24 49  1  0
 24 50  1  0
 27 51  1  0
 32 52  1  0
M  END
>  <meeko>  (106) 
{"is_sidechain": [true], "free_energy": -11.3, "intermolecular_energy": 0.0, "internal_energy": -11.3, "cluster_size": 20, "cluster_id": 1, "rank_in_cluster": 1}

>  <_RMSD_MCS_to_ref>  (106) 
1.998950321766124

$$$$
ligand
     RDKit          3D

 52 55  0  0  0  0  0  0  0  0999 V2000
   18.9090   19.1540    7.5370 C   0  0  0  0  0  0  0  0  0  0  0  0
   18.7730   17.6460    7.6780 C   0  0  0  0  0  0  0  0  0  0  0  0
   20.0830   16.9500    7.5570 C   0  0  0  0  0  0  0  0  0  0  0  0
   21.0920   16.8300    8.4920 C   0  0  0  0  0  0  0  0  0  0  0  0
   22.0610   16.1150    7.8490 N   0  0  0  0  0  0  0  0  0  0  0  0
   23.4460   15.4760    8.5510 S   0  0  0  0  0  6  0  0  0  0  0  0
   23.5880   14.1430    8.0010 O   0  0  0  0  0  0  0  0  0  0  0  0
   24.4750   16.4880    8.4070 O   0  0  0  0  0  0  0  0  0  0  0  0
   23.0210   15.3450   10.2670 C   0  0  0  0  0  0  0  0  0  0  0  0
   21.8100   14.7530   10.6360 C   0  0  0  0  0  0  0  0  0  0  0  0
   21.5060   14.6880   11.9860 C   0  0  0  0  0  0  0  0  0  0  0  0
   22.3940   15.1660   12.9650 C   0  0  0  0  0  0  0  0  0  0  0  0
   23.6180   15.7180   12.5970 C   0  0  0  0  0  0  0  0  0  0  0  0
   24.6070   16.2490   13.5640 C   0  0  0  0  0  0  0  0  0  0  0  0
   25.1710   15.4890   14.3420 O   0  0  0  0  0  0  0  0  0  0  0  0
   24.8030   17.6060   13.5520 N   0  0  0  0  0  0  0  0  0  0  0  0
   25.8150   18.2440   14.3790 C   0  0  2  0  0  0  0  0  0  0  0  0
   25.6410   17.9190   15.8580 C   0  0  0  0  0  0  0  0  0  0  0  0
   26.7100   18.6410   16.6640 C   0  0  0  0  0  0  0  0  0  0  0  0
   26.6840   20.1290   16.4020 C   0  0  0  0  0  0  0  0  0  0  0  0
   26.9440   20.9550   17.2700 O   0  0  0  0  0  0  0  0  0  0  0  0
   26.3770   20.5230   15.1240 N   0  0  0  0  0  0  0  0  0  0  0  0
   25.7210   19.7610   14.1890 C   0  0  0  0  0  0  0  0  0  0  0  0
   25.1030   20.2840   13.2620 O   0  0  0  0  0  0  0  0  0  0  0  0
   23.9250   15.8210   11.2320 C   0  0  0  0  0  0  0  0  0  0  0  0
   21.7990   14.9750   14.3310 C   0  0  0  0  0  0  0  0  0  0  0  0
   20.3150   14.7720   13.9960 C   0  0  0  0  0  0  0  0  0  0  0  0
   20.2690   14.1170   12.6120 C   0  0  0  0  0  0  0  0  0  0  0  0
   21.6200   15.7850    6.6070 C   0  0  0  0  0  0  0  0  0  0  0  0
   20.4230   16.2890    6.3920 N   0  0  0  0  0  0  0  0  0  0  0  0
   18.9504   19.6134    8.5356 H   0  0  0  0  0  0  0  0  0  0  0  0
   19.8320   19.3891    6.9867 H   0  0  0  0  0  0  0  0  0  0  0  0
   18.0430   19.5504    6.9867 H   0  0  0  0  0  0  0  0  0  0  0  0
   18.3414   17.4198    8.6642 H   0  0  0  0  0  0  0  0  0  0  0  0
   18.1238   17.2879    6.8654 H   0  0  0  0  0  0  0  0  0  0  0  0
   21.1107   17.2211    9.5199 H   0  0  0  0  0  0  0  0  0  0  0  0
   21.1204   14.3516    9.8788 H   0  0  0  0  0  0  0  0  0  0  0  0
   24.2165   18.1905   12.9395 H   0  0  0  0  0  0  0  0  0  0  0  0
   26.7979   17.8622   14.0658 H   0  0  0  0  0  0  0  0  0  0  0  0
   24.6456   18.2479   16.1912 H   0  0  0  0  0  0  0  0  0  0  0  0
   25.7377   16.8337   16.0092 H   0  0  0  0  0  0  0  0  0  0  0  0
   26.5329   18.4626   17.7349 H   0  0  0  0  0  0  0  0  0  0  0  0
   27.6939   18.2525   16.3622 H   0  0  0  0  0  0  0  0  0  0  0  0
   26.6631   21.4714   14.8420 H   0  0  0  0  0  0  0  0  0  0  0  0
   24.8757   16.2755   10.9162 H   0  0  0  0  0  0  0  0  0  0  0  0
   22.2215   14.0921   14.8329 H   0  0  0  0  0  0  0  0  0  0  0  0
   21.9915   15.8079   15.0232 H   0  0  0  0  0  0  0  0  0  0  0  0
   19.8427   14.1168   14.7427 H   0  0  0  0  0  0  0  0  0  0  0  0
   19.7706   15.7278   14.0028 H   0  0  0  0  0  0  0  0  0  0  0  0
   20.3205   13.0204   12.6818 H   0  0  0  0  0  0  0  0  0  0  0  0
   19.3442   14.3103   12.0486 H   0  0  0  0  0  0  0  0  0  0  0  0
   22.1847   15.1806    5.8818 H   0  0  0  0  0  0  0  0  0  0  0  0
  1  2  1  0
  2  3  1  0
  3  4  2  0
  4  5  1  0
  5  6  1  0
  6  7  2  0
  6  8  2  0
  6  9  1  0
  9 10  2  0
 10 11  1  0
 11 12  2  0
 12 13  1  0
 13 14  1  0
 14 15  2  0
 14 16  1  0
 16 17  1  0
 17 18  1  0
 18 19  1  0
 19 20  1  0
 20 21  2  0
 20 22  1  0
 22 23  1  0
 23 24  2  0
 13 25  2  0
 12 26  1  0
 26 27  1  0
 27 28  1  0
  5 29  1  0
 29 30  2  0
 30  3  1  0
 25  9  1  0
 28 11  1  0
 23 17  1  0
  1 31  1  0
  1 32  1  0
  1 33  1  0
  2 34  1  0
  2 35  1  0
  4 36  1  0
 10 37  1  0
 16 38  1  0
 17 39  1  6
 18 40  1  0
 18 41  1  0
 19 42  1  0
 19 43  1  0
 22 44  1  0
 25 45  1  0
 26 46  1  0
 26 47  1  0
 27 48  1  0
 27 49  1  0
 28 50  1  0
 28 51  1  0
 29 52  1  0
M  END
>  <meeko>  (107) 
{"is_sidechain": [true], "free_energy": -11.3, "intermolecular_energy": 0.0, "internal_energy": -11.3, "cluster_size": 20, "cluster_id": 1, "rank_in_cluster": 1}

>  <_RMSD_MCS_to_ref>  (107) 
0.5376028067056369

$$$$
ligand
     RDKit          3D

 46 49  0  0  0  0  0  0  0  0999 V2000
   18.9090   19.1540    7.5370 C   0  0  0  0  0  0  0  0  0  0  0  0
   18.7730   17.6460    7.6780 C   0  0  0  0  0  0  0  0  0  0  0  0
   20.0630   16.9420    7.4490 C   0  0  0  0  0  0  0  0  0  0  0  0
   20.7810   16.1370    8.3120 C   0  0  0  0  0  0  0  0  0  0  0  0
   21.8700   15.7530    7.5820 N   0  0  0  0  0  0  0  0  0  0  0  0
   23.1540   14.8400    8.1590 S   0  0  0  0  0  6  0  0  0  0  0  0
   22.5490   13.6070    8.6240 O   0  0  0  0  0  0  0  0  0  0  0  0
   24.1810   14.8570    7.1380 O   0  0  0  0  0  0  0  0  0  0  0  0
   23.7670   15.6900    9.5600 C   0  0  0  0  0  0  0  0  0  0  0  0
   24.9500   16.4540    9.4830 C   0  0  0  0  0  0  0  0  0  0  0  0
   25.4710   17.1620   10.5960 C   0  0  0  0  0  0  0  0  0  0  0  0
   24.8540   17.1720   11.8710 C   0  0  0  0  0  0  0  0  0  0  0  0
   25.4500   17.9330   12.9870 C   0  0  0  0  0  0  0  0  0  0  0  0
   26.6470   18.1980   12.9630 O   0  0  0  0  0  0  0  0  0  0  0  0
   24.6270   18.3070   14.0190 N   0  0  0  0  0  0  0  0  0  0  0  0
   25.1410   18.9700   15.2100 C   0  0  1  0  0  0  0  0  0  0  0  0
   26.2010   18.1320   15.9160 C   0  0  0  0  0  0  0  0  0  0  0  0
   26.7120   18.8810   17.1360 C   0  0  0  0  0  0  0  0  0  0  0  0
   27.2340   20.2470   16.7620 C   0  0  0  0  0  0  0  0  0  0  0  0
   28.1740   20.7760   17.3480 O   0  0  0  0  0  0  0  0  0  0  0  0
   26.5820   20.8970   15.7440 N   0  0  0  0  0  0  0  0  0  0  0  0
   25.7510   20.3200   14.8160 C   0  0  0  0  0  0  0  0  0  0  0  0
   25.5120   20.8770   13.7460 O   0  0  0  0  0  0  0  0  0  0  0  0
   23.6650   16.4190   11.9570 C   0  0  0  0  0  0  0  0  0  0  0  0
   22.8380   16.2150   12.9920 N   0  0  0  0  0  0  0  0  0  0  0  0
   21.8260   15.3990   12.5280 O   0  0  0  0  0  0  0  0  0  0  0  0
   22.0010   15.0790   11.1970 N   0  0  0  0  0  0  0  0  0  0  0  0
   23.1280   15.6860   10.8080 C   0  0  0  0  0  0  0  0  0  0  0  0
   21.8110   16.3250    6.3540 C   0  0  0  0  0  0  0  0  0  0  0  0
   20.7180   17.0510    6.2380 N   0  0  0  0  0  0  0  0  0  0  0  0
   18.9504   19.6134    8.5356 H   0  0  0  0  0  0  0  0  0  0  0  0
   19.8320   19.3891    6.9867 H   0  0  0  0  0  0  0  0  0  0  0  0
   18.0430   19.5504    6.9867 H   0  0  0  0  0  0  0  0  0  0  0  0
   18.4191   17.4156    8.6937 H   0  0  0  0  0  0  0  0  0  0  0  0
   18.0588   17.2986    6.9169 H   0  0  0  0  0  0  0  0  0  0  0  0
   20.5328   15.8671    9.3491 H   0  0  0  0  0  0  0  0  0  0  0  0
   25.4882   16.5025    8.5249 H   0  0  0  0  0  0  0  0  0  0  0  0
   26.4019   17.7326   10.4623 H   0  0  0  0  0  0  0  0  0  0  0  0
   23.6177   18.1137   13.9498 H   0  0  0  0  0  0  0  0  0  0  0  0
   24.2999   19.1110   15.9047 H   0  0  0  0  0  0  0  0  0  0  0  0
   25.7608   17.1747   16.2317 H   0  0  0  0  0  0  0  0  0  0  0  0
   27.0368   17.9426   15.2264 H   0  0  0  0  0  0  0  0  0  0  0  0
   25.8886   18.9969   17.8562 H   0  0  0  0  0  0  0  0  0  0  0  0
   27.5371   18.3030   17.5778 H   0  0  0  0  0  0  0  0  0  0  0  0
   26.7302   21.9135   15.6693 H   0  0  0  0  0  0  0  0  0  0  0  0
   22.5686   16.2004    5.5662 H   0  0  0  0  0  0  0  0  0  0  0  0
  1  2  1  0
  2  3  1  0
  3  4  2  0
  4  5  1  0
  5  6  1  0
  6  7  2  0
  6  8  2  0
  6  9  1  0
  9 10  2  0
 10 11  1  0
 11 12  2  0
 12 13  1  0
 13 14  2  0
 13 15  1  0
 15 16  1  0
 16 17  1  0
 17 18  1  0
 18 19  1  0
 19 20  2  0
 19 21  1  0
 21 22  1  0
 22 23  2  0
 12 24  1  0
 24 25  2  0
 25 26  1  0
 26 27  1  0
 27 28  2  0
  5 29  1  0
 29 30  2  0
 30  3  1  0
 28  9  1  0
 22 16  1  0
 28 24  1  0
  1 31  1  0
  1 32  1  0
  1 33  1  0
  2 34  1  0
  2 35  1  0
  4 36  1  0
 10 37  1  0
 11 38  1  0
 15 39  1  0
 16 40  1  1
 17 41  1  0
 17 42  1  0
 18 43  1  0
 18 44  1  0
 21 45  1  0
 29 46  1  0
M  END
>  <meeko>  (108) 
{"is_sidechain": [true], "free_energy": -11.3, "intermolecular_energy": 0.0, "internal_energy": -11.3, "cluster_size": 12, "cluster_id": 1, "rank_in_cluster": 1}

>  <_RMSD_MCS_to_ref>  (108) 
0.8540837195497875

$$$$
ligand
     RDKit          3D

 49 52  0  0  0  0  0  0  0  0999 V2000
   18.9090   19.1540    7.5370 C   0  0  0  0  0  0  0  0  0  0  0  0
   18.7730   17.6460    7.6780 C   0  0  0  0  0  0  0  0  0  0  0  0
   20.0880   16.9540    7.6010 C   0  0  0  0  0  0  0  0  0  0  0  0
   20.9620   16.6350    8.6210 C   0  0  0  0  0  0  0  0  0  0  0  0
   21.9920   15.9940    7.9920 N   0  0  0  0  0  0  0  0  0  0  0  0
   23.4240   15.4840    8.7060 S   0  0  0  0  0  6  0  0  0  0  0  0
   24.4180   16.4800    8.3530 O   0  0  0  0  0  0  0  0  0  0  0  0
   23.5600   14.0840    8.3450 O   0  0  0  0  0  0  0  0  0  0  0  0
   23.1410   15.5780   10.4520 C   0  0  0  0  0  0  0  0  0  0  0  0
   23.8950   16.4270   11.2270 C   0  0  0  0  0  0  0  0  0  0  0  0
   23.6210   16.4580   12.6020 C   0  0  0  0  0  0  0  0  0  0  0  0
   24.4580   17.3900   13.4180 C   0  0  0  0  0  0  0  0  0  0  0  0
   25.6020   17.6540   13.0590 O   0  0  0  0  0  0  0  0  0  0  0  0
   23.9090   17.9240   14.5570 N   0  0  0  0  0  0  0  0  0  0  0  0
   24.6730   18.7360   15.4880 C   0  0  1  0  0  0  0  0  0  0  0  0
   25.7850   17.9370   16.1600 C   0  0  0  0  0  0  0  0  0  0  0  0
   26.5550   18.8390   17.1120 C   0  0  0  0  0  0  0  0  0  0  0  0
   27.0930   20.0560   16.3980 C   0  0  0  0  0  0  0  0  0  0  0  0
   28.1580   20.5830   16.7030 O   0  0  0  0  0  0  0  0  0  0  0  0
   26.3120   20.5750   15.3970 N   0  0  0  0  0  0  0  0  0  0  0  0
   25.2940   19.9240   14.7420 C   0  0  0  0  0  0  0  0  0  0  0  0
   24.9140   20.3060   13.6360 O   0  0  0  0  0  0  0  0  0  0  0  0
   22.6170   15.6500   13.1610 C   0  0  0  0  0  0  0  0  0  0  0  0
   22.3210   15.6450   14.4890 N   0  0  0  0  0  0  0  0  0  0  0  0
   21.3470   14.8250   14.9390 C   0  0  0  0  0  0  0  0  0  0  0  0
   20.6260   13.9920   14.1150 C   0  0  0  0  0  0  0  0  0  0  0  0
   20.9280   14.0030   12.7570 C   0  0  0  0  0  0  0  0  0  0  0  0
   21.9230   14.8230   12.2490 C   0  0  0  0  0  0  0  0  0  0  0  0
   22.1650   14.7770   10.9270 N   0  0  0  0  0  0  0  0  0  0  0  0
   21.7550   15.9780    6.6550 C   0  0  0  0  0  0  0  0  0  0  0  0
   20.5970   16.5450    6.3830 N   0  0  0  0  0  0  0  0  0  0  0  0
   18.9504   19.6134    8.5356 H   0  0  0  0  0  0  0  0  0  0  0  0
   19.8320   19.3891    6.9867 H   0  0  0  0  0  0  0  0  0  0  0  0
   18.0430   19.5504    6.9867 H   0  0  0  0  0  0  0  0  0  0  0  0
   18.3107   17.4213    8.6505 H   0  0  0  0  0  0  0  0  0  0  0  0
   18.1511   17.2835    6.8462 H   0  0  0  0  0  0  0  0  0  0  0  0
   20.8539   16.8481    9.6947 H   0  0  0  0  0  0  0  0  0  0  0  0
   24.6818   17.0568   10.7862 H   0  0  0  0  0  0  0  0  0  0  0  0
   22.9157   17.7417   14.7596 H   0  0  0  0  0  0  0  0  0  0  0  0
   23.9819   19.0867   16.2687 H   0  0  0  0  0  0  0  0  0  0  0  0
   25.3461   17.0999   16.7228 H   0  0  0  0  0  0  0  0  0  0  0  0
   26.4692   17.5452   15.3929 H   0  0  0  0  0  0  0  0  0  0  0  0
   25.8830   19.1649   17.9196 H   0  0  0  0  0  0  0  0  0  0  0  0
   27.4044   18.2708   17.5190 H   0  0  0  0  0  0  0  0  0  0  0  0
   26.5069   21.5445   15.1088 H   0  0  0  0  0  0  0  0  0  0  0  0
   21.1193   14.8230   16.0152 H   0  0  0  0  0  0  0  0  0  0  0  0
   19.8370   13.3390   14.5165 H   0  0  0  0  0  0  0  0  0  0  0  0
   20.3666   13.3487   12.0738 H   0  0  0  0  0  0  0  0  0  0  0  0
   22.4352   15.5510    5.9034 H   0  0  0  0  0  0  0  0  0  0  0  0
  1  2  1  0
  2  3  1  0
  3  4  2  0
  4  5  1  0
  5  6  1  0
  6  7  2  0
  6  8  2  0
  6  9  1  0
  9 10  2  0
 10 11  1  0
 11 12  1  0
 12 13  2  0
 12 14  1  0
 14 15  1  0
 15 16  1  0
 16 17  1  0
 17 18  1  0
 18 19  2  0
 18 20  1  0
 20 21  1  0
 21 22  2  0
 11 23  2  0
 23 24  1  0
 24 25  2  0
 25 26  1  0
 26 27  2  0
 27 28  1  0
 28 29  2  0
  5 30  1  0
 30 31  2  0
 31  3  1  0
 29  9  1  0
 21 15  1  0
 28 23  1  0
  1 32  1  0
  1 33  1  0
  1 34  1  0
  2 35  1  0
  2 36  1  0
  4 37  1  0
 10 38  1  0
 14 39  1  0
 15 40  1  1
 16 41  1  0
 16 42  1  0
 17 43  1  0
 17 44  1  0
 20 45  1  0
 25 46  1  0
 26 47  1  0
 27 48  1  0
 30 49  1  0
M  END
>  <meeko>  (109) 
{"is_sidechain": [true], "free_energy": -11.3, "intermolecular_energy": 0.0, "internal_energy": -11.3, "cluster_size": 19, "cluster_id": 1, "rank_in_cluster": 1}

>  <_RMSD_MCS_to_ref>  (109) 
0.7147699707675973

$$$$
ligand
     RDKit          3D

 54 57  0  0  0  0  0  0  0  0999 V2000
   18.9090   19.1540    7.5370 C   0  0  0  0  0  0  0  0  0  0  0  0
   18.7730   17.6460    7.6780 C   0  0  0  0  0  0  0  0  0  0  0  0
   20.0940   16.9620    7.6950 C   0  0  0  0  0  0  0  0  0  0  0  0
   20.9370   16.7280    8.7640 C   0  0  0  0  0  0  0  0  0  0  0  0
   22.0100   16.0880    8.2100 N   0  0  0  0  0  0  0  0  0  0  0  0
   23.3230   15.4550    9.0410 S   0  0  0  0  0  6  0  0  0  0  0  0
   24.3520   16.4790    8.9880 O   0  0  0  0  0  0  0  0  0  0  0  0
   23.5320   14.1220    8.5050 O   0  0  0  0  0  0  0  0  0  0  0  0
   22.7980   15.3010   10.7250 C   0  0  0  0  0  0  0  0  0  0  0  0
   23.4930   15.9570   11.7170 C   0  0  0  0  0  0  0  0  0  0  0  0
   23.0290   15.8000   13.0230 C   0  0  0  0  0  0  0  0  0  0  0  0
   23.7840   16.4650   14.1190 C   0  0  0  0  0  0  0  0  0  0  0  0
   24.1350   15.8410   15.1110 O   0  0  0  0  0  0  0  0  0  0  0  0
   24.0340   17.8050   13.9360 N   0  0  0  0  0  0  0  0  0  0  0  0
   24.6310   18.6100   14.9940 C   0  0  1  0  0  0  0  0  0  0  0  0
   25.7520   17.8720   15.7160 C   0  0  0  0  0  0  0  0  0  0  0  0
   26.3540   18.7790   16.7780 C   0  0  0  0  0  0  0  0  0  0  0  0
   26.8310   20.0820   16.1810 C   0  0  0  0  0  0  0  0  0  0  0  0
   27.8090   20.6850   16.6120 O   0  0  0  0  0  0  0  0  0  0  0  0
   26.0930   20.5890   15.1410 N   0  0  0  0  0  0  0  0  0  0  0  0
   25.1930   19.8920   14.3740 C   0  0  0  0  0  0  0  0  0  0  0  0
   24.8570   20.2920   13.2600 O   0  0  0  0  0  0  0  0  0  0  0  0
   21.8980   15.0000   13.2910 C   0  0  0  0  0  0  0  0  0  0  0  0
   21.2830   14.3700   12.2010 C   0  0  0  0  0  0  0  0  0  0  0  0
   21.7090   14.5250   10.9240 N   0  0  0  0  0  0  0  0  0  0  0  0
   20.0510   13.5160   12.3690 C   0  0  0  0  0  0  0  0  0  0  0  0
   19.8420   13.0330   13.7990 C   0  0  0  0  0  0  0  0  0  0  0  0
   19.9810   14.2000   14.7640 C   0  0  0  0  0  0  0  0  0  0  0  0
   21.3920   14.7840   14.6980 C   0  0  0  0  0  0  0  0  0  0  0  0
   21.7850   15.9110    6.8830 C   0  0  0  0  0  0  0  0  0  0  0  0
   20.6340   16.4490    6.5320 N   0  0  0  0  0  0  0  0  0  0  0  0
   18.9504   19.6134    8.5356 H   0  0  0  0  0  0  0  0  0  0  0  0
   19.8320   19.3891    6.9867 H   0  0  0  0  0  0  0  0  0  0  0  0
   18.0430   19.5504    6.9867 H   0  0  0  0  0  0  0  0  0  0  0  0
   18.2470   17.4241    8.6183 H   0  0  0  0  0  0  0  0  0  0  0  0
   18.2115   17.2747    6.8080 H   0  0  0  0  0  0  0  0  0  0  0  0
   20.7805   16.9955    9.8194 H   0  0  0  0  0  0  0  0  0  0  0  0
   24.3733   16.5761   11.4897 H   0  0  0  0  0  0  0  0  0  0  0  0
   23.7954   18.2467   13.0366 H   0  0  0  0  0  0  0  0  0  0  0  0
   23.8497   18.8346   15.7350 H   0  0  0  0  0  0  0  0  0  0  0  0
   25.3476   16.9671   16.1930 H   0  0  0  0  0  0  0  0  0  0  0  0
   26.5301   17.5883   14.9921 H   0  0  0  0  0  0  0  0  0  0  0  0
   25.5911   18.9926   17.5411 H   0  0  0  0  0  0  0  0  0  0  0  0
   27.2179   18.2649   17.2244 H   0  0  0  0  0  0  0  0  0  0  0  0
   26.2269   21.5849   14.9150 H   0  0  0  0  0  0  0  0  0  0  0  0
   19.1732   14.1068   12.0684 H   0  0  0  0  0  0  0  0  0  0  0  0
   20.1855   12.6234   11.7403 H   0  0  0  0  0  0  0  0  0  0  0  0
   18.8358   12.5987   13.8941 H   0  0  0  0  0  0  0  0  0  0  0  0
   20.5992   12.2720   14.0389 H   0  0  0  0  0  0  0  0  0  0  0  0
   19.2534   14.9802   14.4958 H   0  0  0  0  0  0  0  0  0  0  0  0
   19.7921   13.8407   15.7864 H   0  0  0  0  0  0  0  0  0  0  0  0
   21.3908   15.7530   15.2186 H   0  0  0  0  0  0  0  0  0  0  0  0
   22.0637   14.0524   15.1709 H   0  0  0  0  0  0  0  0  0  0  0  0
   22.4685   15.3907    6.1959 H   0  0  0  0  0  0  0  0  0  0  0  0
  1  2  1  0
  2  3  1  0
  3  4  2  0
  4  5  1  0
  5  6  1  0
  6  7  2  0
  6  8  2  0
  6  9  1  0
  9 10  2  0
 10 11  1  0
 11 12  1  0
 12 13  2  0
 12 14  1  0
 14 15  1  0
 15 16  1  0
 16 17  1  0
 17 18  1  0
 18 19  2  0
 18 20  1  0
 20 21  1  0
 21 22  2  0
 11 23  2  0
 23 24  1  0
 24 25  2  0
 24 26  1  0
 26 27  1  0
 27 28  1  0
 28 29  1  0
  5 30  1  0
 30 31  2  0
 31  3  1  0
 25  9  1  0
 21 15  1  0
 29 23  1  0
  1 32  1  0
  1 33  1  0
  1 34  1  0
  2 35  1  0
  2 36  1  0
  4 37  1  0
 10 38  1  0
 14 39  1  0
 15 40  1  1
 16 41  1  0
 16 42  1  0
 17 43  1  0
 17 44  1  0
 20 45  1  0
 26 46  1  0
 26 47  1  0
 27 48  1  0
 27 49  1  0
 28 50  1  0
 28 51  1  0
 29 52  1  0
 29 53  1  0
 30 54  1  0
M  END
>  <meeko>  (110) 
{"is_sidechain": [true], "free_energy": -11.3, "intermolecular_energy": 0.0, "internal_energy": -11.3, "cluster_size": 20, "cluster_id": 1, "rank_in_cluster": 1}

>  <_RMSD_MCS_to_ref>  (110) 
0.4371052504832222

$$$$
ligand
     RDKit          3D

 58 62  0  0  0  0  0  0  0  0999 V2000
   18.9090   19.1540    7.5370 C   0  0  0  0  0  0  0  0  0  0  0  0
   18.7730   17.6460    7.6780 C   0  0  0  0  0  0  0  0  0  0  0  0
   20.0780   16.9480    7.5250 C   0  0  0  0  0  0  0  0  0  0  0  0
   20.5660   15.8630    8.2260 C   0  0  0  0  0  0  0  0  0  0  0  0
   21.8030   15.6500    7.6960 N   0  0  0  0  0  0  0  0  0  0  0  0
   22.9390   14.5190    8.1930 S   0  0  0  0  0  6  0  0  0  0  0  0
   23.6940   14.2050    6.9930 O   0  0  0  0  0  0  0  0  0  0  0  0
   22.2350   13.4830    8.9190 O   0  0  0  0  0  0  0  0  0  0  0  0
   24.0240   15.3850    9.2950 C   0  0  0  0  0  0  0  0  0  0  0  0
   23.5200   15.7760   10.5460 C   0  0  0  0  0  0  0  0  0  0  0  0
   24.3660   16.4780   11.3840 C   0  0  0  0  0  0  0  0  0  0  0  0
   25.6720   16.8160   11.0340 C   0  0  0  0  0  0  0  0  0  0  0  0
   26.1760   16.4530    9.7990 C   0  0  0  0  0  0  0  0  0  0  0  0
   25.3340   15.7450    8.9180 C   0  0  0  0  0  0  0  0  0  0  0  0
   25.9230   15.3360    7.6350 C   0  0  0  0  0  0  0  0  0  0  0  0
   26.3700   14.1960    7.5700 O   0  0  0  0  0  0  0  0  0  0  0  0
   25.9670   16.2600    6.6200 N   0  0  0  0  0  0  0  0  0  0  0  0
   25.3190   17.5640    6.6030 C   0  0  0  0  0  0  0  0  0  0  0  0
   25.5880   18.0320    5.2160 C   0  0  0  0  0  0  0  0  0  0  0  0
   26.2380   17.1020    4.5080 C   0  0  0  0  0  0  0  0  0  0  0  0
   26.4920   15.8800    5.3210 C   0  0  0  0  0  0  0  0  0  0  0  0
   26.3190   17.5770   12.1450 C   0  0  0  0  0  0  0  0  0  0  0  0
   25.2880   17.5700   13.1750 N   0  0  0  0  0  0  0  0  0  0  0  0
   25.3270   18.4260   14.3560 C   0  0  1  0  0  0  0  0  0  0  0  0
   26.2040   17.8530   15.4650 C   0  0  0  0  0  0  0  0  0  0  0  0
   26.1280   18.7590   16.6860 C   0  0  0  0  0  0  0  0  0  0  0  0
   26.5120   20.1780   16.3350 C   0  0  0  0  0  0  0  0  0  0  0  0
   27.1420   20.8980   17.1040 O   0  0  0  0  0  0  0  0  0  0  0  0
   26.1070   20.6370   15.1070 N   0  0  0  0  0  0  0  0  0  0  0  0
   25.8130   19.8460   14.0210 C   0  0  0  0  0  0  0  0  0  0  0  0
   25.9570   20.2780   12.8780 O   0  0  0  0  0  0  0  0  0  0  0  0
   24.1060   17.0010   12.7280 C   0  0  0  0  0  0  0  0  0  0  0  0
   23.0370   16.9310   13.3040 O   0  0  0  0  0  0  0  0  0  0  0  0
   22.0280   16.5590    6.7120 C   0  0  0  0  0  0  0  0  0  0  0  0
   21.0000   17.3710    6.5870 N   0  0  0  0  0  0  0  0  0  0  0  0
   18.9504   19.6134    8.5356 H   0  0  0  0  0  0  0  0  0  0  0  0
   19.8320   19.3891    6.9867 H   0  0  0  0  0  0  0  0  0  0  0  0
   18.0430   19.5504    6.9867 H   0  0  0  0  0  0  0  0  0  0  0  0
   18.3641   17.4186    8.6735 H   0  0  0  0  0  0  0  0  0  0  0  0
   18.1041   17.2909    6.8802 H   0  0  0  0  0  0  0  0  0  0  0  0
   20.0693   15.2991    9.0293 H   0  0  0  0  0  0  0  0  0  0  0  0
   22.4906   15.5328   10.8478 H   0  0  0  0  0  0  0  0  0  0  0  0
   27.2063   16.7098    9.5117 H   0  0  0  0  0  0  0  0  0  0  0  0
   24.2389   17.4749    6.7912 H   0  0  0  0  0  0  0  0  0  0  0  0
   25.6882   18.2502    7.3795 H   0  0  0  0  0  0  0  0  0  0  0  0
   25.2906   19.0158    4.8239 H   0  0  0  0  0  0  0  0  0  0  0  0
   26.5458   17.2240    3.4590 H   0  0  0  0  0  0  0  0  0  0  0  0
   25.9553   15.0109    4.9128 H   0  0  0  0  0  0  0  0  0  0  0  0
   27.5493   15.5773    5.3439 H   0  0  0  0  0  0  0  0  0  0  0  0
   27.2322   17.0723   12.4933 H   0  0  0  0  0  0  0  0  0  0  0  0
   26.6414   18.5877   11.8544 H   0  0  0  0  0  0  0  0  0  0  0  0
   24.2889   18.4727   14.7167 H   0  0  0  0  0  0  0  0  0  0  0  0
   25.8485   16.8467   15.7315 H   0  0  0  0  0  0  0  0  0  0  0  0
   27.2454   17.7915   15.1163 H   0  0  0  0  0  0  0  0  0  0  0  0
   25.0994   18.7511   17.0758 H   0  0  0  0  0  0  0  0  0  0  0  0
   26.8315   18.3839   17.4439 H   0  0  0  0  0  0  0  0  0  0  0  0
   26.0158   21.6561   14.9890 H   0  0  0  0  0  0  0  0  0  0  0  0
   22.9431   16.6094    6.1037 H   0  0  0  0  0  0  0  0  0  0  0  0
  1  2  1  0
  2  3  1  0
  3  4  2  0
  4  5  1  0
  5  6  1  0
  6  7  2  0
  6  8  2  0
  6  9  1  0
  9 10  2  0
 10 11  1  0
 11 12  2  0
 12 13  1  0
 13 14  2  0
 14 15  1  0
 15 16  2  0
 15 17  1  0
 17 18  1  0
 18 19  1  0
 19 20  2  0
 20 21  1  0
 12 22  1  0
 22 23  1  0
 23 24  1  0
 24 25  1  0
 25 26  1  0
 26 27  1  0
 27 28  2  0
 27 29  1  0
 29 30  1  0
 30 31  2  0
 23 32  1  0
 32 33  2  0
  5 34  1  0
 34 35  2  0
 35  3  1  0
 14  9  1  0
 21 17  1  0
 30 24  1  0
 32 11  1  0
  1 36  1  0
  1 37  1  0
  1 38  1  0
  2 39  1  0
  2 40  1  0
  4 41  1  0
 10 42  1  0
 13 43  1  0
 18 44  1  0
 18 45  1  0
 19 46  1  0
 20 47  1  0
 21 48  1  0
 21 49  1  0
 22 50  1  0
 22 51  1  0
 24 52  1  1
 25 53  1  0
 25 54  1  0
 26 55  1  0
 26 56  1  0
 29 57  1  0
 34 58  1  0
M  END
>  <meeko>  (111) 
{"is_sidechain": [true], "free_energy": -11.29, "intermolecular_energy": 0.0, "internal_energy": -11.29, "cluster_size": 15, "cluster_id": 1, "rank_in_cluster": 1}

>  <_RMSD_MCS_to_ref>  (111) 
0.7649070386509579

$$$$
ligand
     RDKit          3D

 53 57  0  0  0  0  0  0  0  0999 V2000
   18.7970   18.8170    7.7190 C   0  0  0  0  0  0  0  0  0  0  0  0
   18.5280   17.3290    7.8810 C   0  0  0  0  0  0  0  0  0  0  0  0
   19.7750   16.5570    8.1330 C   0  0  0  0  0  0  0  0  0  0  0  0
   20.4930   15.7590    7.2630 C   0  0  0  0  0  0  0  0  0  0  0  0
   21.5440   15.3100    8.0100 N   0  0  0  0  0  0  0  0  0  0  0  0
   22.6420   14.1230    7.5490 S   0  0  0  0  0  6  0  0  0  0  0  0
   22.5590   13.1010    8.5780 O   0  0  0  0  0  0  0  0  0  0  0  0
   22.3460   13.8320    6.1590 O   0  0  0  0  0  0  0  0  0  0  0  0
   24.1940   14.9500    7.6370 C   0  0  0  0  0  0  0  0  0  0  0  0
   24.8650   15.2670    6.4440 C   0  0  0  0  0  0  0  0  0  0  0  0
   26.0770   15.9800    6.4650 C   0  0  0  0  0  0  0  0  0  0  0  0
   26.6470   16.3940    7.6720 C   0  0  0  0  0  0  0  0  0  0  0  0
   25.9960   16.0680    8.8530 C   0  0  0  0  0  0  0  0  0  0  0  0
   24.7730   15.3290    8.8310 C   0  0  0  0  0  0  0  0  0  0  0  0
   24.4420   15.1780   10.2070 C   0  0  0  0  0  0  0  0  0  0  0  0
   23.5590   14.5460   11.0060 N   0  0  0  0  0  0  0  0  0  0  0  0
   23.8100   14.7820   12.3210 N   0  0  0  0  0  0  0  0  0  0  0  0
   24.9470   15.5280   12.3270 C   0  0  0  0  0  0  0  0  0  0  0  0
   25.5890   15.9690   13.5710 C   0  0  0  0  0  0  0  0  0  0  0  0
   25.9310   15.1950   14.4600 O   0  0  0  0  0  0  0  0  0  0  0  0
   25.7790   17.3290   13.6380 N   0  0  0  0  0  0  0  0  0  0  0  0
   26.5310   17.9640   14.7010 C   0  0  2  0  0  0  0  0  0  0  0  0
   25.8440   17.8080   16.0540 C   0  0  0  0  0  0  0  0  0  0  0  0
   26.6670   18.5040   17.1250 C   0  0  0  0  0  0  0  0  0  0  0  0
   26.9000   19.9560   16.7820 C   0  0  0  0  0  0  0  0  0  0  0  0
   26.9950   20.8290   17.6400 O   0  0  0  0  0  0  0  0  0  0  0  0
   27.0410   20.2570   15.4510 N   0  0  0  0  0  0  0  0  0  0  0  0
   26.6940   19.4560   14.3900 C   0  0  0  0  0  0  0  0  0  0  0  0
   26.5560   19.9300   13.2630 O   0  0  0  0  0  0  0  0  0  0  0  0
   25.3690   15.7770   11.0120 C   0  0  0  0  0  0  0  0  0  0  0  0
   26.4740   16.4390   10.2750 C   0  0  0  0  0  0  0  0  0  0  0  0
   21.4250   15.7870    9.2760 C   0  0  0  0  0  0  0  0  0  0  0  0
   20.3650   16.5590    9.3810 N   0  0  0  0  0  0  0  0  0  0  0  0
   18.8815   19.2845    8.7111 H   0  0  0  0  0  0  0  0  0  0  0  0
   19.7359   18.9616    7.1643 H   0  0  0  0  0  0  0  0  0  0  0  0
   17.9682   19.2812    7.1643 H   0  0  0  0  0  0  0  0  0  0  0  0
   17.8433   17.1830    8.7295 H   0  0  0  0  0  0  0  0  0  0  0  0
   18.0867   16.9613    6.9429 H   0  0  0  0  0  0  0  0  0  0  0  0
   20.2690   15.5363    6.2093 H   0  0  0  0  0  0  0  0  0  0  0  0
   24.4366   14.9533    5.4806 H   0  0  0  0  0  0  0  0  0  0  0  0
   26.5838   16.2153    5.5175 H   0  0  0  0  0  0  0  0  0  0  0  0
   27.5878   16.9638    7.6853 H   0  0  0  0  0  0  0  0  0  0  0  0
   22.7880   13.9561   10.6619 H   0  0  0  0  0  0  0  0  0  0  0  0
   25.3695   17.9213   12.9015 H   0  0  0  0  0  0  0  0  0  0  0  0
   27.5130   17.4716   14.7575 H   0  0  0  0  0  0  0  0  0  0  0  0
   24.8421   18.2599   16.0104 H   0  0  0  0  0  0  0  0  0  0  0  0
   25.7547   16.7391   16.2980 H   0  0  0  0  0  0  0  0  0  0  0  0
   26.1312   18.4440   18.0838 H   0  0  0  0  0  0  0  0  0  0  0  0
   27.6437   18.0025   17.1924 H   0  0  0  0  0  0  0  0  0  0  0  0
   27.4478   21.1757   15.2243 H   0  0  0  0  0  0  0  0  0  0  0  0
   26.4992   17.5261   10.4408 H   0  0  0  0  0  0  0  0  0  0  0  0
   27.4971   16.1391   10.5457 H   0  0  0  0  0  0  0  0  0  0  0  0
   22.1184   15.5595   10.0990 H   0  0  0  0  0  0  0  0  0  0  0  0
  1  2  1  0
  2  3  1  0
  3  4  2  0
  4  5  1  0
  5  6  1  0
  6  7  2  0
  6  8  2  0
  6  9  1  0
  9 10  2  0
 10 11  1  0
 11 12  2  0
 12 13  1  0
 13 14  2  0
 14 15  1  0
 15 16  1  0
 16 17  1  0
 17 18  2  0
 18 19  1  0
 19 20  2  0
 19 21  1  0
 21 22  1  0
 22 23  1  0
 23 24  1  0
 24 25  1  0
 25 26  2  0
 25 27  1  0
 27 28  1  0
 28 29  2  0
 18 30  1  0
 30 31  1  0
  5 32  1  0
 32 33  2  0
 33  3  1  0
 14  9  1  0
 30 15  2  0
 31 13  1  0
 28 22  1  0
  1 34  1  0
  1 35  1  0
  1 36  1  0
  2 37  1  0
  2 38  1  0
  4 39  1  0
 10 40  1  0
 11 41  1  0
 12 42  1  0
 16 43  1  0
 21 44  1  0
 22 45  1  1
 23 46  1  0
 23 47  1  0
 24 48  1  0
 24 49  1  0
 27 50  1  0
 31 51  1  0
 31 52  1  0
 32 53  1  0
M  END
>  <meeko>  (112) 
{"is_sidechain": [true], "free_energy": -11.28, "intermolecular_energy": 0.0, "internal_energy": -11.28, "cluster_size": 14, "cluster_id": 1, "rank_in_cluster": 1}

>  <_RMSD_MCS_to_ref>  (112) 
1.0351893546593294

$$$$
ligand
     RDKit          3D

 56 60  0  0  0  0  0  0  0  0999 V2000
   18.7970   18.8160    7.7190 C   0  0  0  0  0  0  0  0  0  0  0  0
   18.5280   17.3300    7.8810 C   0  0  0  0  0  0  0  0  0  0  0  0
   19.7140   16.5700    8.3640 C   0  0  0  0  0  0  0  0  0  0  0  0
   19.7890   15.6320    9.3730 C   0  0  0  0  0  0  0  0  0  0  0  0
   21.0920   15.2200    9.3600 N   0  0  0  0  0  0  0  0  0  0  0  0
   21.7250   13.9520   10.2580 S   0  0  0  0  0  6  0  0  0  0  0  0
   21.3110   12.7310    9.5900 O   0  0  0  0  0  0  0  0  0  0  0  0
   23.1270   14.2970   10.4030 O   0  0  0  0  0  0  0  0  0  0  0  0
   20.9690   13.9720   11.8650 C   0  0  0  0  0  0  0  0  0  0  0  0
   19.5880   14.2390   11.8960 C   0  0  0  0  0  0  0  0  0  0  0  0
   18.9060   14.3050   13.1090 C   0  0  0  0  0  0  0  0  0  0  0  0
   19.5990   14.1150   14.2970 C   0  0  0  0  0  0  0  0  0  0  0  0
   20.9720   13.8600   14.2700 C   0  0  0  0  0  0  0  0  0  0  0  0
   21.6910   13.7810   13.0580 C   0  0  0  0  0  0  0  0  0  0  0  0
   23.1310   13.5110   13.1390 C   0  0  0  0  0  0  0  0  0  0  0  0
   23.6640   12.2790   12.7250 C   0  0  0  0  0  0  0  0  0  0  0  0
   25.0480   12.0220   12.7770 C   0  0  0  0  0  0  0  0  0  0  0  0
   25.9410   12.9930   13.2350 C   0  0  0  0  0  0  0  0  0  0  0  0
   25.4270   14.2130   13.6350 C   0  0  0  0  0  0  0  0  0  0  0  0
   24.0530   14.4600   13.5800 C   0  0  0  0  0  0  0  0  0  0  0  0
   23.8310   15.8180   14.1080 C   0  0  0  0  0  0  0  0  0  0  0  0
   22.7460   16.3290   14.3120 O   0  0  0  0  0  0  0  0  0  0  0  0
   25.0750   16.3620   14.3800 N   0  0  0  0  0  0  0  0  0  0  0  0
   25.2290   17.5900   15.1570 C   0  0  1  0  0  0  0  0  0  0  0  0
   26.1120   17.3570   16.3860 C   0  0  0  0  0  0  0  0  0  0  0  0
   26.1670   18.6160   17.2340 C   0  0  0  0  0  0  0  0  0  0  0  0
   26.6430   19.7980   16.4270 C   0  0  0  0  0  0  0  0  0  0  0  0
   27.2950   20.7140   16.9200 O   0  0  0  0  0  0  0  0  0  0  0  0
   26.2800   19.8250   15.1060 N   0  0  0  0  0  0  0  0  0  0  0  0
   25.7690   18.7880   14.3590 C   0  0  0  0  0  0  0  0  0  0  0  0
   25.7350   18.8750   13.1340 O   0  0  0  0  0  0  0  0  0  0  0  0
   26.1520   15.4070   14.1670 C   0  0  0  0  0  0  0  0  0  0  0  0
   21.7400   15.8430    8.3410 C   0  0  0  0  0  0  0  0  0  0  0  0
   20.9430   16.7120    7.7490 N   0  0  0  0  0  0  0  0  0  0  0  0
   18.8816   19.2836    8.7111 H   0  0  0  0  0  0  0  0  0  0  0  0
   19.7359   18.9603    7.1643 H   0  0  0  0  0  0  0  0  0  0  0  0
   17.9683   19.2803    7.1643 H   0  0  0  0  0  0  0  0  0  0  0  0
   17.7101   17.1993    8.6049 H   0  0  0  0  0  0  0  0  0  0  0  0
   18.2673   16.9342    6.8884 H   0  0  0  0  0  0  0  0  0  0  0  0
   18.9816   15.2922   10.0383 H   0  0  0  0  0  0  0  0  0  0  0  0
   19.0420   14.3970   10.9542 H   0  0  0  0  0  0  0  0  0  0  0  0
   17.8247   14.5065   13.1254 H   0  0  0  0  0  0  0  0  0  0  0  0
   19.0672   14.1652   15.2586 H   0  0  0  0  0  0  0  0  0  0  0  0
   21.5079   13.7167   15.2199 H   0  0  0  0  0  0  0  0  0  0  0  0
   22.9856   11.4976   12.3519 H   0  0  0  0  0  0  0  0  0  0  0  0
   25.4306   11.0431   12.4524 H   0  0  0  0  0  0  0  0  0  0  0  0
   27.0219   12.7933   13.2764 H   0  0  0  0  0  0  0  0  0  0  0  0
   24.2069   17.8550   15.4653 H   0  0  0  0  0  0  0  0  0  0  0  0
   25.6941   16.5335   16.9837 H   0  0  0  0  0  0  0  0  0  0  0  0
   27.1293   17.1001   16.0556 H   0  0  0  0  0  0  0  0  0  0  0  0
   25.1610   18.8299   17.6241 H   0  0  0  0  0  0  0  0  0  0  0  0
   26.8759   18.4495   18.0584 H   0  0  0  0  0  0  0  0  0  0  0  0
   26.4035   20.7229   14.6167 H   0  0  0  0  0  0  0  0  0  0  0  0
   26.8813   15.7870   13.4364 H   0  0  0  0  0  0  0  0  0  0  0  0
   26.7362   15.1960   15.0749 H   0  0  0  0  0  0  0  0  0  0  0  0
   22.7832   15.6499    8.0503 H   0  0  0  0  0  0  0  0  0  0  0  0
  1  2  1  0
  2  3  1  0
  3  4  2  0
  4  5  1  0
  5  6  1  0
  6  7  2  0
  6  8  2  0
  6  9  1  0
  9 10  2  0
 10 11  1  0
 11 12  2  0
 12 13  1  0
 13 14  2  0
 14 15  1  0
 15 16  2  0
 16 17  1  0
 17 18  2  0
 18 19  1  0
 19 20  2  0
 20 21  1  0
 21 22  2  0
 21 23  1  0
 23 24  1  0
 24 25  1  0
 25 26  1  0
 26 27  1  0
 27 28  2  0
 27 29  1  0
 29 30  1  0
 30 31  2  0
 23 32  1  0
  5 33  1  0
 33 34  2  0
 34  3  1  0
 14  9  1  0
 20 15  1  0
 30 24  1  0
 32 19  1  0
  1 35  1  0
  1 36  1  0
  1 37  1  0
  2 38  1  0
  2 39  1  0
  4 40  1  0
 10 41  1  0
 11 42  1  0
 12 43  1  0
 13 44  1  0
 16 45  1  0
 17 46  1  0
 18 47  1  0
 24 48  1  1
 25 49  1  0
 25 50  1  0
 26 51  1  0
 26 52  1  0
 29 53  1  0
 32 54  1  0
 32 55  1  0
 33 56  1  0
M  END
>  <meeko>  (113) 
{"is_sidechain": [true], "free_energy": -11.28, "intermolecular_energy": 0.0, "internal_energy": -11.28, "cluster_size": 4, "cluster_id": 2, "rank_in_cluster": 1}

>  <_RMSD_MCS_to_ref>  (113) 
1.9795590418070383

$$$$
ligand
     RDKit          3D

 47 50  0  0  0  0  0  0  0  0999 V2000
   18.9090   19.1540    7.5370 C   0  0  0  0  0  0  0  0  0  0  0  0
   18.7730   17.6460    7.6780 C   0  0  0  0  0  0  0  0  0  0  0  0
   20.0500   16.9370    7.3920 C   0  0  0  0  0  0  0  0  0  0  0  0
   20.6780   15.9480    8.1220 C   0  0  0  0  0  0  0  0  0  0  0  0
   21.7930   15.6500    7.3920 N   0  0  0  0  0  0  0  0  0  0  0  0
   22.9860   14.5560    7.8350 S   0  0  0  0  0  6  0  0  0  0  0  0
   22.2670   13.4750    8.4850 O   0  0  0  0  0  0  0  0  0  0  0  0
   23.8090   14.3330    6.6640 O   0  0  0  0  0  0  0  0  0  0  0  0
   23.9530   15.3570    9.0460 C   0  0  0  0  0  0  0  0  0  0  0  0
   25.2700   15.7980    8.7660 C   0  0  0  0  0  0  0  0  0  0  0  0
   26.0900   16.4570    9.7310 C   0  0  0  0  0  0  0  0  0  0  0  0
   25.6790   16.7390   11.0490 C   0  0  0  0  0  0  0  0  0  0  0  0
   24.3780   16.2970   11.2860 C   0  0  0  0  0  0  0  0  0  0  0  0
   23.6710   16.4160   12.4540 C   0  0  0  0  0  0  0  0  0  0  0  0
   23.9650   16.9800   13.7480 C   0  0  0  0  0  0  0  0  0  0  0  0
   23.4940   16.5580   14.8010 O   0  0  0  0  0  0  0  0  0  0  0  0
   24.8260   18.0570   13.7320 N   0  0  0  0  0  0  0  0  0  0  0  0
   25.1260   18.8260   14.9300 C   0  0  1  0  0  0  0  0  0  0  0  0
   26.0480   18.0720   15.8810 C   0  0  0  0  0  0  0  0  0  0  0  0
   26.3450   18.9410   17.0940 C   0  0  0  0  0  0  0  0  0  0  0  0
   26.9270   20.2740   16.6850 C   0  0  0  0  0  0  0  0  0  0  0  0
   27.7540   20.8690   17.3700 O   0  0  0  0  0  0  0  0  0  0  0  0
   26.4590   20.8150   15.5150 N   0  0  0  0  0  0  0  0  0  0  0  0
   25.8000   20.1390   14.5180 C   0  0  0  0  0  0  0  0  0  0  0  0
   25.7510   20.5810   13.3720 O   0  0  0  0  0  0  0  0  0  0  0  0
   22.4430   15.8520   12.2460 O   0  0  0  0  0  0  0  0  0  0  0  0
   22.3410   15.3690   10.9570 N   0  0  0  0  0  0  0  0  0  0  0  0
   23.5080   15.6260   10.3460 C   0  0  0  0  0  0  0  0  0  0  0  0
   21.8370   16.4520    6.2980 C   0  0  0  0  0  0  0  0  0  0  0  0
   20.7830   17.2420    6.2620 N   0  0  0  0  0  0  0  0  0  0  0  0
   18.9504   19.6134    8.5356 H   0  0  0  0  0  0  0  0  0  0  0  0
   19.8320   19.3891    6.9867 H   0  0  0  0  0  0  0  0  0  0  0  0
   18.0430   19.5504    6.9867 H   0  0  0  0  0  0  0  0  0  0  0  0
   18.4613   17.4131    8.7069 H   0  0  0  0  0  0  0  0  0  0  0  0
   18.0260   17.3045    6.9463 H   0  0  0  0  0  0  0  0  0  0  0  0
   20.3544   15.5019    9.0740 H   0  0  0  0  0  0  0  0  0  0  0  0
   25.6791   15.6248    7.7597 H   0  0  0  0  0  0  0  0  0  0  0  0
   27.1023   16.7626    9.4279 H   0  0  0  0  0  0  0  0  0  0  0  0
   26.3064   17.2448   11.7977 H   0  0  0  0  0  0  0  0  0  0  0  0
   25.2712   18.3258   12.8429 H   0  0  0  0  0  0  0  0  0  0  0  0
   24.1797   19.0138   15.4585 H   0  0  0  0  0  0  0  0  0  0  0  0
   25.5581   17.1425   16.2068 H   0  0  0  0  0  0  0  0  0  0  0  0
   26.9884   17.8290   15.3646 H   0  0  0  0  0  0  0  0  0  0  0  0
   25.4110   19.1129   17.6490 H   0  0  0  0  0  0  0  0  0  0  0  0
   27.0810   18.4191   17.7232 H   0  0  0  0  0  0  0  0  0  0  0  0
   26.6166   21.8226   15.3706 H   0  0  0  0  0  0  0  0  0  0  0  0
   22.6402   16.4437    5.5465 H   0  0  0  0  0  0  0  0  0  0  0  0
  1  2  1  0
  2  3  1  0
  3  4  2  0
  4  5  1  0
  5  6  1  0
  6  7  2  0
  6  8  2  0
  6  9  1  0
  9 10  2  0
 10 11  1  0
 11 12  2  0
 12 13  1  0
 13 14  2  0
 14 15  1  0
 15 16  2  0
 15 17  1  0
 17 18  1  0
 18 19  1  0
 19 20  1  0
 20 21  1  0
 21 22  2  0
 21 23  1  0
 23 24  1  0
 24 25  2  0
 14 26  1  0
 26 27  1  0
 27 28  2  0
  5 29  1  0
 29 30  2  0
 30  3  1  0
 28  9  1  0
 28 13  1  0
 24 18  1  0
  1 31  1  0
  1 32  1  0
  1 33  1  0
  2 34  1  0
  2 35  1  0
  4 36  1  0
 10 37  1  0
 11 38  1  0
 12 39  1  0
 17 40  1  0
 18 41  1  1
 19 42  1  0
 19 43  1  0
 20 44  1  0
 20 45  1  0
 23 46  1  0
 29 47  1  0
M  END
>  <meeko>  (114) 
{"is_sidechain": [true], "free_energy": -11.28, "intermolecular_energy": 0.0, "internal_energy": -11.28, "cluster_size": 18, "cluster_id": 1, "rank_in_cluster": 1}

>  <_RMSD_MCS_to_ref>  (114) 
0.6674317276779038

$$$$
ligand
     RDKit          3D

 50 53  0  0  0  0  0  0  0  0999 V2000
   18.9090   19.1540    7.5370 C   0  0  0  0  0  0  0  0  0  0  0  0
   18.7730   17.6460    7.6780 C   0  0  0  0  0  0  0  0  0  0  0  0
   20.0860   16.9510    7.5770 C   0  0  0  0  0  0  0  0  0  0  0  0
   20.6420   16.0150    8.4270 C   0  0  0  0  0  0  0  0  0  0  0  0
   21.8420   15.7160    7.8510 N   0  0  0  0  0  0  0  0  0  0  0  0
   22.9510   14.5910    8.4200 S   0  0  0  0  0  6  0  0  0  0  0  0
   22.2580   13.3210    8.5050 O   0  0  0  0  0  0  0  0  0  0  0  0
   24.1160   14.7760    7.5750 O   0  0  0  0  0  0  0  0  0  0  0  0
   23.3470   15.1400   10.0730 C   0  0  0  0  0  0  0  0  0  0  0  0
   24.5870   15.7830   10.2300 C   0  0  0  0  0  0  0  0  0  0  0  0
   24.9580   16.2870   11.4680 C   0  0  0  0  0  0  0  0  0  0  0  0
   24.0940   16.1530   12.5590 C   0  0  0  0  0  0  0  0  0  0  0  0
   24.5310   16.7380   13.8520 C   0  0  0  0  0  0  0  0  0  0  0  0
   24.5690   16.0550   14.8650 O   0  0  0  0  0  0  0  0  0  0  0  0
   24.8730   18.0670   13.8120 N   0  0  0  0  0  0  0  0  0  0  0  0
   25.2160   18.8060   15.0190 C   0  0  1  0  0  0  0  0  0  0  0  0
   26.2750   18.0910   15.8500 C   0  0  0  0  0  0  0  0  0  0  0  0
   26.6100   18.9300   17.0740 C   0  0  0  0  0  0  0  0  0  0  0  0
   27.0430   20.3240   16.6810 C   0  0  0  0  0  0  0  0  0  0  0  0
   27.8890   20.9530   17.3100 O   0  0  0  0  0  0  0  0  0  0  0  0
   26.4190   20.8780   15.5910 N   0  0  0  0  0  0  0  0  0  0  0  0
   25.7480   20.1850   14.6160 C   0  0  0  0  0  0  0  0  0  0  0  0
   25.5850   20.6600   13.4910 O   0  0  0  0  0  0  0  0  0  0  0  0
   22.8400   15.4990   12.4300 C   0  0  0  0  0  0  0  0  0  0  0  0
   21.9460   15.3290   13.5030 C   0  0  0  0  0  0  0  0  0  0  0  0
   20.7610   14.6830   13.4380 N   0  0  0  0  0  0  0  0  0  0  0  0
   20.4240   14.1670   12.2490 C   0  0  0  0  0  0  0  0  0  0  0  0
   21.2170   14.2750   11.1180 C   0  0  0  0  0  0  0  0  0  0  0  0
   22.4560   14.9600   11.1720 C   0  0  0  0  0  0  0  0  0  0  0  0
   22.0060   16.4710    6.7370 C   0  0  0  0  0  0  0  0  0  0  0  0
   20.9430   17.2180    6.5260 N   0  0  0  0  0  0  0  0  0  0  0  0
   18.9504   19.6134    8.5356 H   0  0  0  0  0  0  0  0  0  0  0  0
   19.8320   19.3891    6.9867 H   0  0  0  0  0  0  0  0  0  0  0  0
   18.0430   19.5504    6.9867 H   0  0  0  0  0  0  0  0  0  0  0  0
   18.3273   17.4206    8.6581 H   0  0  0  0  0  0  0  0  0  0  0  0
   18.1363   17.2861    6.8564 H   0  0  0  0  0  0  0  0  0  0  0  0
   20.2156   15.6052    9.3545 H   0  0  0  0  0  0  0  0  0  0  0  0
   25.2645   15.8867    9.3696 H   0  0  0  0  0  0  0  0  0  0  0  0
   25.9284   16.7902   11.5909 H   0  0  0  0  0  0  0  0  0  0  0  0
   24.8874   18.5541   12.9046 H   0  0  0  0  0  0  0  0  0  0  0  0
   24.3083   18.8920   15.6343 H   0  0  0  0  0  0  0  0  0  0  0  0
   25.8901   17.1117   16.1707 H   0  0  0  0  0  0  0  0  0  0  0  0
   27.1818   17.9476   15.2441 H   0  0  0  0  0  0  0  0  0  0  0  0
   25.7196   18.9988   17.7162 H   0  0  0  0  0  0  0  0  0  0  0  0
   27.4396   18.4465   17.6106 H   0  0  0  0  0  0  0  0  0  0  0  0
   26.4581   21.9030   15.4972 H   0  0  0  0  0  0  0  0  0  0  0  0
   22.2354   15.7569   14.4742 H   0  0  0  0  0  0  0  0  0  0  0  0
   19.4679   13.6295   12.1660 H   0  0  0  0  0  0  0  0  0  0  0  0
   20.8822   13.8257   10.1714 H   0  0  0  0  0  0  0  0  0  0  0  0
   22.9019   16.4608    6.0989 H   0  0  0  0  0  0  0  0  0  0  0  0
  1  2  1  0
  2  3  1  0
  3  4  2  0
  4  5  1  0
  5  6  1  0
  6  7  2  0
  6  8  2  0
  6  9  1  0
  9 10  2  0
 10 11  1  0
 11 12  2  0
 12 13  1  0
 13 14  2  0
 13 15  1  0
 15 16  1  0
 16 17  1  0
 17 18  1  0
 18 19  1  0
 19 20  2  0
 19 21  1  0
 21 22  1  0
 22 23  2  0
 12 24  1  0
 24 25  2  0
 25 26  1  0
 26 27  2  0
 27 28  1  0
 28 29  2  0
  5 30  1  0
 30 31  2  0
 31  3  1  0
 29  9  1  0
 22 16  1  0
 29 24  1  0
  1 32  1  0
  1 33  1  0
  1 34  1  0
  2 35  1  0
  2 36  1  0
  4 37  1  0
 10 38  1  0
 11 39  1  0
 15 40  1  0
 16 41  1  1
 17 42  1  0
 17 43  1  0
 18 44  1  0
 18 45  1  0
 21 46  1  0
 25 47  1  0
 27 48  1  0
 28 49  1  0
 30 50  1  0
M  END
>  <meeko>  (115) 
{"is_sidechain": [true], "free_energy": -11.28, "intermolecular_energy": 0.0, "internal_energy": -11.28, "cluster_size": 13, "cluster_id": 1, "rank_in_cluster": 1}

>  <_RMSD_MCS_to_ref>  (115) 
0.7002831966822822

$$$$
ligand
     RDKit          3D

 50 53  0  0  0  0  0  0  0  0999 V2000
   18.9090   19.1540    7.5370 C   0  0  0  0  0  0  0  0  0  0  0  0
   18.7730   17.6460    7.6780 C   0  0  0  0  0  0  0  0  0  0  0  0
   20.0750   16.9210    7.7520 C   0  0  0  0  0  0  0  0  0  0  0  0
   20.8250   16.6410    8.8780 C   0  0  0  0  0  0  0  0  0  0  0  0
   21.9070   15.9550    8.4060 N   0  0  0  0  0  0  0  0  0  0  0  0
   23.3070   15.6020    9.2720 S   0  0  0  0  0  6  0  0  0  0  0  0
   23.8130   14.3640    8.7060 O   0  0  0  0  0  0  0  0  0  0  0  0
   24.0810   16.8270    9.2870 O   0  0  0  0  0  0  0  0  0  0  0  0
   22.7370   15.2770   10.9190 C   0  0  0  0  0  0  0  0  0  0  0  0
   21.5850   14.5470   11.1280 C   0  0  0  0  0  0  0  0  0  0  0  0
   21.1740   14.3350   12.4470 C   0  0  0  0  0  0  0  0  0  0  0  0
   20.0080   13.5930   12.6960 C   0  0  0  0  0  0  0  0  0  0  0  0
   19.5690   13.3630   13.9980 C   0  0  0  0  0  0  0  0  0  0  0  0
   20.2890   13.8710   15.0690 C   0  0  0  0  0  0  0  0  0  0  0  0
   21.4510   14.6120   14.8400 C   0  0  0  0  0  0  0  0  0  0  0  0
   21.9280   14.8660   13.5280 C   0  0  0  0  0  0  0  0  0  0  0  0
   23.0880   15.6020   13.1800 C   0  0  0  0  0  0  0  0  0  0  0  0
   24.0050   16.2730   14.1870 C   0  0  0  0  0  0  0  0  0  0  0  0
   24.5330   15.6930   15.1260 O   0  0  0  0  0  0  0  0  0  0  0  0
   24.1800   17.6300   13.9580 N   0  0  0  0  0  0  0  0  0  0  0  0
   24.6760   18.5130   14.9990 C   0  0  1  0  0  0  0  0  0  0  0  0
   25.8340   17.8640   15.7460 C   0  0  0  0  0  0  0  0  0  0  0  0
   26.3570   18.8180   16.8060 C   0  0  0  0  0  0  0  0  0  0  0  0
   26.7470   20.1470   16.2020 C   0  0  0  0  0  0  0  0  0  0  0  0
   27.6940   20.8080   16.6180 O   0  0  0  0  0  0  0  0  0  0  0  0
   25.9660   20.6050   15.1720 N   0  0  0  0  0  0  0  0  0  0  0  0
   25.1610   19.8300   14.3710 C   0  0  0  0  0  0  0  0  0  0  0  0
   24.8690   20.2040   13.2360 O   0  0  0  0  0  0  0  0  0  0  0  0
   23.5030   15.8050   11.8940 N   0  0  0  0  0  0  0  0  0  0  0  0
   21.8130   15.8610    7.0520 C   0  0  0  0  0  0  0  0  0  0  0  0
   20.7200   16.4540    6.6200 N   0  0  0  0  0  0  0  0  0  0  0  0
   18.9504   19.6134    8.5356 H   0  0  0  0  0  0  0  0  0  0  0  0
   19.8320   19.3891    6.9867 H   0  0  0  0  0  0  0  0  0  0  0  0
   18.0430   19.5504    6.9867 H   0  0  0  0  0  0  0  0  0  0  0  0
   18.2072   17.4347    8.5974 H   0  0  0  0  0  0  0  0  0  0  0  0
   18.2615   17.2877    6.7725 H   0  0  0  0  0  0  0  0  0  0  0  0
   20.6008   16.9103    9.9207 H   0  0  0  0  0  0  0  0  0  0  0  0
   21.0078   14.1443   10.2826 H   0  0  0  0  0  0  0  0  0  0  0  0
   19.4329   13.1874   11.8506 H   0  0  0  0  0  0  0  0  0  0  0  0
   18.6535   12.7799   14.1762 H   0  0  0  0  0  0  0  0  0  0  0  0
   19.9453   13.6906   16.0982 H   0  0  0  0  0  0  0  0  0  0  0  0
   22.0110   15.0090   15.6995 H   0  0  0  0  0  0  0  0  0  0  0  0
   23.9537   18.0190   13.0315 H   0  0  0  0  0  0  0  0  0  0  0  0
   23.8575   18.7109   15.7067 H   0  0  0  0  0  0  0  0  0  0  0  0
   25.4860   16.9380   16.2269 H   0  0  0  0  0  0  0  0  0  0  0  0
   26.6408   17.6301   15.0358 H   0  0  0  0  0  0  0  0  0  0  0  0
   25.5721   18.9828   17.5589 H   0  0  0  0  0  0  0  0  0  0  0  0
   27.2496   18.3701   17.2671 H   0  0  0  0  0  0  0  0  0  0  0  0
   25.9840   21.6172   14.9820 H   0  0  0  0  0  0  0  0  0  0  0  0
   22.5490   15.3586    6.4070 H   0  0  0  0  0  0  0  0  0  0  0  0
  1  2  1  0
  2  3  1  0
  3  4  2  0
  4  5  1  0
  5  6  1  0
  6  7  2  0
  6  8  2  0
  6  9  1  0
  9 10  2  0
 10 11  1  0
 11 12  2  0
 12 13  1  0
 13 14  2  0
 14 15  1  0
 15 16  2  0
 16 17  1  0
 17 18  1  0
 18 19  2  0
 18 20  1  0
 20 21  1  0
 21 22  1  0
 22 23  1  0
 23 24  1  0
 24 25  2  0
 24 26  1  0
 26 27  1  0
 27 28  2  0
 17 29  2  0
  5 30  1  0
 30 31  2  0
 31  3  1  0
 29  9  1  0
 16 11  1  0
 27 21  1  0
  1 32  1  0
  1 33  1  0
  1 34  1  0
  2 35  1  0
  2 36  1  0
  4 37  1  0
 10 38  1  0
 12 39  1  0
 13 40  1  0
 14 41  1  0
 15 42  1  0
 20 43  1  0
 21 44  1  1
 22 45  1  0
 22 46  1  0
 23 47  1  0
 23 48  1  0
 26 49  1  0
 30 50  1  0
M  END
>  <meeko>  (116) 
{"is_sidechain": [true], "free_energy": -11.28, "intermolecular_energy": 0.0, "internal_energy": -11.28, "cluster_size": 20, "cluster_id": 1, "rank_in_cluster": 1}

>  <_RMSD_MCS_to_ref>  (116) 
0.37869454122756485

$$$$
ligand
     RDKit          3D

 54 57  0  0  0  0  0  0  0  0999 V2000
   18.9090   19.1540    7.5370 C   0  0  0  0  0  0  0  0  0  0  0  0
   18.7730   17.6460    7.6780 C   0  0  0  0  0  0  0  0  0  0  0  0
   20.0820   16.9490    7.5480 C   0  0  0  0  0  0  0  0  0  0  0  0
   21.1010   16.8340    8.4730 C   0  0  0  0  0  0  0  0  0  0  0  0
   22.0650   16.1190    7.8210 N   0  0  0  0  0  0  0  0  0  0  0  0
   23.4540   15.4820    8.5180 S   0  0  0  0  0  6  0  0  0  0  0  0
   23.5940   14.1420    7.9840 O   0  0  0  0  0  0  0  0  0  0  0  0
   24.4780   16.4970    8.3560 O   0  0  0  0  0  0  0  0  0  0  0  0
   23.0420   15.3670   10.2380 C   0  0  0  0  0  0  0  0  0  0  0  0
   21.8210   14.8090   10.6200 C   0  0  0  0  0  0  0  0  0  0  0  0
   21.4800   14.7260   11.9780 C   0  0  0  0  0  0  0  0  0  0  0  0
   22.3950   15.1730   12.9600 C   0  0  0  0  0  0  0  0  0  0  0  0
   23.6310   15.7190   12.5560 C   0  0  0  0  0  0  0  0  0  0  0  0
   24.6120   16.2380   13.5490 C   0  0  0  0  0  0  0  0  0  0  0  0
   25.2420   15.4770   14.2720 O   0  0  0  0  0  0  0  0  0  0  0  0
   24.7560   17.6060   13.5760 N   0  0  0  0  0  0  0  0  0  0  0  0
   25.7900   18.2370   14.3860 C   0  0  2  0  0  0  0  0  0  0  0  0
   25.6290   17.9250   15.8700 C   0  0  0  0  0  0  0  0  0  0  0  0
   26.7130   18.6420   16.6590 C   0  0  0  0  0  0  0  0  0  0  0  0
   26.6920   20.1300   16.3930 C   0  0  0  0  0  0  0  0  0  0  0  0
   26.9860   20.9560   17.2500 O   0  0  0  0  0  0  0  0  0  0  0  0
   26.3540   20.5220   15.1220 N   0  0  0  0  0  0  0  0  0  0  0  0
   25.7110   19.7540   14.1830 C   0  0  0  0  0  0  0  0  0  0  0  0
   25.1240   20.2680   13.2320 O   0  0  0  0  0  0  0  0  0  0  0  0
   23.9540   15.8140   11.1950 C   0  0  0  0  0  0  0  0  0  0  0  0
   22.0070   15.0850   14.4220 C   0  0  0  0  0  0  0  0  0  0  0  0
   20.8030   14.1700   14.6700 C   0  0  0  0  0  0  0  0  0  0  0  0
   19.7200   14.4360   13.7200 N   0  0  0  0  0  0  0  0  0  0  0  0
   20.1600   14.0920   12.3670 C   0  0  0  0  0  0  0  0  0  0  0  0
   21.6130   15.7860    6.5850 C   0  0  0  0  0  0  0  0  0  0  0  0
   20.4120   16.2840    6.3830 N   0  0  0  0  0  0  0  0  0  0  0  0
   18.9504   19.6134    8.5356 H   0  0  0  0  0  0  0  0  0  0  0  0
   19.8320   19.3891    6.9867 H   0  0  0  0  0  0  0  0  0  0  0  0
   18.0430   19.5504    6.9867 H   0  0  0  0  0  0  0  0  0  0  0  0
   18.3477   17.4195    8.6669 H   0  0  0  0  0  0  0  0  0  0  0  0
   18.1183   17.2888    6.8694 H   0  0  0  0  0  0  0  0  0  0  0  0
   21.1297   17.2280    9.4996 H   0  0  0  0  0  0  0  0  0  0  0  0
   21.1252   14.4338    9.8550 H   0  0  0  0  0  0  0  0  0  0  0  0
   24.1229   18.1934   13.0148 H   0  0  0  0  0  0  0  0  0  0  0  0
   26.7649   17.8408   14.0656 H   0  0  0  0  0  0  0  0  0  0  0  0
   24.6405   18.2662   16.2113 H   0  0  0  0  0  0  0  0  0  0  0  0
   25.7171   16.8400   16.0283 H   0  0  0  0  0  0  0  0  0  0  0  0
   26.5496   18.4675   17.7327 H   0  0  0  0  0  0  0  0  0  0  0  0
   27.6903   18.2467   16.3450 H   0  0  0  0  0  0  0  0  0  0  0  0
   26.6062   21.4820   14.8468 H   0  0  0  0  0  0  0  0  0  0  0  0
   24.9200   16.2381   10.8836 H   0  0  0  0  0  0  0  0  0  0  0  0
   22.8653   14.6958   14.9892 H   0  0  0  0  0  0  0  0  0  0  0  0
   21.7230   16.0966   14.7476 H   0  0  0  0  0  0  0  0  0  0  0  0
   21.1223   13.1228   14.5635 H   0  0  0  0  0  0  0  0  0  0  0  0
   20.4262   14.3640   15.6851 H   0  0  0  0  0  0  0  0  0  0  0  0
   18.8982   13.8670   13.9685 H   0  0  0  0  0  0  0  0  0  0  0  0
   20.2673   12.9991   12.3037 H   0  0  0  0  0  0  0  0  0  0  0  0
   19.3996   14.4791   11.6727 H   0  0  0  0  0  0  0  0  0  0  0  0
   22.1728   15.1838    5.8542 H   0  0  0  0  0  0  0  0  0  0  0  0
  1  2  1  0
  2  3  1  0
  3  4  2  0
  4  5  1  0
  5  6  1  0
  6  7  2  0
  6  8  2  0
  6  9  1  0
  9 10  2  0
 10 11  1  0
 11 12  2  0
 12 13  1  0
 13 14  1  0
 14 15  2  0
 14 16  1  0
 16 17  1  0
 17 18  1  0
 18 19  1  0
 19 20  1  0
 20 21  2  0
 20 22  1  0
 22 23  1  0
 23 24  2  0
 13 25  2  0
 12 26  1  0
 26 27  1  0
 27 28  1  0
 28 29  1  0
  5 30  1  0
 30 31  2  0
 31  3  1  0
 25  9  1  0
 29 11  1  0
 23 17  1  0
  1 32  1  0
  1 33  1  0
  1 34  1  0
  2 35  1  0
  2 36  1  0
  4 37  1  0
 10 38  1  0
 16 39  1  0
 17 40  1  6
 18 41  1  0
 18 42  1  0
 19 43  1  0
 19 44  1  0
 22 45  1  0
 25 46  1  0
 26 47  1  0
 26 48  1  0
 27 49  1  0
 27 50  1  0
 28 51  1  0
 29 52  1  0
 29 53  1  0
 30 54  1  0
M  END
>  <meeko>  (117) 
{"is_sidechain": [true], "free_energy": -11.28, "intermolecular_energy": 0.0, "internal_energy": -11.28, "cluster_size": 20, "cluster_id": 1, "rank_in_cluster": 1}

>  <_RMSD_MCS_to_ref>  (117) 
0.5307689390560324

$$$$
ligand
     RDKit          3D

 52 56  0  0  0  0  0  0  0  0999 V2000
   18.9090   19.1540    7.5370 C   0  0  0  0  0  0  0  0  0  0  0  0
   18.7730   17.6460    7.6780 C   0  0  0  0  0  0  0  0  0  0  0  0
   20.0400   16.9350    7.3570 C   0  0  0  0  0  0  0  0  0  0  0  0
   21.2040   16.8560    8.0960 C   0  0  0  0  0  0  0  0  0  0  0  0
   22.0240   16.0640    7.3440 N   0  0  0  0  0  0  0  0  0  0  0  0
   23.6360   15.7300    7.6560 S   0  0  0  0  0  6  0  0  0  0  0  0
   24.2990   15.6740    6.3670 O   0  0  0  0  0  0  0  0  0  0  0  0
   24.0380   16.6330    8.7160 O   0  0  0  0  0  0  0  0  0  0  0  0
   23.7780   14.1460    8.3140 C   0  0  0  0  0  0  0  0  0  0  0  0
   23.9240   13.0260    7.5790 N   0  0  0  0  0  0  0  0  0  0  0  0
   23.9380   12.0880    8.5380 N   0  0  0  0  0  0  0  0  0  0  0  0
   23.8080   12.4840    9.8110 N   0  0  0  0  0  0  0  0  0  0  0  0
   23.7190   13.8220    9.6920 C   0  0  0  0  0  0  0  0  0  0  0  0
   23.5640   14.6710   10.8660 C   0  0  0  0  0  0  0  0  0  0  0  0
   22.4020   14.5390   11.6650 C   0  0  0  0  0  0  0  0  0  0  0  0
   22.2100   15.3360   12.7960 C   0  0  0  0  0  0  0  0  0  0  0  0
   23.1980   16.2500   13.1020 C   0  0  0  0  0  0  0  0  0  0  0  0
   24.3590   16.3870   12.3420 C   0  0  0  0  0  0  0  0  0  0  0  0
   24.5590   15.5980   11.2200 C   0  0  0  0  0  0  0  0  0  0  0  0
   25.2390   17.4390   12.9340 C   0  0  0  0  0  0  0  0  0  0  0  0
   24.4540   17.8990   14.0750 N   0  0  0  0  0  0  0  0  0  0  0  0
   24.9680   18.7870   15.1140 C   0  0  1  0  0  0  0  0  0  0  0  0
   25.9840   18.0580   15.9960 C   0  0  0  0  0  0  0  0  0  0  0  0
   26.4050   18.9570   17.1480 C   0  0  0  0  0  0  0  0  0  0  0  0
   26.9510   20.2700   16.6450 C   0  0  0  0  0  0  0  0  0  0  0  0
   27.8370   20.8830   17.2320 O   0  0  0  0  0  0  0  0  0  0  0  0
   26.3830   20.7720   15.5020 N   0  0  0  0  0  0  0  0  0  0  0  0
   25.5860   20.0980   14.6040 C   0  0  0  0  0  0  0  0  0  0  0  0
   25.3850   20.5730   13.4880 O   0  0  0  0  0  0  0  0  0  0  0  0
   23.2740   17.1880   14.2260 C   0  0  0  0  0  0  0  0  0  0  0  0
   22.4610   17.2740   15.1240 O   0  0  0  0  0  0  0  0  0  0  0  0
   21.3930   15.7410    6.1870 C   0  0  0  0  0  0  0  0  0  0  0  0
   20.1730   16.2380    6.1710 N   0  0  0  0  0  0  0  0  0  0  0  0
   18.9504   19.6134    8.5356 H   0  0  0  0  0  0  0  0  0  0  0  0
   19.8320   19.3891    6.9867 H   0  0  0  0  0  0  0  0  0  0  0  0
   18.0430   19.5504    6.9867 H   0  0  0  0  0  0  0  0  0  0  0  0
   18.4878   17.4114    8.7142 H   0  0  0  0  0  0  0  0  0  0  0  0
   18.0062   17.3080    6.9654 H   0  0  0  0  0  0  0  0  0  0  0  0
   21.4210   17.3238    9.0677 H   0  0  0  0  0  0  0  0  0  0  0  0
   24.0457   11.0912    8.3020 H   0  0  0  0  0  0  0  0  0  0  0  0
   21.6382   13.7966   11.3904 H   0  0  0  0  0  0  0  0  0  0  0  0
   21.3078   15.2391   13.4177 H   0  0  0  0  0  0  0  0  0  0  0  0
   25.4760   15.6953   10.6202 H   0  0  0  0  0  0  0  0  0  0  0  0
   26.2017   17.0166   13.2577 H   0  0  0  0  0  0  0  0  0  0  0  0
   25.5004   18.2414   12.2284 H   0  0  0  0  0  0  0  0  0  0  0  0
   24.0795   19.0747   15.6951 H   0  0  0  0  0  0  0  0  0  0  0  0
   25.5280   17.1406   16.3965 H   0  0  0  0  0  0  0  0  0  0  0  0
   26.8682   17.8004   15.3945 H   0  0  0  0  0  0  0  0  0  0  0  0
   25.5317   19.1531   17.7875 H   0  0  0  0  0  0  0  0  0  0  0  0
   27.1960   18.4463   17.7168 H   0  0  0  0  0  0  0  0  0  0  0  0
   26.5736   21.7622   15.2923 H   0  0  0  0  0  0  0  0  0  0  0  0
   21.8382   15.1468    5.3753 H   0  0  0  0  0  0  0  0  0  0  0  0
  1  2  1  0
  2  3  1  0
  3  4  2  0
  4  5  1  0
  5  6  1  0
  6  7  2  0
  6  8  2  0
  6  9  1  0
  9 10  2  0
 10 11  1  0
 11 12  1  0
 12 13  2  0
 13 14  1  0
 14 15  2  0
 15 16  1  0
 16 17  2  0
 17 18  1  0
 18 19  2  0
 18 20  1  0
 20 21  1  0
 21 22  1  0
 22 23  1  0
 23 24  1  0
 24 25  1  0
 25 26  2  0
 25 27  1  0
 27 28  1  0
 28 29  2  0
 21 30  1  0
 30 31  2  0
  5 32  1  0
 32 33  2  0
 33  3  1  0
 13  9  1  0
 19 14  1  0
 28 22  1  0
 30 17  1  0
  1 34  1  0
  1 35  1  0
  1 36  1  0
  2 37  1  0
  2 38  1  0
  4 39  1  0
 11 40  1  0
 15 41  1  0
 16 42  1  0
 19 43  1  0
 20 44  1  0
 20 45  1  0
 22 46  1  1
 23 47  1  0
 23 48  1  0
 24 49  1  0
 24 50  1  0
 27 51  1  0
 32 52  1  0
M  END
>  <meeko>  (118) 
{"is_sidechain": [true], "free_energy": -11.28, "intermolecular_energy": 0.0, "internal_energy": -11.28, "cluster_size": 20, "cluster_id": 1, "rank_in_cluster": 1}

>  <_RMSD_MCS_to_ref>  (118) 
1.172824747730405

$$$$
ligand
     RDKit          3D

 56 60  0  0  0  0  0  0  0  0999 V2000
   18.8250   19.0170    7.5350 C   0  0  0  0  0  0  0  0  0  0  0  0
   18.5200   17.5420    7.7330 C   0  0  0  0  0  0  0  0  0  0  0  0
   19.7560   16.7180    7.8170 C   0  0  0  0  0  0  0  0  0  0  0  0
   20.1360   15.8190    8.7950 C   0  0  0  0  0  0  0  0  0  0  0  0
   21.3450   15.3500    8.3640 N   0  0  0  0  0  0  0  0  0  0  0  0
   22.3350   14.2910    9.2070 S   0  0  0  0  0  6  0  0  0  0  0  0
   23.5240   14.1950    8.3780 O   0  0  0  0  0  0  0  0  0  0  0  0
   21.5480   13.1190    9.5300 O   0  0  0  0  0  0  0  0  0  0  0  0
   22.7910   15.1090   10.7270 C   0  0  0  0  0  0  0  0  0  0  0  0
   21.8220   15.0760   11.7630 C   0  0  0  0  0  0  0  0  0  0  0  0
   22.0630   15.6760   12.9970 C   0  0  0  0  0  0  0  0  0  0  0  0
   23.2730   16.3120   13.1770 C   0  0  0  0  0  0  0  0  0  0  0  0
   24.2280   16.3530   12.1520 C   0  0  0  0  0  0  0  0  0  0  0  0
   24.0310   15.7640   10.8970 C   0  0  0  0  0  0  0  0  0  0  0  0
   25.0550   15.8620    9.8520 C   0  0  0  0  0  0  0  0  0  0  0  0
   24.7530   16.4180    8.5990 C   0  0  0  0  0  0  0  0  0  0  0  0
   25.7240   16.4930    7.5970 C   0  0  0  0  0  0  0  0  0  0  0  0
   27.0130   16.0260    7.8380 C   0  0  0  0  0  0  0  0  0  0  0  0
   27.3350   15.4900    9.0820 C   0  0  0  0  0  0  0  0  0  0  0  0
   26.3650   15.4140   10.0840 C   0  0  0  0  0  0  0  0  0  0  0  0
   25.3870   17.1080   12.6840 C   0  0  0  0  0  0  0  0  0  0  0  0
   26.4530   17.2680   12.1250 O   0  0  0  0  0  0  0  0  0  0  0  0
   25.0390   17.5610   13.9500 N   0  0  0  0  0  0  0  0  0  0  0  0
   25.9890   18.1350   14.8980 C   0  0  2  0  0  0  0  0  0  0  0  0
   25.4710   18.1980   16.3340 C   0  0  0  0  0  0  0  0  0  0  0  0
   26.5600   18.7550   17.2370 C   0  0  0  0  0  0  0  0  0  0  0  0
   27.0270   20.1110   16.7620 C   0  0  0  0  0  0  0  0  0  0  0  0
   27.5650   20.9190   17.5140 O   0  0  0  0  0  0  0  0  0  0  0  0
   26.9030   20.3700   15.4200 N   0  0  0  0  0  0  0  0  0  0  0  0
   26.4620   19.5200   14.4320 C   0  0  0  0  0  0  0  0  0  0  0  0
   26.5540   19.8420   13.2480 O   0  0  0  0  0  0  0  0  0  0  0  0
   23.7750   17.0120   14.3970 C   0  0  0  0  0  0  0  0  0  0  0  0
   21.6810   15.9750    7.2080 C   0  0  0  0  0  0  0  0  0  0  0  0
   20.7250   16.8050    6.8380 N   0  0  0  0  0  0  0  0  0  0  0  0
   18.9260   19.5054    8.5155 H   0  0  0  0  0  0  0  0  0  0  0  0
   19.7645   19.1250    6.9731 H   0  0  0  0  0  0  0  0  0  0  0  0
   18.0054   19.4887    6.9731 H   0  0  0  0  0  0  0  0  0  0  0  0
   17.9494   17.4205    8.6655 H   0  0  0  0  0  0  0  0  0  0  0  0
   17.9431   17.1970    6.8623 H   0  0  0  0  0  0  0  0  0  0  0  0
   19.5908   15.5441    9.7100 H   0  0  0  0  0  0  0  0  0  0  0  0
   20.8625   14.5671   11.5885 H   0  0  0  0  0  0  0  0  0  0  0  0
   21.3129   15.6434   13.8009 H   0  0  0  0  0  0  0  0  0  0  0  0
   23.7398   16.7992    8.4036 H   0  0  0  0  0  0  0  0  0  0  0  0
   25.4695   16.9216    6.6165 H   0  0  0  0  0  0  0  0  0  0  0  0
   27.7757   16.0803    7.0472 H   0  0  0  0  0  0  0  0  0  0  0  0
   28.3547   15.1259    9.2759 H   0  0  0  0  0  0  0  0  0  0  0  0
   26.6308   14.9980   11.0670 H   0  0  0  0  0  0  0  0  0  0  0  0
   26.8453   17.4447   14.9143 H   0  0  0  0  0  0  0  0  0  0  0  0
   24.5875   18.8518   16.3776 H   0  0  0  0  0  0  0  0  0  0  0  0
   25.1941   17.1880   16.6705 H   0  0  0  0  0  0  0  0  0  0  0  0
   26.1642   18.8501   18.2589 H   0  0  0  0  0  0  0  0  0  0  0  0
   27.4165   18.0652   17.2139 H   0  0  0  0  0  0  0  0  0  0  0  0
   27.1730   21.3161   15.1152 H   0  0  0  0  0  0  0  0  0  0  0  0
   23.9205   16.3061   15.2280 H   0  0  0  0  0  0  0  0  0  0  0  0
   23.0797   17.7726   14.7817 H   0  0  0  0  0  0  0  0  0  0  0  0
   22.6189   15.8125    6.6566 H   0  0  0  0  0  0  0  0  0  0  0  0
  1  2  1  0
  2  3  1  0
  3  4  2  0
  4  5  1  0
  5  6  1  0
  6  7  2  0
  6  8  2  0
  6  9  1  0
  9 10  2  0
 10 11  1  0
 11 12  2  0
 12 13  1  0
 13 14  2  0
 14 15  1  0
 15 16  2  0
 16 17  1  0
 17 18  2  0
 18 19  1  0
 19 20  2  0
 13 21  1  0
 21 22  2  0
 21 23  1  0
 23 24  1  0
 24 25  1  0
 25 26  1  0
 26 27  1  0
 27 28  2  0
 27 29  1  0
 29 30  1  0
 30 31  2  0
 23 32  1  0
  5 33  1  0
 33 34  2  0
 34  3  1  0
 14  9  1  0
 20 15  1  0
 30 24  1  0
 32 12  1  0
  1 35  1  0
  1 36  1  0
  1 37  1  0
  2 38  1  0
  2 39  1  0
  4 40  1  0
 10 41  1  0
 11 42  1  0
 16 43  1  0
 17 44  1  0
 18 45  1  0
 19 46  1  0
 20 47  1  0
 24 48  1  1
 25 49  1  0
 25 50  1  0
 26 51  1  0
 26 52  1  0
 29 53  1  0
 32 54  1  0
 32 55  1  0
 33 56  1  0
M  END
>  <meeko>  (119) 
{"is_sidechain": [true], "free_energy": -11.27, "intermolecular_energy": 0.0, "internal_energy": -11.27, "cluster_size": 15, "cluster_id": 1, "rank_in_cluster": 1}

>  <_RMSD_MCS_to_ref>  (119) 
1.9826524041181695

$$$$
ligand
     RDKit          3D

 56 60  0  0  0  0  0  0  0  0999 V2000
   18.9090   19.1540    7.5370 C   0  0  0  0  0  0  0  0  0  0  0  0
   18.7730   17.6460    7.6780 C   0  0  0  0  0  0  0  0  0  0  0  0
   19.9970   16.9260    7.2320 C   0  0  0  0  0  0  0  0  0  0  0  0
   20.3520   15.6080    7.4340 C   0  0  0  0  0  0  0  0  0  0  0  0
   21.5490   15.4790    6.7880 N   0  0  0  0  0  0  0  0  0  0  0  0
   22.5890   14.1570    6.8950 S   0  0  0  0  0  6  0  0  0  0  0  0
   23.0720   13.9620    5.5400 O   0  0  0  0  0  0  0  0  0  0  0  0
   21.8160   13.1390    7.5830 O   0  0  0  0  0  0  0  0  0  0  0  0
   23.8210   14.6400    7.8460 O   0  0  0  0  0  0  0  0  0  0  0  0
   23.6940   14.7890    9.2050 C   0  0  0  0  0  0  0  0  0  0  0  0
   23.6230   16.1220    9.6440 C   0  0  0  0  0  0  0  0  0  0  0  0
   23.4990   16.4310   11.0020 C   0  0  0  0  0  0  0  0  0  0  0  0
   23.4380   15.3870   11.9130 C   0  0  0  0  0  0  0  0  0  0  0  0
   23.5030   14.0590   11.4730 C   0  0  0  0  0  0  0  0  0  0  0  0
   23.6410   13.7440   10.1280 C   0  0  0  0  0  0  0  0  0  0  0  0
   23.4600   13.1050   12.6260 C   0  0  0  0  0  0  0  0  0  0  0  0
   22.8780   13.9970   13.7340 C   0  0  0  0  0  0  0  0  0  0  0  0
   23.3280   15.4370   13.4190 C   0  0  2  0  0  0  0  0  0  0  0  0
   22.3930   16.5040   13.9730 C   0  0  0  0  0  0  0  0  0  0  0  0
   23.3310   17.5860   14.4250 C   0  0  0  0  0  0  0  0  0  0  0  0
   22.9780   18.7060   14.7650 O   0  0  0  0  0  0  0  0  0  0  0  0
   24.6090   17.1020   14.4390 N   0  0  0  0  0  0  0  0  0  0  0  0
   25.6970   17.8090   15.1020 C   0  0  2  0  0  0  0  0  0  0  0  0
   25.5380   17.9350   16.6140 C   0  0  0  0  0  0  0  0  0  0  0  0
   26.7460   18.6620   17.1850 C   0  0  0  0  0  0  0  0  0  0  0  0
   26.9370   20.0110   16.5300 C   0  0  0  0  0  0  0  0  0  0  0  0
   27.4740   20.9510   17.1090 O   0  0  0  0  0  0  0  0  0  0  0  0
   26.5300   20.1240   15.2230 N   0  0  0  0  0  0  0  0  0  0  0  0
   25.8540   19.1950   14.4670 C   0  0  0  0  0  0  0  0  0  0  0  0
   25.4650   19.4720   13.3330 O   0  0  0  0  0  0  0  0  0  0  0  0
   24.6560   15.7870   14.0630 C   0  0  0  0  0  0  0  0  0  0  0  0
   25.6030   15.0300   14.2140 O   0  0  0  0  0  0  0  0  0  0  0  0
   21.9220   16.6910    6.3010 C   0  0  0  0  0  0  0  0  0  0  0  0
   20.9860   17.5890    6.5320 N   0  0  0  0  0  0  0  0  0  0  0  0
   18.9504   19.6134    8.5356 H   0  0  0  0  0  0  0  0  0  0  0  0
   19.8320   19.3891    6.9867 H   0  0  0  0  0  0  0  0  0  0  0  0
   18.0430   19.5504    6.9867 H   0  0  0  0  0  0  0  0  0  0  0  0
   18.5855   17.4047    8.7347 H   0  0  0  0  0  0  0  0  0  0  0  0
   17.9389   17.3213    7.0386 H   0  0  0  0  0  0  0  0  0  0  0  0
   19.7976   14.8368    7.9888 H   0  0  0  0  0  0  0  0  0  0  0  0
   23.6657   16.9368    8.9062 H   0  0  0  0  0  0  0  0  0  0  0  0
   23.4510   17.4768   11.3397 H   0  0  0  0  0  0  0  0  0  0  0  0
   23.7069   12.6967    9.7982 H   0  0  0  0  0  0  0  0  0  0  0  0
   22.8051   12.2469   12.4144 H   0  0  0  0  0  0  0  0  0  0  0  0
   24.4324   12.6549   12.8745 H   0  0  0  0  0  0  0  0  0  0  0  0
   21.7798   13.9338   13.7350 H   0  0  0  0  0  0  0  0  0  0  0  0
   23.2298   13.6787   14.7264 H   0  0  0  0  0  0  0  0  0  0  0  0
   21.7115   16.8741   13.1928 H   0  0  0  0  0  0  0  0  0  0  0  0
   21.7456   16.1312   14.7804 H   0  0  0  0  0  0  0  0  0  0  0  0
   26.6025   17.2020   14.9547 H   0  0  0  0  0  0  0  0  0  0  0  0
   24.6246   18.5040   16.8417 H   0  0  0  0  0  0  0  0  0  0  0  0
   25.4634   16.9334   17.0625 H   0  0  0  0  0  0  0  0  0  0  0  0
   26.5994   18.8062   18.2656 H   0  0  0  0  0  0  0  0  0  0  0  0
   27.6410   18.0526   16.9909 H   0  0  0  0  0  0  0  0  0  0  0  0
   26.7586   21.0113   14.7524 H   0  0  0  0  0  0  0  0  0  0  0  0
   22.8724   16.8943    5.7859 H   0  0  0  0  0  0  0  0  0  0  0  0
  1  2  1  0
  2  3  1  0
  3  4  2  0
  4  5  1  0
  5  6  1  0
  6  7  2  0
  6  8  2  0
  6  9  1  0
  9 10  1  0
 10 11  2  0
 11 12  1  0
 12 13  2  0
 13 14  1  0
 14 15  2  0
 14 16  1  0
 16 17  1  0
 18 17  1  1
 18 19  1  0
 19 20  1  0
 20 21  2  0
 20 22  1  0
 22 23  1  0
 23 24  1  0
 24 25  1  0
 25 26  1  0
 26 27  2  0
 26 28  1  0
 28 29  1  0
 29 30  2  0
 22 31  1  0
 31 32  2  0
  5 33  1  0
 33 34  2  0
 34  3  1  0
 15 10  1  0
 31 18  1  0
 18 13  1  0
 29 23  1  0
  1 35  1  0
  1 36  1  0
  1 37  1  0
  2 38  1  0
  2 39  1  0
  4 40  1  0
 11 41  1  0
 12 42  1  0
 15 43  1  0
 16 44  1  0
 16 45  1  0
 17 46  1  0
 17 47  1  0
 19 48  1  0
 19 49  1  0
 23 50  1  1
 24 51  1  0
 24 52  1  0
 25 53  1  0
 25 54  1  0
 28 55  1  0
 33 56  1  0
M  END
>  <meeko>  (120) 
{"is_sidechain": [true], "free_energy": -11.27, "intermolecular_energy": 0.0, "internal_energy": -11.27, "cluster_size": 18, "cluster_id": 1, "rank_in_cluster": 1}

>  <_RMSD_MCS_to_ref>  (120) 
1.8088541308426906

$$$$
ligand
     RDKit          3D

 48 51  0  0  0  0  0  0  0  0999 V2000
   18.9090   19.1540    7.5370 C   0  0  0  0  0  0  0  0  0  0  0  0
   18.7730   17.6460    7.6780 C   0  0  0  0  0  0  0  0  0  0  0  0
   19.9070   16.9180    7.0450 C   0  0  0  0  0  0  0  0  0  0  0  0
   20.7700   15.9980    7.6060 C   0  0  0  0  0  0  0  0  0  0  0  0
   21.5880   15.6350    6.5760 N   0  0  0  0  0  0  0  0  0  0  0  0
   22.9800   14.7080    6.6980 S   0  0  0  0  0  6  0  0  0  0  0  0
   23.6320   14.7870    5.4060 O   0  0  0  0  0  0  0  0  0  0  0  0
   22.5930   13.4570    7.3160 O   0  0  0  0  0  0  0  0  0  0  0  0
   24.0540   15.4700    7.8090 C   0  0  0  0  0  0  0  0  0  0  0  0
   25.2890   16.0130    7.5000 C   0  0  0  0  0  0  0  0  0  0  0  0
   25.8110   16.5430    8.6500 N   0  0  0  0  0  0  0  0  0  0  0  0
   24.9340   16.3560    9.6840 C   0  0  0  0  0  0  0  0  0  0  0  0
   25.1580   16.7760   10.9410 N   0  0  0  0  0  0  0  0  0  0  0  0
   24.1370   16.4670   11.7910 C   0  0  0  0  0  0  0  0  0  0  0  0
   24.3240   16.9160   13.2120 C   0  0  0  0  0  0  0  0  0  0  0  0
   23.7760   16.3500   14.1490 O   0  0  0  0  0  0  0  0  0  0  0  0
   25.1420   18.0150   13.3630 N   0  0  0  0  0  0  0  0  0  0  0  0
   25.3030   18.7020   14.6310 C   0  0  1  0  0  0  0  0  0  0  0  0
   26.2850   17.9840   15.5510 C   0  0  0  0  0  0  0  0  0  0  0  0
   26.4280   18.7640   16.8490 C   0  0  0  0  0  0  0  0  0  0  0  0
   26.8450   20.1920   16.5870 C   0  0  0  0  0  0  0  0  0  0  0  0
   27.5680   20.8190   17.3560 O   0  0  0  0  0  0  0  0  0  0  0  0
   26.3470   20.7790   15.4510 N   0  0  0  0  0  0  0  0  0  0  0  0
   25.8140   20.1240   14.3680 C   0  0  0  0  0  0  0  0  0  0  0  0
   25.7430   20.6730   13.2700 O   0  0  0  0  0  0  0  0  0  0  0  0
   22.9710   15.7920   11.4430 C   0  0  0  0  0  0  0  0  0  0  0  0
   22.7970   15.3820   10.1200 C   0  0  0  0  0  0  0  0  0  0  0  0
   23.8170   15.6790    9.1970 C   0  0  0  0  0  0  0  0  0  0  0  0
   21.2610   16.3550    5.4730 C   0  0  0  0  0  0  0  0  0  0  0  0
   20.2300   17.1360    5.7200 N   0  0  0  0  0  0  0  0  0  0  0  0
   18.9504   19.6134    8.5356 H   0  0  0  0  0  0  0  0  0  0  0  0
   19.8320   19.3891    6.9867 H   0  0  0  0  0  0  0  0  0  0  0  0
   18.0430   19.5504    6.9867 H   0  0  0  0  0  0  0  0  0  0  0  0
   18.7415   17.3915    8.7477 H   0  0  0  0  0  0  0  0  0  0  0  0
   17.8480   17.3408    7.1668 H   0  0  0  0  0  0  0  0  0  0  0  0
   20.7929   15.6395    8.6457 H   0  0  0  0  0  0  0  0  0  0  0  0
   25.7658   16.0180    6.5087 H   0  0  0  0  0  0  0  0  0  0  0  0
   26.7252   17.0114    8.7253 H   0  0  0  0  0  0  0  0  0  0  0  0
   25.6596   18.3625   12.5431 H   0  0  0  0  0  0  0  0  0  0  0  0
   24.3234   18.7213   15.1310 H   0  0  0  0  0  0  0  0  0  0  0  0
   25.9100   16.9734   15.7701 H   0  0  0  0  0  0  0  0  0  0  0  0
   27.2650   17.9127   15.0566 H   0  0  0  0  0  0  0  0  0  0  0  0
   25.4624   18.7634   17.3758 H   0  0  0  0  0  0  0  0  0  0  0  0
   27.2047   18.2817   17.4606 H   0  0  0  0  0  0  0  0  0  0  0  0
   26.3757   21.8076   15.4064 H   0  0  0  0  0  0  0  0  0  0  0  0
   22.1987   15.5848   12.1984 H   0  0  0  0  0  0  0  0  0  0  0  0
   21.8901   14.8431    9.8084 H   0  0  0  0  0  0  0  0  0  0  0  0
   21.7843   16.2946    4.5073 H   0  0  0  0  0  0  0  0  0  0  0  0
  1  2  1  0
  2  3  1  0
  3  4  2  0
  4  5  1  0
  5  6  1  0
  6  7  2  0
  6  8  2  0
  6  9  1  0
  9 10  2  0
 10 11  1  0
 11 12  1  0
 12 13  2  0
 13 14  1  0
 14 15  1  0
 15 16  2  0
 15 17  1  0
 17 18  1  0
 18 19  1  0
 19 20  1  0
 20 21  1  0
 21 22  2  0
 21 23  1  0
 23 24  1  0
 24 25  2  0
 14 26  2  0
 26 27  1  0
 27 28  2  0
  5 29  1  0
 29 30  2  0
 30  3  1  0
 28  9  1  0
 28 12  1  0
 24 18  1  0
  1 31  1  0
  1 32  1  0
  1 33  1  0
  2 34  1  0
  2 35  1  0
  4 36  1  0
 10 37  1  0
 11 38  1  0
 17 39  1  0
 18 40  1  1
 19 41  1  0
 19 42  1  0
 20 43  1  0
 20 44  1  0
 23 45  1  0
 26 46  1  0
 27 47  1  0
 29 48  1  0
M  END
>  <meeko>  (121) 
{"is_sidechain": [true], "free_energy": -11.27, "intermolecular_energy": 0.0, "internal_energy": -11.27, "cluster_size": 20, "cluster_id": 1, "rank_in_cluster": 1}

>  <_RMSD_MCS_to_ref>  (121) 
0.6412425438163004

$$$$
ligand
     RDKit          3D

 51 54  0  0  0  0  0  0  0  0999 V2000
   18.9090   19.1540    7.5370 C   0  0  0  0  0  0  0  0  0  0  0  0
   18.7730   17.6460    7.6780 C   0  0  0  0  0  0  0  0  0  0  0  0
   20.0000   16.9270    7.2390 C   0  0  0  0  0  0  0  0  0  0  0  0
   20.8390   16.1120    7.9720 C   0  0  0  0  0  0  0  0  0  0  0  0
   21.8070   15.7430    7.0840 N   0  0  0  0  0  0  0  0  0  0  0  0
   22.9880   14.5750    7.3490 S   0  0  0  0  0  6  0  0  0  0  0  0
   24.2500   15.2920    7.3370 O   0  0  0  0  0  0  0  0  0  0  0  0
   22.7020   13.4970    6.4240 O   0  0  0  0  0  0  0  0  0  0  0  0
   22.6500   14.0180    8.9950 C   0  0  0  0  0  0  0  0  0  0  0  0
   21.7860   12.9240    9.1500 C   0  0  0  0  0  0  0  0  0  0  0  0
   21.4520   12.4740   10.4250 C   0  0  0  0  0  0  0  0  0  0  0  0
   21.9780   13.1110   11.5480 C   0  0  0  0  0  0  0  0  0  0  0  0
   22.8530   14.1930   11.4010 C   0  0  0  0  0  0  0  0  0  0  0  0
   23.4070   14.8610   12.5800 C   0  0  0  0  0  0  0  0  0  0  0  0
   24.2670   15.8900   12.4670 C   0  0  0  0  0  0  0  0  0  0  0  0
   24.7670   16.5110   13.7310 C   0  0  0  0  0  0  0  0  0  0  0  0
   24.8420   15.8750   14.7810 O   0  0  0  0  0  0  0  0  0  0  0  0
   25.1330   17.8330   13.6450 N   0  0  0  0  0  0  0  0  0  0  0  0
   25.3110   18.6390   14.8410 C   0  0  1  0  0  0  0  0  0  0  0  0
   26.3190   17.9940   15.7820 C   0  0  0  0  0  0  0  0  0  0  0  0
   26.4860   18.8610   17.0210 C   0  0  0  0  0  0  0  0  0  0  0  0
   26.8790   20.2720   16.6520 C   0  0  0  0  0  0  0  0  0  0  0  0
   27.6200   20.9530   17.3560 O   0  0  0  0  0  0  0  0  0  0  0  0
   26.3430   20.7780   15.4950 N   0  0  0  0  0  0  0  0  0  0  0  0
   25.8080   20.0430   14.4620 C   0  0  0  0  0  0  0  0  0  0  0  0
   25.7440   20.5170   13.3300 O   0  0  0  0  0  0  0  0  0  0  0  0
   24.6660   16.3550   11.1070 C   0  0  0  0  0  0  0  0  0  0  0  0
   25.4600   17.2800   10.9480 O   0  0  0  0  0  0  0  0  0  0  0  0
   24.1110   15.7160   10.0300 N   0  0  0  0  0  0  0  0  0  0  0  0
   23.2050   14.6440   10.1190 C   0  0  0  0  0  0  0  0  0  0  0  0
   21.5270   16.2800    5.8690 C   0  0  0  0  0  0  0  0  0  0  0  0
   20.4360   17.0140    5.9310 N   0  0  0  0  0  0  0  0  0  0  0  0
   18.9504   19.6134    8.5356 H   0  0  0  0  0  0  0  0  0  0  0  0
   19.8320   19.3891    6.9867 H   0  0  0  0  0  0  0  0  0  0  0  0
   18.0430   19.5504    6.9867 H   0  0  0  0  0  0  0  0  0  0  0  0
   18.5799   17.4050    8.7338 H   0  0  0  0  0  0  0  0  0  0  0  0
   17.9425   17.3204    7.0344 H   0  0  0  0  0  0  0  0  0  0  0  0
   20.7480   15.8255    9.0301 H   0  0  0  0  0  0  0  0  0  0  0  0
   21.3718   12.4210    8.2637 H   0  0  0  0  0  0  0  0  0  0  0  0
   20.7736   11.6166   10.5459 H   0  0  0  0  0  0  0  0  0  0  0  0
   21.7039   12.7614   12.5543 H   0  0  0  0  0  0  0  0  0  0  0  0
   23.1135   14.5138   13.5816 H   0  0  0  0  0  0  0  0  0  0  0  0
   25.2833   18.2587   12.7192 H   0  0  0  0  0  0  0  0  0  0  0  0
   24.3385   18.7120   15.3498 H   0  0  0  0  0  0  0  0  0  0  0  0
   25.9585   16.9978   16.0779 H   0  0  0  0  0  0  0  0  0  0  0  0
   27.2877   17.8973   15.2699 H   0  0  0  0  0  0  0  0  0  0  0  0
   25.5344   18.8862   17.5721 H   0  0  0  0  0  0  0  0  0  0  0  0
   27.2836   18.4289   17.6433 H   0  0  0  0  0  0  0  0  0  0  0  0
   26.3408   21.8026   15.3898 H   0  0  0  0  0  0  0  0  0  0  0  0
   24.3755   16.0433    9.0899 H   0  0  0  0  0  0  0  0  0  0  0  0
   22.1273   16.1238    4.9606 H   0  0  0  0  0  0  0  0  0  0  0  0
  1  2  1  0
  2  3  1  0
  3  4  2  0
  4  5  1  0
  5  6  1  0
  6  7  2  0
  6  8  2  0
  6  9  1  0
  9 10  2  0
 10 11  1  0
 11 12  2  0
 12 13  1  0
 13 14  1  0
 14 15  2  0
 15 16  1  0
 16 17  2  0
 16 18  1  0
 18 19  1  0
 19 20  1  0
 20 21  1  0
 21 22  1  0
 22 23  2  0
 22 24  1  0
 24 25  1  0
 25 26  2  0
 15 27  1  0
 27 28  2  0
 27 29  1  0
 29 30  1  0
  5 31  1  0
 31 32  2  0
 32  3  1  0
 30  9  1  0
 30 13  2  0
 25 19  1  0
  1 33  1  0
  1 34  1  0
  1 35  1  0
  2 36  1  0
  2 37  1  0
  4 38  1  0
 10 39  1  0
 11 40  1  0
 12 41  1  0
 14 42  1  0
 18 43  1  0
 19 44  1  1
 20 45  1  0
 20 46  1  0
 21 47  1  0
 21 48  1  0
 24 49  1  0
 29 50  1  0
 31 51  1  0
M  END
>  <meeko>  (122) 
{"is_sidechain": [true], "free_energy": -11.27, "intermolecular_energy": 0.0, "internal_energy": -11.27, "cluster_size": 19, "cluster_id": 1, "rank_in_cluster": 1}

>  <_RMSD_MCS_to_ref>  (122) 
0.6310176965294498

$$$$
ligand
     RDKit          3D

 50 53  0  0  0  0  0  0  0  0999 V2000
   18.9090   19.1540    7.5370 C   0  0  0  0  0  0  0  0  0  0  0  0
   18.7730   17.6460    7.6780 C   0  0  0  0  0  0  0  0  0  0  0  0
   19.9780   16.9240    7.1870 C   0  0  0  0  0  0  0  0  0  0  0  0
   21.1960   16.7410    7.8120 C   0  0  0  0  0  0  0  0  0  0  0  0
   21.9360   16.0380    6.9050 N   0  0  0  0  0  0  0  0  0  0  0  0
   23.4390   15.3430    7.1910 S   0  0  0  0  0  6  0  0  0  0  0  0
   23.6820   14.4450    6.0760 O   0  0  0  0  0  0  0  0  0  0  0  0
   24.3340   16.4380    7.5090 O   0  0  0  0  0  0  0  0  0  0  0  0
   23.1780   14.3760    8.6550 C   0  0  0  0  0  0  0  0  0  0  0  0
   22.5050   13.1490    8.5100 C   0  0  0  0  0  0  0  0  0  0  0  0
   22.3150   12.3200    9.6140 C   0  0  0  0  0  0  0  0  0  0  0  0
   22.7990   12.7130   10.8570 C   0  0  0  0  0  0  0  0  0  0  0  0
   23.4460   13.9480   10.9880 C   0  0  0  0  0  0  0  0  0  0  0  0
   23.9940   14.3620   12.2810 C   0  0  0  0  0  0  0  0  0  0  0  0
   24.0960   13.5970   13.2260 O   0  0  0  0  0  0  0  0  0  0  0  0
   24.4650   15.7820   12.3870 C   0  0  0  0  0  0  0  0  0  0  0  0
   24.7780   16.4230   13.7200 C   0  0  0  0  0  0  0  0  0  0  0  0
   24.6550   15.7850   14.7540 O   0  0  0  0  0  0  0  0  0  0  0  0
   25.1460   17.7490   13.6400 N   0  0  0  0  0  0  0  0  0  0  0  0
   25.2800   18.5660   14.8340 C   0  0  1  0  0  0  0  0  0  0  0  0
   26.2290   17.9440   15.8530 C   0  0  0  0  0  0  0  0  0  0  0  0
   26.3510   18.8620   17.0600 C   0  0  0  0  0  0  0  0  0  0  0  0
   26.7930   20.2480   16.6530 C   0  0  0  0  0  0  0  0  0  0  0  0
   27.4980   20.9520   17.3710 O   0  0  0  0  0  0  0  0  0  0  0  0
   26.3390   20.7080   15.4430 N   0  0  0  0  0  0  0  0  0  0  0  0
   25.8120   19.9450   14.4310 C   0  0  0  0  0  0  0  0  0  0  0  0
   25.7600   20.3690   13.2770 O   0  0  0  0  0  0  0  0  0  0  0  0
   24.6170   16.5300   11.3270 N   0  0  0  0  0  0  0  0  0  0  0  0
   24.3470   16.0200   10.0910 N   0  0  0  0  0  0  0  0  0  0  0  0
   23.6230   14.8230    9.9100 C   0  0  0  0  0  0  0  0  0  0  0  0
   21.1700   15.7730    5.8160 C   0  0  0  0  0  0  0  0  0  0  0  0
   19.9740   16.3080    5.9530 N   0  0  0  0  0  0  0  0  0  0  0  0
   18.9504   19.6134    8.5356 H   0  0  0  0  0  0  0  0  0  0  0  0
   19.8320   19.3891    6.9867 H   0  0  0  0  0  0  0  0  0  0  0  0
   18.0430   19.5504    6.9867 H   0  0  0  0  0  0  0  0  0  0  0  0
   18.6220   17.4018    8.7399 H   0  0  0  0  0  0  0  0  0  0  0  0
   17.9158   17.3260    7.0675 H   0  0  0  0  0  0  0  0  0  0  0  0
   21.5004   17.0834    8.8121 H   0  0  0  0  0  0  0  0  0  0  0  0
   22.1279   12.8433    7.5229 H   0  0  0  0  0  0  0  0  0  0  0  0
   21.7861   11.3619    9.5030 H   0  0  0  0  0  0  0  0  0  0  0  0
   22.6744   12.0579   11.7318 H   0  0  0  0  0  0  0  0  0  0  0  0
   25.3293   18.1682   12.7172 H   0  0  0  0  0  0  0  0  0  0  0  0
   24.2889   18.6451   15.3047 H   0  0  0  0  0  0  0  0  0  0  0  0
   25.8348   16.9682   16.1730 H   0  0  0  0  0  0  0  0  0  0  0  0
   27.2198   17.8074   15.3951 H   0  0  0  0  0  0  0  0  0  0  0  0
   25.3730   18.9298   17.5589 H   0  0  0  0  0  0  0  0  0  0  0  0
   27.1067   18.4424   17.7404 H   0  0  0  0  0  0  0  0  0  0  0  0
   26.3993   21.7229   15.2781 H   0  0  0  0  0  0  0  0  0  0  0  0
   24.6838   16.5271    9.2602 H   0  0  0  0  0  0  0  0  0  0  0  0
   21.5014   15.1931    4.9420 H   0  0  0  0  0  0  0  0  0  0  0  0
  1  2  1  0
  2  3  1  0
  3  4  2  0
  4  5  1  0
  5  6  1  0
  6  7  2  0
  6  8  2  0
  6  9  1  0
  9 10  2  0
 10 11  1  0
 11 12  2  0
 12 13  1  0
 13 14  1  0
 14 15  2  0
 14 16  1  0
 16 17  1  0
 17 18  2  0
 17 19  1  0
 19 20  1  0
 20 21  1  0
 21 22  1  0
 22 23  1  0
 23 24  2  0
 23 25  1  0
 25 26  1  0
 26 27  2  0
 16 28  2  0
 28 29  1  0
 29 30  1  0
  5 31  1  0
 31 32  2  0
 32  3  1  0
 30  9  1  0
 30 13  2  0
 26 20  1  0
  1 33  1  0
  1 34  1  0
  1 35  1  0
  2 36  1  0
  2 37  1  0
  4 38  1  0
 10 39  1  0
 11 40  1  0
 12 41  1  0
 19 42  1  0
 20 43  1  1
 21 44  1  0
 21 45  1  0
 22 46  1  0
 22 47  1  0
 25 48  1  0
 29 49  1  0
 31 50  1  0
M  END
>  <meeko>  (123) 
{"is_sidechain": [true], "free_energy": -11.27, "intermolecular_energy": 0.0, "internal_energy": -11.27, "cluster_size": 19, "cluster_id": 1, "rank_in_cluster": 1}

>  <_RMSD_MCS_to_ref>  (123) 
0.5909448178787744

$$$$
ligand
     RDKit          3D

 54 58  0  0  0  0  0  0  0  0999 V2000
   18.9090   19.1540    7.5370 C   0  0  0  0  0  0  0  0  0  0  0  0
   18.7730   17.6460    7.6780 C   0  0  0  0  0  0  0  0  0  0  0  0
   19.7050   16.9110    6.7800 C   0  0  0  0  0  0  0  0  0  0  0  0
   21.0280   17.1820    6.4930 C   0  0  0  0  0  0  0  0  0  0  0  0
   21.3950   16.1870    5.6320 N   0  0  0  0  0  0  0  0  0  0  0  0
   22.8690   16.0490    4.8350 S   0  0  0  0  0  6  0  0  0  0  0  0
   22.6390   15.0750    3.7810 O   0  0  0  0  0  0  0  0  0  0  0  0
   23.2600   17.4210    4.5530 O   0  0  0  0  0  0  0  0  0  0  0  0
   23.9630   15.3600    6.0550 C   0  0  0  0  0  0  0  0  0  0  0  0
   24.8960   14.4940    5.6230 N   0  0  0  0  0  0  0  0  0  0  0  0
   25.6700   13.9830    6.5930 C   0  0  0  0  0  0  0  0  0  0  0  0
   25.5360   14.3090    7.9280 C   0  0  0  0  0  0  0  0  0  0  0  0
   24.5400   15.2150    8.2620 C   0  0  0  0  0  0  0  0  0  0  0  0
   24.2770   15.6520    9.6510 C   0  0  0  0  0  0  0  0  0  0  0  0
   23.0660   15.3260   10.3200 C   0  0  0  0  0  0  0  0  0  0  0  0
   22.8120   15.7400   11.6330 C   0  0  0  0  0  0  0  0  0  0  0  0
   23.7900   16.4780   12.2670 C   0  0  0  0  0  0  0  0  0  0  0  0
   24.9910   16.8130   11.6530 C   0  0  0  0  0  0  0  0  0  0  0  0
   25.2450   16.4080   10.3520 C   0  0  0  0  0  0  0  0  0  0  0  0
   25.8340   17.6210   12.5810 C   0  0  0  0  0  0  0  0  0  0  0  0
   25.0370   17.6330   13.8030 N   0  0  0  0  0  0  0  0  0  0  0  0
   25.3130   18.5110   14.9340 C   0  0  1  0  0  0  0  0  0  0  0  0
   26.3260   17.9120   15.9050 C   0  0  0  0  0  0  0  0  0  0  0  0
   26.4920   18.8410   17.0970 C   0  0  0  0  0  0  0  0  0  0  0  0
   26.8870   20.2310   16.6560 C   0  0  0  0  0  0  0  0  0  0  0  0
   27.6460   20.9380   17.3130 O   0  0  0  0  0  0  0  0  0  0  0  0
   26.3360   20.6830   15.4840 N   0  0  0  0  0  0  0  0  0  0  0  0
   25.8090   19.8960   14.4850 C   0  0  0  0  0  0  0  0  0  0  0  0
   25.7660   20.3100   13.3280 O   0  0  0  0  0  0  0  0  0  0  0  0
   23.7970   17.0380   13.6220 C   0  0  0  0  0  0  0  0  0  0  0  0
   22.8720   16.9760   14.4090 O   0  0  0  0  0  0  0  0  0  0  0  0
   23.7300   15.7490    7.3220 N   0  0  0  0  0  0  0  0  0  0  0  0
   20.3230   15.3850    5.3960 C   0  0  0  0  0  0  0  0  0  0  0  0
   19.2800   15.7940    6.0870 N   0  0  0  0  0  0  0  0  0  0  0  0
   18.9504   19.6134    8.5356 H   0  0  0  0  0  0  0  0  0  0  0  0
   19.8320   19.3891    6.9867 H   0  0  0  0  0  0  0  0  0  0  0  0
   18.0430   19.5504    6.9867 H   0  0  0  0  0  0  0  0  0  0  0  0
   18.9904   17.3666    8.7195 H   0  0  0  0  0  0  0  0  0  0  0  0
   17.7457   17.3718    7.3960 H   0  0  0  0  0  0  0  0  0  0  0  0
   21.6455   18.0100    6.8713 H   0  0  0  0  0  0  0  0  0  0  0  0
   26.4538   13.2654    6.3090 H   0  0  0  0  0  0  0  0  0  0  0  0
   26.1912   13.8690    8.6942 H   0  0  0  0  0  0  0  0  0  0  0  0
   22.3067   14.7314    9.7909 H   0  0  0  0  0  0  0  0  0  0  0  0
   21.8690   15.4866   12.1396 H   0  0  0  0  0  0  0  0  0  0  0  0
   26.1958   16.6736    9.8667 H   0  0  0  0  0  0  0  0  0  0  0  0
   26.8107   17.1435   12.7482 H   0  0  0  0  0  0  0  0  0  0  0  0
   26.0662   18.6262   12.1993 H   0  0  0  0  0  0  0  0  0  0  0  0
   24.3506   18.6248   15.4545 H   0  0  0  0  0  0  0  0  0  0  0  0
   25.9675   16.9313   16.2510 H   0  0  0  0  0  0  0  0  0  0  0  0
   27.2939   17.7888   15.3971 H   0  0  0  0  0  0  0  0  0  0  0  0
   25.5396   18.8955   17.6447 H   0  0  0  0  0  0  0  0  0  0  0  0
   27.2882   18.4409   17.7420 H   0  0  0  0  0  0  0  0  0  0  0  0
   26.3146   21.7024   15.3384 H   0  0  0  0  0  0  0  0  0  0  0  0
   20.3267   14.5158    4.7218 H   0  0  0  0  0  0  0  0  0  0  0  0
  1  2  1  0
  2  3  1  0
  3  4  2  0
  4  5  1  0
  5  6  1  0
  6  7  2  0
  6  8  2  0
  6  9  1  0
  9 10  2  0
 10 11  1  0
 11 12  2  0
 12 13  1  0
 13 14  1  0
 14 15  2  0
 15 16  1  0
 16 17  2  0
 17 18  1  0
 18 19  2  0
 18 20  1  0
 20 21  1  0
 21 22  1  0
 22 23  1  0
 23 24  1  0
 24 25  1  0
 25 26  2  0
 25 27  1  0
 27 28  1  0
 28 29  2  0
 21 30  1  0
 30 31  2  0
 13 32  2  0
  5 33  1  0
 33 34  2  0
 34  3  1  0
 32  9  1  0
 19 14  1  0
 28 22  1  0
 30 17  1  0
  1 35  1  0
  1 36  1  0
  1 37  1  0
  2 38  1  0
  2 39  1  0
  4 40  1  0
 11 41  1  0
 12 42  1  0
 15 43  1  0
 16 44  1  0
 19 45  1  0
 20 46  1  0
 20 47  1  0
 22 48  1  1
 23 49  1  0
 23 50  1  0
 24 51  1  0
 24 52  1  0
 27 53  1  0
 33 54  1  0
M  END
>  <meeko>  (124) 
{"is_sidechain": [true], "free_energy": -11.27, "intermolecular_energy": 0.0, "internal_energy": -11.27, "cluster_size": 19, "cluster_id": 1, "rank_in_cluster": 1}

>  <_RMSD_MCS_to_ref>  (124) 
0.6173944804130048

$$$$
ligand
     RDKit          3D

 55 59  0  0  0  0  0  0  0  0999 V2000
   18.8250   19.0170    7.5350 C   0  0  0  0  0  0  0  0  0  0  0  0
   18.5200   17.5420    7.7330 C   0  0  0  0  0  0  0  0  0  0  0  0
   19.7560   16.7150    7.7940 C   0  0  0  0  0  0  0  0  0  0  0  0
   20.2170   15.9220    8.8270 C   0  0  0  0  0  0  0  0  0  0  0  0
   21.3650   15.3730    8.3380 N   0  0  0  0  0  0  0  0  0  0  0  0
   22.3650   14.2750    9.1140 S   0  0  0  0  0  6  0  0  0  0  0  0
   21.4930   13.1510    9.4030 O   0  0  0  0  0  0  0  0  0  0  0  0
   23.5550   14.1260    8.2990 O   0  0  0  0  0  0  0  0  0  0  0  0
   22.8390   15.0280   10.6620 C   0  0  0  0  0  0  0  0  0  0  0  0
   21.8110   15.1570   11.6330 C   0  0  0  0  0  0  0  0  0  0  0  0
   22.0670   15.7320   12.8770 C   0  0  0  0  0  0  0  0  0  0  0  0
   23.3570   16.1500   13.1220 C   0  0  0  0  0  0  0  0  0  0  0  0
   24.3850   16.0260   12.1860 C   0  0  0  0  0  0  0  0  0  0  0  0
   24.1600   15.4630   10.9240 C   0  0  0  0  0  0  0  0  0  0  0  0
   25.2850   15.3540    9.9900 C   0  0  0  0  0  0  0  0  0  0  0  0
   26.1160   14.2290    9.9880 C   0  0  0  0  0  0  0  0  0  0  0  0
   27.1800   14.1870    9.1010 C   0  0  0  0  0  0  0  0  0  0  0  0
   27.4750   15.1800    8.2380 N   0  0  0  0  0  0  0  0  0  0  0  0
   26.6740   16.2640    8.2590 C   0  0  0  0  0  0  0  0  0  0  0  0
   25.5860   16.3970    9.1070 C   0  0  0  0  0  0  0  0  0  0  0  0
   25.6500   16.5810   12.7700 C   0  0  0  0  0  0  0  0  0  0  0  0
   25.2610   16.9280   14.1280 N   0  0  0  0  0  0  0  0  0  0  0  0
   26.1330   17.7360   14.9780 C   0  0  2  0  0  0  0  0  0  0  0  0
   25.7090   17.7690   16.4460 C   0  0  0  0  0  0  0  0  0  0  0  0
   26.7170   18.5830   17.2410 C   0  0  0  0  0  0  0  0  0  0  0  0
   26.8620   19.9790   16.6790 C   0  0  0  0  0  0  0  0  0  0  0  0
   27.2590   20.9210   17.3590 O   0  0  0  0  0  0  0  0  0  0  0  0
   26.6050   20.1340   15.3390 N   0  0  0  0  0  0  0  0  0  0  0  0
   26.2720   19.1620   14.4240 C   0  0  0  0  0  0  0  0  0  0  0  0
   26.1980   19.4340   13.2250 O   0  0  0  0  0  0  0  0  0  0  0  0
   23.8990   16.7790   14.3320 C   0  0  0  0  0  0  0  0  0  0  0  0
   23.2330   17.1050   15.2920 O   0  0  0  0  0  0  0  0  0  0  0  0
   21.6050   15.8680    7.0960 C   0  0  0  0  0  0  0  0  0  0  0  0
   20.6230   16.6590    6.7190 N   0  0  0  0  0  0  0  0  0  0  0  0
   18.9260   19.5054    8.5155 H   0  0  0  0  0  0  0  0  0  0  0  0
   19.7645   19.1250    6.9731 H   0  0  0  0  0  0  0  0  0  0  0  0
   18.0054   19.4887    6.9731 H   0  0  0  0  0  0  0  0  0  0  0  0
   17.9644   17.4185    8.6743 H   0  0  0  0  0  0  0  0  0  0  0  0
   17.9281   17.2011    6.8708 H   0  0  0  0  0  0  0  0  0  0  0  0
   19.7622   15.7688    9.8168 H   0  0  0  0  0  0  0  0  0  0  0  0
   20.7976   14.7979   11.4002 H   0  0  0  0  0  0  0  0  0  0  0  0
   21.2737   15.8470   13.6302 H   0  0  0  0  0  0  0  0  0  0  0  0
   25.9285   13.3929   10.6778 H   0  0  0  0  0  0  0  0  0  0  0  0
   27.8203   13.2926    9.1011 H   0  0  0  0  0  0  0  0  0  0  0  0
   26.8961   17.0881    7.5651 H   0  0  0  0  0  0  0  0  0  0  0  0
   24.9691   17.3075    9.0863 H   0  0  0  0  0  0  0  0  0  0  0  0
   26.4500   15.8261   12.7690 H   0  0  0  0  0  0  0  0  0  0  0  0
   26.0503   17.4345   12.2031 H   0  0  0  0  0  0  0  0  0  0  0  0
   27.1140   17.2390   14.9552 H   0  0  0  0  0  0  0  0  0  0  0  0
   24.7144   18.2311   16.5311 H   0  0  0  0  0  0  0  0  0  0  0  0
   25.6691   16.7433   16.8415 H   0  0  0  0  0  0  0  0  0  0  0  0
   26.3788   18.6507   18.2855 H   0  0  0  0  0  0  0  0  0  0  0  0
   27.6939   18.0811   17.1798 H   0  0  0  0  0  0  0  0  0  0  0  0
   26.6694   21.0952   14.9744 H   0  0  0  0  0  0  0  0  0  0  0  0
   22.4947   15.6399    6.4907 H   0  0  0  0  0  0  0  0  0  0  0  0
  1  2  1  0
  2  3  1  0
  3  4  2  0
  4  5  1  0
  5  6  1  0
  6  7  2  0
  6  8  2  0
  6  9  1  0
  9 10  2  0
 10 11  1  0
 11 12  2  0
 12 13  1  0
 13 14  2  0
 14 15  1  0
 15 16  2  0
 16 17  1  0
 17 18  2  0
 18 19  1  0
 19 20  2  0
 13 21  1  0
 21 22  1  0
 22 23  1  0
 23 24  1  0
 24 25  1  0
 25 26  1  0
 26 27  2  0
 26 28  1  0
 28 29  1  0
 29 30  2  0
 22 31  1  0
 31 32  2  0
  5 33  1  0
 33 34  2  0
 34  3  1  0
 14  9  1  0
 20 15  1  0
 29 23  1  0
 31 12  1  0
  1 35  1  0
  1 36  1  0
  1 37  1  0
  2 38  1  0
  2 39  1  0
  4 40  1  0
 10 41  1  0
 11 42  1  0
 16 43  1  0
 17 44  1  0
 19 45  1  0
 20 46  1  0
 21 47  1  0
 21 48  1  0
 23 49  1  1
 24 50  1  0
 24 51  1  0
 25 52  1  0
 25 53  1  0
 28 54  1  0
 33 55  1  0
M  END
>  <meeko>  (125) 
{"is_sidechain": [true], "free_energy": -11.26, "intermolecular_energy": 0.0, "internal_energy": -11.26, "cluster_size": 8, "cluster_id": 1, "rank_in_cluster": 1}

>  <_RMSD_MCS_to_ref>  (125) 
0.9620462278105167

$$$$
ligand
     RDKit          3D

 51 54  0  0  0  0  0  0  0  0999 V2000
   18.9090   19.1540    7.5370 C   0  0  0  0  0  0  0  0  0  0  0  0
   18.7730   17.6460    7.6780 C   0  0  0  0  0  0  0  0  0  0  0  0
   20.0460   16.9370    7.3720 C   0  0  0  0  0  0  0  0  0  0  0  0
   20.5650   15.7960    7.9500 C   0  0  0  0  0  0  0  0  0  0  0  0
   21.7380   15.5860    7.2830 N   0  0  0  0  0  0  0  0  0  0  0  0
   22.9090   14.4470    7.6750 S   0  0  0  0  0  6  0  0  0  0  0  0
   22.1740   13.3500    8.2760 O   0  0  0  0  0  0  0  0  0  0  0  0
   23.6950   14.2900    6.4670 O   0  0  0  0  0  0  0  0  0  0  0  0
   23.9660   15.1450    8.9310 C   0  0  0  0  0  0  0  0  0  0  0  0
   25.1990   15.7010    8.5640 C   0  0  0  0  0  0  0  0  0  0  0  0
   26.0230   16.2470    9.5360 C   0  0  0  0  0  0  0  0  0  0  0  0
   25.6230   16.2380   10.8700 C   0  0  0  0  0  0  0  0  0  0  0  0
   24.3910   15.6830   11.2850 C   0  0  0  0  0  0  0  0  0  0  0  0
   23.9710   15.6730   12.6450 C   0  0  0  0  0  0  0  0  0  0  0  0
   24.8220   16.2230   13.7360 C   0  0  0  0  0  0  0  0  0  0  0  0
   25.2540   15.5100   14.6320 O   0  0  0  0  0  0  0  0  0  0  0  0
   25.0850   17.5720   13.6470 N   0  0  0  0  0  0  0  0  0  0  0  0
   26.0220   18.2210   14.5520 C   0  0  2  0  0  0  0  0  0  0  0  0
   25.7220   17.9070   16.0150 C   0  0  0  0  0  0  0  0  0  0  0  0
   26.7140   18.6410   16.9040 C   0  0  0  0  0  0  0  0  0  0  0  0
   26.6980   20.1270   16.6320 C   0  0  0  0  0  0  0  0  0  0  0  0
   26.8910   20.9600   17.5130 O   0  0  0  0  0  0  0  0  0  0  0  0
   26.4860   20.5120   15.3330 N   0  0  0  0  0  0  0  0  0  0  0  0
   25.9400   19.7360   14.3420 C   0  0  0  0  0  0  0  0  0  0  0  0
   25.4300   20.2430   13.3430 O   0  0  0  0  0  0  0  0  0  0  0  0
   22.7390   15.1260   13.0270 C   0  0  0  0  0  0  0  0  0  0  0  0
   21.9010   14.5860   12.0670 C   0  0  0  0  0  0  0  0  0  0  0  0
   22.2920   14.5870   10.7290 C   0  0  0  0  0  0  0  0  0  0  0  0
   23.5330   15.1260   10.2930 C   0  0  0  0  0  0  0  0  0  0  0  0
   21.9140   16.5750    6.3670 C   0  0  0  0  0  0  0  0  0  0  0  0
   20.9030   17.4170    6.4000 N   0  0  0  0  0  0  0  0  0  0  0  0
   18.9504   19.6134    8.5356 H   0  0  0  0  0  0  0  0  0  0  0  0
   19.8320   19.3891    6.9867 H   0  0  0  0  0  0  0  0  0  0  0  0
   18.0430   19.5504    6.9867 H   0  0  0  0  0  0  0  0  0  0  0  0
   18.4762   17.4118    8.7110 H   0  0  0  0  0  0  0  0  0  0  0  0
   18.0146   17.3058    6.9575 H   0  0  0  0  0  0  0  0  0  0  0  0
   20.1325   15.1935    8.7624 H   0  0  0  0  0  0  0  0  0  0  0  0
   25.5116   15.7042    7.5093 H   0  0  0  0  0  0  0  0  0  0  0  0
   26.9911   16.6866    9.2541 H   0  0  0  0  0  0  0  0  0  0  0  0
   26.2889   16.6780   11.6269 H   0  0  0  0  0  0  0  0  0  0  0  0
   24.6092   18.1326   12.9257 H   0  0  0  0  0  0  0  0  0  0  0  0
   27.0294   17.8408   14.3269 H   0  0  0  0  0  0  0  0  0  0  0  0
   24.7001   18.2335   16.2582 H   0  0  0  0  0  0  0  0  0  0  0  0
   25.8102   16.8235   16.1833 H   0  0  0  0  0  0  0  0  0  0  0  0
   26.4490   18.4664   17.9572 H   0  0  0  0  0  0  0  0  0  0  0  0
   27.7228   18.2589   16.6887 H   0  0  0  0  0  0  0  0  0  0  0  0
   26.7618   21.4711   15.0781 H   0  0  0  0  0  0  0  0  0  0  0  0
   22.4391   15.1257   14.0853 H   0  0  0  0  0  0  0  0  0  0  0  0
   20.9306   14.1579   12.3586 H   0  0  0  0  0  0  0  0  0  0  0  0
   21.6128   14.1532    9.9803 H   0  0  0  0  0  0  0  0  0  0  0  0
   22.7794   16.6596    5.6932 H   0  0  0  0  0  0  0  0  0  0  0  0
  1  2  1  0
  2  3  1  0
  3  4  2  0
  4  5  1  0
  5  6  1  0
  6  7  2  0
  6  8  2  0
  6  9  1  0
  9 10  2  0
 10 11  1  0
 11 12  2  0
 12 13  1  0
 13 14  2  0
 14 15  1  0
 15 16  2  0
 15 17  1  0
 17 18  1  0
 18 19  1  0
 19 20  1  0
 20 21  1  0
 21 22  2  0
 21 23  1  0
 23 24  1  0
 24 25  2  0
 14 26  1  0
 26 27  2  0
 27 28  1  0
 28 29  2  0
  5 30  1  0
 30 31  2  0
 31  3  1  0
 29  9  1  0
 29 13  1  0
 24 18  1  0
  1 32  1  0
  1 33  1  0
  1 34  1  0
  2 35  1  0
  2 36  1  0
  4 37  1  0
 10 38  1  0
 11 39  1  0
 12 40  1  0
 17 41  1  0
 18 42  1  6
 19 43  1  0
 19 44  1  0
 20 45  1  0
 20 46  1  0
 23 47  1  0
 26 48  1  0
 27 49  1  0
 28 50  1  0
 30 51  1  0
M  END
>  <meeko>  (126) 
{"is_sidechain": [true], "free_energy": -11.26, "intermolecular_energy": 0.0, "internal_energy": -11.26, "cluster_size": 14, "cluster_id": 1, "rank_in_cluster": 1}

>  <_RMSD_MCS_to_ref>  (126) 
0.6694615581030607

$$$$
ligand
     RDKit          3D

 60 64  0  0  0  0  0  0  0  0999 V2000
   18.8250   19.0170    7.5350 C   0  0  0  0  0  0  0  0  0  0  0  0
   18.5200   17.5420    7.7330 C   0  0  0  0  0  0  0  0  0  0  0  0
   19.7550   16.7120    7.7750 C   0  0  0  0  0  0  0  0  0  0  0  0
   20.1590   15.8030    8.7330 C   0  0  0  0  0  0  0  0  0  0  0  0
   21.3660   15.3520    8.2770 N   0  0  0  0  0  0  0  0  0  0  0  0
   22.3390   14.2290    9.0580 S   0  0  0  0  0  6  0  0  0  0  0  0
   21.5450   13.0380    9.2770 O   0  0  0  0  0  0  0  0  0  0  0  0
   23.5530   14.1790    8.2630 O   0  0  0  0  0  0  0  0  0  0  0  0
   22.7540   14.9620   10.6200 C   0  0  0  0  0  0  0  0  0  0  0  0
   21.7340   15.0940   11.5930 C   0  0  0  0  0  0  0  0  0  0  0  0
   22.0030   15.6840   12.8310 C   0  0  0  0  0  0  0  0  0  0  0  0
   23.2940   16.1200   13.0650 C   0  0  0  0  0  0  0  0  0  0  0  0
   24.3070   16.0120   12.1180 C   0  0  0  0  0  0  0  0  0  0  0  0
   24.0390   15.4560   10.8750 C   0  0  0  0  0  0  0  0  0  0  0  0
   25.1390   15.3460    9.9160 C   0  0  0  0  0  0  0  0  0  0  0  0
   25.2770   16.2740    9.1280 O   0  0  0  0  0  0  0  0  0  0  0  0
   25.9090   14.2090    9.9430 N   0  0  0  0  0  0  0  0  0  0  0  0
   27.0410   14.0610    9.0450 C   0  0  0  0  0  0  0  0  0  0  0  0
   27.5570   12.6580    9.3190 C   0  0  0  0  0  0  0  0  0  0  0  0
   27.2600   12.4770   10.8020 C   0  0  0  0  0  0  0  0  0  0  0  0
   25.9140   13.1710   10.9690 C   0  0  0  0  0  0  0  0  0  0  0  0
   25.5830   16.5560   12.6700 C   0  0  0  0  0  0  0  0  0  0  0  0
   25.2100   16.9200   14.0310 N   0  0  0  0  0  0  0  0  0  0  0  0
   26.0890   17.7440   14.8550 C   0  0  2  0  0  0  0  0  0  0  0  0
   25.7480   17.7200   16.3450 C   0  0  0  0  0  0  0  0  0  0  0  0
   26.7610   18.5610   17.1060 C   0  0  0  0  0  0  0  0  0  0  0  0
   26.8090   19.9760   16.5760 C   0  0  0  0  0  0  0  0  0  0  0  0
   27.1960   20.9190   17.2590 O   0  0  0  0  0  0  0  0  0  0  0  0
   26.4730   20.1520   15.2560 N   0  0  0  0  0  0  0  0  0  0  0  0
   26.1290   19.1900   14.3340 C   0  0  0  0  0  0  0  0  0  0  0  0
   25.9660   19.4880   13.1510 O   0  0  0  0  0  0  0  0  0  0  0  0
   23.8520   16.7590   14.2600 C   0  0  0  0  0  0  0  0  0  0  0  0
   23.1980   17.0880   15.2290 O   0  0  0  0  0  0  0  0  0  0  0  0
   21.6510   15.9550    7.0960 C   0  0  0  0  0  0  0  0  0  0  0  0
   20.6920   16.7980    6.7660 N   0  0  0  0  0  0  0  0  0  0  0  0
   18.9260   19.5054    8.5155 H   0  0  0  0  0  0  0  0  0  0  0  0
   19.7645   19.1250    6.9731 H   0  0  0  0  0  0  0  0  0  0  0  0
   18.0054   19.4887    6.9731 H   0  0  0  0  0  0  0  0  0  0  0  0
   17.9770   17.4170    8.6814 H   0  0  0  0  0  0  0  0  0  0  0  0
   17.9160   17.2048    6.8777 H   0  0  0  0  0  0  0  0  0  0  0  0
   19.6307   15.5094    9.6521 H   0  0  0  0  0  0  0  0  0  0  0  0
   20.7201   14.7287   11.3724 H   0  0  0  0  0  0  0  0  0  0  0  0
   21.2163   15.7974   13.5915 H   0  0  0  0  0  0  0  0  0  0  0  0
   26.7226   14.1613    7.9969 H   0  0  0  0  0  0  0  0  0  0  0  0
   27.8098   14.8307    9.2077 H   0  0  0  0  0  0  0  0  0  0  0  0
   27.0210   11.9126    8.7131 H   0  0  0  0  0  0  0  0  0  0  0  0
   28.6196   12.5262    9.0669 H   0  0  0  0  0  0  0  0  0  0  0  0
   27.1904   11.4109   11.0641 H   0  0  0  0  0  0  0  0  0  0  0  0
   28.0440   12.8887   11.4546 H   0  0  0  0  0  0  0  0  0  0  0  0
   25.0883   12.4620   10.8090 H   0  0  0  0  0  0  0  0  0  0  0  0
   25.7774   13.5815   11.9804 H   0  0  0  0  0  0  0  0  0  0  0  0
   26.3750   15.7926   12.6659 H   0  0  0  0  0  0  0  0  0  0  0  0
   25.9890   17.3963   12.0877 H   0  0  0  0  0  0  0  0  0  0  0  0
   27.0885   17.2935   14.7658 H   0  0  0  0  0  0  0  0  0  0  0  0
   24.7396   18.1319   16.4978 H   0  0  0  0  0  0  0  0  0  0  0  0
   25.7783   16.6839   16.7133 H   0  0  0  0  0  0  0  0  0  0  0  0
   26.4796   18.5859   18.1691 H   0  0  0  0  0  0  0  0  0  0  0  0
   27.7551   18.1081   16.9771 H   0  0  0  0  0  0  0  0  0  0  0  0
   26.4793   21.1236   14.9141 H   0  0  0  0  0  0  0  0  0  0  0  0
   22.5548   15.7673    6.4977 H   0  0  0  0  0  0  0  0  0  0  0  0
  1  2  1  0
  2  3  1  0
  3  4  2  0
  4  5  1  0
  5  6  1  0
  6  7  2  0
  6  8  2  0
  6  9  1  0
  9 10  2  0
 10 11  1  0
 11 12  2  0
 12 13  1  0
 13 14  2  0
 14 15  1  0
 15 16  2  0
 15 17  1  0
 17 18  1  0
 18 19  1  0
 19 20  1  0
 20 21  1  0
 13 22  1  0
 22 23  1  0
 23 24  1  0
 24 25  1  0
 25 26  1  0
 26 27  1  0
 27 28  2  0
 27 29  1  0
 29 30  1  0
 30 31  2  0
 23 32  1  0
 32 33  2  0
  5 34  1  0
 34 35  2  0
 35  3  1  0
 14  9  1  0
 21 17  1  0
 30 24  1  0
 32 12  1  0
  1 36  1  0
  1 37  1  0
  1 38  1  0
  2 39  1  0
  2 40  1  0
  4 41  1  0
 10 42  1  0
 11 43  1  0
 18 44  1  0
 18 45  1  0
 19 46  1  0
 19 47  1  0
 20 48  1  0
 20 49  1  0
 21 50  1  0
 21 51  1  0
 22 52  1  0
 22 53  1  0
 24 54  1  1
 25 55  1  0
 25 56  1  0
 26 57  1  0
 26 58  1  0
 29 59  1  0
 34 60  1  0
M  END
>  <meeko>  (127) 
{"is_sidechain": [true], "free_energy": -11.25, "intermolecular_energy": 0.0, "internal_energy": -11.25, "cluster_size": 12, "cluster_id": 1, "rank_in_cluster": 1}

>  <_RMSD_MCS_to_ref>  (127) 
0.9064504644184613

$$$$
ligand
     RDKit          3D

 51 54  0  0  0  0  0  0  0  0999 V2000
   18.7970   18.8170    7.7190 C   0  0  0  0  0  0  0  0  0  0  0  0
   18.5280   17.3290    7.8810 C   0  0  0  0  0  0  0  0  0  0  0  0
   19.7330   16.5060    7.5850 C   0  0  0  0  0  0  0  0  0  0  0  0
   20.3120   15.5090    8.3430 C   0  0  0  0  0  0  0  0  0  0  0  0
   21.3710   15.0870    7.5910 N   0  0  0  0  0  0  0  0  0  0  0  0
   22.5940   14.0550    8.1070 S   0  0  0  0  0  6  0  0  0  0  0  0
   21.9510   12.7930    8.4130 O   0  0  0  0  0  0  0  0  0  0  0  0
   23.6470   14.1680    7.1160 O   0  0  0  0  0  0  0  0  0  0  0  0
   23.1420   14.7960    9.6240 C   0  0  0  0  0  0  0  0  0  0  0  0
   22.2290   14.8440   10.6830 C   0  0  0  0  0  0  0  0  0  0  0  0
   22.5940   15.4430   11.8880 C   0  0  0  0  0  0  0  0  0  0  0  0
   23.8740   15.9920   12.0620 C   0  0  0  0  0  0  0  0  0  0  0  0
   24.1530   16.6090   13.4000 C   0  0  0  0  0  0  0  0  0  0  0  0
   23.6500   16.1330   14.4150 O   0  0  0  0  0  0  0  0  0  0  0  0
   24.9740   17.7060   13.4430 N   0  0  0  0  0  0  0  0  0  0  0  0
   25.1850   18.4770   14.6570 C   0  0  1  0  0  0  0  0  0  0  0  0
   26.1200   17.7680   15.6310 C   0  0  0  0  0  0  0  0  0  0  0  0
   26.3240   18.6370   16.8620 C   0  0  0  0  0  0  0  0  0  0  0  0
   26.8350   20.0090   16.4870 C   0  0  0  0  0  0  0  0  0  0  0  0
   27.6050   20.6430   17.2020 O   0  0  0  0  0  0  0  0  0  0  0  0
   26.3710   20.5360   15.3090 N   0  0  0  0  0  0  0  0  0  0  0  0
   25.7880   19.8350   14.2820 C   0  0  0  0  0  0  0  0  0  0  0  0
   25.7500   20.2940   13.1400 O   0  0  0  0  0  0  0  0  0  0  0  0
   24.7910   15.9420   10.9920 C   0  0  0  0  0  0  0  0  0  0  0  0
   24.4310   15.3310    9.7730 C   0  0  0  0  0  0  0  0  0  0  0  0
   25.3880   15.2450    8.7520 N   0  0  0  0  0  0  0  0  0  0  0  0
   26.6080   15.8580    8.8240 C   0  0  0  0  0  0  0  0  0  0  0  0
   27.4460   15.7330    7.9370 O   0  0  0  0  0  0  0  0  0  0  0  0
   26.7900   16.7620   10.0290 C   0  0  0  0  0  0  0  0  0  0  0  0
   26.0530   16.4430   11.2010 O   0  0  0  0  0  0  0  0  0  0  0  0
   21.4380   15.8330    6.4590 C   0  0  0  0  0  0  0  0  0  0  0  0
   20.4510   16.7030    6.4220 N   0  0  0  0  0  0  0  0  0  0  0  0
   18.8815   19.2845    8.7111 H   0  0  0  0  0  0  0  0  0  0  0  0
   19.7359   18.9616    7.1643 H   0  0  0  0  0  0  0  0  0  0  0  0
   17.9682   19.2812    7.1643 H   0  0  0  0  0  0  0  0  0  0  0  0
   18.2128   17.1364    8.9171 H   0  0  0  0  0  0  0  0  0  0  0  0
   17.7415   17.0473    7.1654 H   0  0  0  0  0  0  0  0  0  0  0  0
   19.9932   15.1385    9.3285 H   0  0  0  0  0  0  0  0  0  0  0  0
   21.2251   14.4100   10.5652 H   0  0  0  0  0  0  0  0  0  0  0  0
   21.8687   15.4859   12.7139 H   0  0  0  0  0  0  0  0  0  0  0  0
   25.4600   17.9950   12.5820 H   0  0  0  0  0  0  0  0  0  0  0  0
   24.2121   18.6003   15.1553 H   0  0  0  0  0  0  0  0  0  0  0  0
   25.6771   16.8066   15.9303 H   0  0  0  0  0  0  0  0  0  0  0  0
   27.0899   17.5893   15.1437 H   0  0  0  0  0  0  0  0  0  0  0  0
   25.3640   18.7437   17.3884 H   0  0  0  0  0  0  0  0  0  0  0  0
   27.0708   18.1531   17.5087 H   0  0  0  0  0  0  0  0  0  0  0  0
   26.4690   21.5535   15.1826 H   0  0  0  0  0  0  0  0  0  0  0  0
   25.1620   14.6957    7.9105 H   0  0  0  0  0  0  0  0  0  0  0  0
   27.8571   16.7464   10.2954 H   0  0  0  0  0  0  0  0  0  0  0  0
   26.4015   17.7401    9.7090 H   0  0  0  0  0  0  0  0  0  0  0  0
   22.2089   15.7256    5.6817 H   0  0  0  0  0  0  0  0  0  0  0  0
  1  2  1  0
  2  3  1  0
  3  4  2  0
  4  5  1  0
  5  6  1  0
  6  7  2  0
  6  8  2  0
  6  9  1  0
  9 10  2  0
 10 11  1  0
 11 12  2  0
 12 13  1  0
 13 14  2  0
 13 15  1  0
 15 16  1  0
 16 17  1  0
 17 18  1  0
 18 19  1  0
 19 20  2  0
 19 21  1  0
 21 22  1  0
 22 23  2  0
 12 24  1  0
 24 25  2  0
 25 26  1  0
 26 27  1  0
 27 28  2  0
 27 29  1  0
 29 30  1  0
  5 31  1  0
 31 32  2  0
 32  3  1  0
 25  9  1  0
 22 16  1  0
 30 24  1  0
  1 33  1  0
  1 34  1  0
  1 35  1  0
  2 36  1  0
  2 37  1  0
  4 38  1  0
 10 39  1  0
 11 40  1  0
 15 41  1  0
 16 42  1  1
 17 43  1  0
 17 44  1  0
 18 45  1  0
 18 46  1  0
 21 47  1  0
 26 48  1  0
 29 49  1  0
 29 50  1  0
 31 51  1  0
M  END
>  <meeko>  (128) 
{"is_sidechain": [true], "free_energy": -11.25, "intermolecular_energy": 0.0, "internal_energy": -11.25, "cluster_size": 16, "cluster_id": 1, "rank_in_cluster": 1}

>  <_RMSD_MCS_to_ref>  (128) 
0.47305191164512916

$$$$
ligand
     RDKit          3D

 47 50  0  0  0  0  0  0  0  0999 V2000
   18.9090   19.1540    7.5370 C   0  0  0  0  0  0  0  0  0  0  0  0
   18.7730   17.6460    7.6780 C   0  0  0  0  0  0  0  0  0  0  0  0
   20.0610   16.9410    7.4350 C   0  0  0  0  0  0  0  0  0  0  0  0
   20.7110   16.0190    8.2320 C   0  0  0  0  0  0  0  0  0  0  0  0
   21.8320   15.6950    7.5240 N   0  0  0  0  0  0  0  0  0  0  0  0
   23.1340   14.8010    8.0970 S   0  0  0  0  0  6  0  0  0  0  0  0
   24.2740   15.2230    7.3080 O   0  0  0  0  0  0  0  0  0  0  0  0
   22.6900   13.4240    8.1410 O   0  0  0  0  0  0  0  0  0  0  0  0
   23.3440   15.3770    9.7390 C   0  0  0  0  0  0  0  0  0  0  0  0
   24.3580   16.2840   10.0200 C   0  0  0  0  0  0  0  0  0  0  0  0
   24.5970   16.8100   11.2480 N   0  0  0  0  0  0  0  0  0  0  0  0
   23.8090   16.4270   12.2950 C   0  0  0  0  0  0  0  0  0  0  0  0
   24.0650   17.0060   13.6370 C   0  0  0  0  0  0  0  0  0  0  0  0
   23.4890   16.5680   14.6270 O   0  0  0  0  0  0  0  0  0  0  0  0
   24.9610   18.0460   13.6590 N   0  0  0  0  0  0  0  0  0  0  0  0
   25.2210   18.8360   14.8490 C   0  0  1  0  0  0  0  0  0  0  0  0
   26.1020   18.0920   15.8480 C   0  0  0  0  0  0  0  0  0  0  0  0
   26.3560   18.9750   17.0590 C   0  0  0  0  0  0  0  0  0  0  0  0
   26.9580   20.3020   16.6550 C   0  0  0  0  0  0  0  0  0  0  0  0
   27.7590   20.9020   17.3630 O   0  0  0  0  0  0  0  0  0  0  0  0
   26.5380   20.8270   15.4600 N   0  0  0  0  0  0  0  0  0  0  0  0
   25.9120   20.1430   14.4480 C   0  0  0  0  0  0  0  0  0  0  0  0
   25.9020   20.5830   13.2980 O   0  0  0  0  0  0  0  0  0  0  0  0
   22.7950   15.5090   12.0680 C   0  0  0  0  0  0  0  0  0  0  0  0
   21.8740   14.9520   12.9130 N   0  0  0  0  0  0  0  0  0  0  0  0
   21.0470   14.0830   12.3050 N   0  0  0  0  0  0  0  0  0  0  0  0
   21.4660   14.0770   11.0370 C   0  0  0  0  0  0  0  0  0  0  0  0
   22.5450   14.9630   10.8130 C   0  0  0  0  0  0  0  0  0  0  0  0
   21.8610   16.4230    6.3780 C   0  0  0  0  0  0  0  0  0  0  0  0
   20.7940   17.1870    6.2900 N   0  0  0  0  0  0  0  0  0  0  0  0
   18.9504   19.6134    8.5356 H   0  0  0  0  0  0  0  0  0  0  0  0
   19.8320   19.3891    6.9867 H   0  0  0  0  0  0  0  0  0  0  0  0
   18.0430   19.5504    6.9867 H   0  0  0  0  0  0  0  0  0  0  0  0
   18.4293   17.4149    8.6970 H   0  0  0  0  0  0  0  0  0  0  0  0
   18.0506   17.2998    6.9241 H   0  0  0  0  0  0  0  0  0  0  0  0
   20.3969   15.6338    9.2133 H   0  0  0  0  0  0  0  0  0  0  0  0
   25.0109   16.5968    9.1918 H   0  0  0  0  0  0  0  0  0  0  0  0
   25.4707   18.2757   12.7939 H   0  0  0  0  0  0  0  0  0  0  0  0
   24.2549   19.0391   15.3342 H   0  0  0  0  0  0  0  0  0  0  0  0
   25.5951   17.1694   16.1673 H   0  0  0  0  0  0  0  0  0  0  0  0
   27.0610   17.8390   15.3723 H   0  0  0  0  0  0  0  0  0  0  0  0
   25.4024   19.1568   17.5762 H   0  0  0  0  0  0  0  0  0  0  0  0
   27.0662   18.4591   17.7219 H   0  0  0  0  0  0  0  0  0  0  0  0
   26.7087   21.8312   15.3071 H   0  0  0  0  0  0  0  0  0  0  0  0
   21.8194   15.1764   13.9168 H   0  0  0  0  0  0  0  0  0  0  0  0
   21.0196   13.4500   10.2511 H   0  0  0  0  0  0  0  0  0  0  0  0
   22.6646   16.3798    5.6281 H   0  0  0  0  0  0  0  0  0  0  0  0
  1  2  1  0
  2  3  1  0
  3  4  2  0
  4  5  1  0
  5  6  1  0
  6  7  2  0
  6  8  2  0
  6  9  1  0
  9 10  2  0
 10 11  1  0
 11 12  2  0
 12 13  1  0
 13 14  2  0
 13 15  1  0
 15 16  1  0
 16 17  1  0
 17 18  1  0
 18 19  1  0
 19 20  2  0
 19 21  1  0
 21 22  1  0
 22 23  2  0
 12 24  1  0
 24 25  1  0
 25 26  1  0
 26 27  2  0
 27 28  1  0
  5 29  1  0
 29 30  2  0
 30  3  1  0
 28  9  1  0
 22 16  1  0
 28 24  2  0
  1 31  1  0
  1 32  1  0
  1 33  1  0
  2 34  1  0
  2 35  1  0
  4 36  1  0
 10 37  1  0
 15 38  1  0
 16 39  1  1
 17 40  1  0
 17 41  1  0
 18 42  1  0
 18 43  1  0
 21 44  1  0
 25 45  1  0
 27 46  1  0
 29 47  1  0
M  END
>  <meeko>  (129) 
{"is_sidechain": [true], "free_energy": -11.25, "intermolecular_energy": 0.0, "internal_energy": -11.25, "cluster_size": 15, "cluster_id": 1, "rank_in_cluster": 1}

>  <_RMSD_MCS_to_ref>  (129) 
0.7249831415664475

$$$$
ligand
     RDKit          3D

 54 58  0  0  0  0  0  0  0  0999 V2000
   18.9090   19.1540    7.5370 C   0  0  0  0  0  0  0  0  0  0  0  0
   18.7730   17.6460    7.6780 C   0  0  0  0  0  0  0  0  0  0  0  0
   20.0900   16.9540    7.6580 C   0  0  0  0  0  0  0  0  0  0  0  0
   21.0160   16.8240    8.6740 C   0  0  0  0  0  0  0  0  0  0  0  0
   22.0350   16.1110    8.1130 N   0  0  0  0  0  0  0  0  0  0  0  0
   23.3650   15.4810    8.9180 S   0  0  0  0  0  6  0  0  0  0  0  0
   24.3990   16.4970    8.8740 O   0  0  0  0  0  0  0  0  0  0  0  0
   23.5670   14.1520    8.3620 O   0  0  0  0  0  0  0  0  0  0  0  0
   22.8210   15.2830   10.5890 C   0  0  0  0  0  0  0  0  0  0  0  0
   23.6740   15.7560   11.5330 N   0  0  0  0  0  0  0  0  0  0  0  0
   23.3260   15.6300   12.8420 C   0  0  0  0  0  0  0  0  0  0  0  0
   24.3160   16.1660   13.8330 C   0  0  0  0  0  0  0  0  0  0  0  0
   24.7960   15.4620   14.7140 O   0  0  0  0  0  0  0  0  0  0  0  0
   24.6380   17.4930   13.6580 N   0  0  0  0  0  0  0  0  0  0  0  0
   25.6950   18.1510   14.4010 C   0  0  2  0  0  0  0  0  0  0  0  0
   25.6110   17.8640   15.8970 C   0  0  0  0  0  0  0  0  0  0  0  0
   26.7160   18.6130   16.6220 C   0  0  0  0  0  0  0  0  0  0  0  0
   26.6590   20.0940   16.3290 C   0  0  0  0  0  0  0  0  0  0  0  0
   26.9590   20.9450   17.1620 O   0  0  0  0  0  0  0  0  0  0  0  0
   26.2790   20.4540   15.0600 N   0  0  0  0  0  0  0  0  0  0  0  0
   25.5890   19.6650   14.1760 C   0  0  0  0  0  0  0  0  0  0  0  0
   24.9370   20.1640   13.2580 O   0  0  0  0  0  0  0  0  0  0  0  0
   22.1440   15.0580   13.2980 C   0  0  0  0  0  0  0  0  0  0  0  0
   21.2530   14.5910   12.3180 C   0  0  0  0  0  0  0  0  0  0  0  0
   21.6110   14.7180   10.9770 C   0  0  0  0  0  0  0  0  0  0  0  0
   20.5750   14.2060   10.2270 N   0  0  0  0  0  0  0  0  0  0  0  0
   19.5690   13.7430   11.0400 C   0  0  0  0  0  0  0  0  0  0  0  0
   18.3460   13.1490   10.7090 C   0  0  0  0  0  0  0  0  0  0  0  0
   17.5040   12.7730   11.7590 C   0  0  0  0  0  0  0  0  0  0  0  0
   17.8710   12.9850   13.0860 C   0  0  0  0  0  0  0  0  0  0  0  0
   19.0970   13.5830   13.4000 C   0  0  0  0  0  0  0  0  0  0  0  0
   19.9650   13.9700   12.3580 C   0  0  0  0  0  0  0  0  0  0  0  0
   21.7060   15.7990    6.8320 C   0  0  0  0  0  0  0  0  0  0  0  0
   20.5350   16.3120    6.5180 N   0  0  0  0  0  0  0  0  0  0  0  0
   18.9504   19.6134    8.5356 H   0  0  0  0  0  0  0  0  0  0  0  0
   19.8320   19.3891    6.9867 H   0  0  0  0  0  0  0  0  0  0  0  0
   18.0430   19.5504    6.9867 H   0  0  0  0  0  0  0  0  0  0  0  0
   18.2716   17.4240    8.6316 H   0  0  0  0  0  0  0  0  0  0  0  0
   18.1885   17.2801    6.8210 H   0  0  0  0  0  0  0  0  0  0  0  0
   20.9476   17.2082    9.7025 H   0  0  0  0  0  0  0  0  0  0  0  0
   24.1047   18.0425   12.9691 H   0  0  0  0  0  0  0  0  0  0  0  0
   26.6578   17.7619   14.0382 H   0  0  0  0  0  0  0  0  0  0  0  0
   24.6335   18.1939   16.2788 H   0  0  0  0  0  0  0  0  0  0  0  0
   25.7279   16.7838   16.0690 H   0  0  0  0  0  0  0  0  0  0  0  0
   26.6034   18.4574   17.7051 H   0  0  0  0  0  0  0  0  0  0  0  0
   27.6847   18.2269   16.2720 H   0  0  0  0  0  0  0  0  0  0  0  0
   26.5348   21.4004   14.7440 H   0  0  0  0  0  0  0  0  0  0  0  0
   21.9181   14.9754   14.3714 H   0  0  0  0  0  0  0  0  0  0  0  0
   20.5571   14.1746    9.1976 H   0  0  0  0  0  0  0  0  0  0  0  0
   18.0578   12.9840    9.6603 H   0  0  0  0  0  0  0  0  0  0  0  0
   16.5357   12.3020   11.5340 H   0  0  0  0  0  0  0  0  0  0  0  0
   17.1909   12.6796   13.8948 H   0  0  0  0  0  0  0  0  0  0  0  0
   19.3808   13.7495   14.4496 H   0  0  0  0  0  0  0  0  0  0  0  0
   22.3310   15.2012    6.1523 H   0  0  0  0  0  0  0  0  0  0  0  0
  1  2  1  0
  2  3  1  0
  3  4  2  0
  4  5  1  0
  5  6  1  0
  6  7  2  0
  6  8  2  0
  6  9  1  0
  9 10  2  0
 10 11  1  0
 11 12  1  0
 12 13  2  0
 12 14  1  0
 14 15  1  0
 15 16  1  0
 16 17  1  0
 17 18  1  0
 18 19  2  0
 18 20  1  0
 20 21  1  0
 21 22  2  0
 11 23  2  0
 23 24  1  0
 24 25  2  0
 25 26  1  0
 26 27  1  0
 27 28  2  0
 28 29  1  0
 29 30  2  0
 30 31  1  0
 31 32  2  0
  5 33  1  0
 33 34  2  0
 34  3  1  0
 25  9  1  0
 32 27  1  0
 21 15  1  0
 32 24  1  0
  1 35  1  0
  1 36  1  0
  1 37  1  0
  2 38  1  0
  2 39  1  0
  4 40  1  0
 14 41  1  0
 15 42  1  6
 16 43  1  0
 16 44  1  0
 17 45  1  0
 17 46  1  0
 20 47  1  0
 23 48  1  0
 26 49  1  0
 28 50  1  0
 29 51  1  0
 30 52  1  0
 31 53  1  0
 33 54  1  0
M  END
>  <meeko>  (130) 
{"is_sidechain": [true], "free_energy": -11.25, "intermolecular_energy": 0.0, "internal_energy": -11.25, "cluster_size": 20, "cluster_id": 1, "rank_in_cluster": 1}

>  <_RMSD_MCS_to_ref>  (130) 
0.5090036836801873

$$$$
ligand
     RDKit          3D

 48 51  0  0  0  0  0  0  0  0999 V2000
   18.9090   19.1540    7.5370 C   0  0  0  0  0  0  0  0  0  0  0  0
   18.7730   17.6460    7.6780 C   0  0  0  0  0  0  0  0  0  0  0  0
   20.0940   16.9610    7.6790 C   0  0  0  0  0  0  0  0  0  0  0  0
   20.9460   16.7210    8.7380 C   0  0  0  0  0  0  0  0  0  0  0  0
   22.0020   16.0620    8.1770 N   0  0  0  0  0  0  0  0  0  0  0  0
   23.4530   15.7060    8.9350 S   0  0  0  0  0  6  0  0  0  0  0  0
   23.7910   14.3470    8.5590 O   0  0  0  0  0  0  0  0  0  0  0  0
   24.3350   16.8290    8.6810 O   0  0  0  0  0  0  0  0  0  0  0  0
   23.1820   15.6810   10.6670 C   0  0  0  0  0  0  0  0  0  0  0  0
   23.9100   16.3430   11.5550 N   0  0  0  0  0  0  0  0  0  0  0  0
   23.3610   16.0520   12.7950 C   0  0  0  0  0  0  0  0  0  0  0  0
   23.8920   16.6140   14.0370 C   0  0  0  0  0  0  0  0  0  0  0  0
   23.8720   16.0340   15.1170 O   0  0  0  0  0  0  0  0  0  0  0  0
   24.4070   17.8770   13.8670 N   0  0  0  0  0  0  0  0  0  0  0  0
   24.8440   18.6980   14.9790 C   0  0  1  0  0  0  0  0  0  0  0  0
   25.8900   17.9880   15.8330 C   0  0  0  0  0  0  0  0  0  0  0  0
   26.3280   18.9040   16.9650 C   0  0  0  0  0  0  0  0  0  0  0  0
   26.8380   20.2240   16.4370 C   0  0  0  0  0  0  0  0  0  0  0  0
   27.7230   20.8600   17.0010 O   0  0  0  0  0  0  0  0  0  0  0  0
   26.2340   20.7080   15.3040 N   0  0  0  0  0  0  0  0  0  0  0  0
   25.4370   20.0030   14.4370 C   0  0  0  0  0  0  0  0  0  0  0  0
   25.2040   20.4270   13.3050 O   0  0  0  0  0  0  0  0  0  0  0  0
   22.2870   15.1970   12.6400 C   0  0  0  0  0  0  0  0  0  0  0  0
   21.3500   14.5620   13.5050 C   0  0  0  0  0  0  0  0  0  0  0  0
   20.3970   13.7690   12.9790 C   0  0  0  0  0  0  0  0  0  0  0  0
   20.2970   13.5440   11.5480 C   0  0  0  0  0  0  0  0  0  0  0  0
   21.1810   14.1410   10.7300 C   0  0  0  0  0  0  0  0  0  0  0  0
   22.1730   14.9640   11.2720 N   0  0  0  0  0  0  0  0  0  0  0  0
   21.8060   15.9700    6.8360 C   0  0  0  0  0  0  0  0  0  0  0  0
   20.6400   16.4830    6.5030 N   0  0  0  0  0  0  0  0  0  0  0  0
   18.9504   19.6134    8.5356 H   0  0  0  0  0  0  0  0  0  0  0  0
   19.8320   19.3891    6.9867 H   0  0  0  0  0  0  0  0  0  0  0  0
   18.0430   19.5504    6.9867 H   0  0  0  0  0  0  0  0  0  0  0  0
   18.2577   17.4235    8.6240 H   0  0  0  0  0  0  0  0  0  0  0  0
   18.2009   17.2759    6.8144 H   0  0  0  0  0  0  0  0  0  0  0  0
   20.8061   16.9976    9.7934 H   0  0  0  0  0  0  0  0  0  0  0  0
   24.4855   18.2549   12.9121 H   0  0  0  0  0  0  0  0  0  0  0  0
   23.9699   18.9022   15.6149 H   0  0  0  0  0  0  0  0  0  0  0  0
   25.4574   17.0678   16.2526 H   0  0  0  0  0  0  0  0  0  0  0  0
   26.7602   17.7336   15.2101 H   0  0  0  0  0  0  0  0  0  0  0  0
   25.4698   19.0906   17.6274 H   0  0  0  0  0  0  0  0  0  0  0  0
   27.1438   18.4113   17.5143 H   0  0  0  0  0  0  0  0  0  0  0  0
   26.3950   21.7007   15.0816 H   0  0  0  0  0  0  0  0  0  0  0  0
   21.4044   14.7180   14.5925 H   0  0  0  0  0  0  0  0  0  0  0  0
   19.6762   13.2794   13.6504 H   0  0  0  0  0  0  0  0  0  0  0  0
   19.5091   12.8943   11.1391 H   0  0  0  0  0  0  0  0  0  0  0  0
   21.1244   13.9833    9.6428 H   0  0  0  0  0  0  0  0  0  0  0  0
   22.5217   15.5284    6.1270 H   0  0  0  0  0  0  0  0  0  0  0  0
  1  2  1  0
  2  3  1  0
  3  4  2  0
  4  5  1  0
  5  6  1  0
  6  7  2  0
  6  8  2  0
  6  9  1  0
  9 10  2  0
 10 11  1  0
 11 12  1  0
 12 13  2  0
 12 14  1  0
 14 15  1  0
 15 16  1  0
 16 17  1  0
 17 18  1  0
 18 19  2  0
 18 20  1  0
 20 21  1  0
 21 22  2  0
 11 23  2  0
 23 24  1  0
 24 25  2  0
 25 26  1  0
 26 27  2  0
 27 28  1  0
  5 29  1  0
 29 30  2  0
 30  3  1  0
 28  9  1  0
 21 15  1  0
 28 23  1  0
  1 31  1  0
  1 32  1  0
  1 33  1  0
  2 34  1  0
  2 35  1  0
  4 36  1  0
 14 37  1  0
 15 38  1  1
 16 39  1  0
 16 40  1  0
 17 41  1  0
 17 42  1  0
 20 43  1  0
 24 44  1  0
 25 45  1  0
 26 46  1  0
 27 47  1  0
 29 48  1  0
M  END
>  <meeko>  (131) 
{"is_sidechain": [true], "free_energy": -11.24, "intermolecular_energy": 0.0, "internal_energy": -11.24, "cluster_size": 20, "cluster_id": 1, "rank_in_cluster": 1}

>  <_RMSD_MCS_to_ref>  (131) 
0.43462768230086585

$$$$
ligand
     RDKit          3D

 54 57  0  0  0  0  0  0  0  0999 V2000
   18.9090   19.1540    7.5370 C   0  0  0  0  0  0  0  0  0  0  0  0
   18.7730   17.6460    7.6780 C   0  0  0  0  0  0  0  0  0  0  0  0
   20.0810   16.9490    7.5520 C   0  0  0  0  0  0  0  0  0  0  0  0
   20.9230   16.4960    8.5490 C   0  0  0  0  0  0  0  0  0  0  0  0
   21.9650   15.9250    7.8750 N   0  0  0  0  0  0  0  0  0  0  0  0
   23.3900   15.3650    8.5680 S   0  0  0  0  0  6  0  0  0  0  0  0
   23.4620   13.9630    8.2020 O   0  0  0  0  0  0  0  0  0  0  0  0
   24.4270   16.3000    8.1880 O   0  0  0  0  0  0  0  0  0  0  0  0
   23.0850   15.4680   10.3230 C   0  0  0  0  0  0  0  0  0  0  0  0
   23.8780   16.3780   11.0300 C   0  0  0  0  0  0  0  0  0  0  0  0
   23.6590   16.5120   12.3850 C   0  0  0  0  0  0  0  0  0  0  0  0
   24.4980   17.4520   13.1950 C   0  0  0  0  0  0  0  0  0  0  0  0
   25.6360   17.7510   12.8560 O   0  0  0  0  0  0  0  0  0  0  0  0
   23.8920   17.9180   14.3380 N   0  0  0  0  0  0  0  0  0  0  0  0
   24.5970   18.7050   15.3330 C   0  0  1  0  0  0  0  0  0  0  0  0
   25.7060   17.9060   16.0100 C   0  0  0  0  0  0  0  0  0  0  0  0
   26.4200   18.7870   17.0240 C   0  0  0  0  0  0  0  0  0  0  0  0
   26.9500   20.0460   16.3800 C   0  0  0  0  0  0  0  0  0  0  0  0
   27.9850   20.5910   16.7510 O   0  0  0  0  0  0  0  0  0  0  0  0
   26.1950   20.5830   15.3680 N   0  0  0  0  0  0  0  0  0  0  0  0
   25.2090   19.9390   14.6600 C   0  0  0  0  0  0  0  0  0  0  0  0
   24.8430   20.3610   13.5640 O   0  0  0  0  0  0  0  0  0  0  0  0
   22.7110   15.8190   13.0620 N   0  0  0  0  0  0  0  0  0  0  0  0
   21.9360   14.9540   12.3630 C   0  0  0  0  0  0  0  0  0  0  0  0
   22.0890   14.7210   10.9860 C   0  0  0  0  0  0  0  0  0  0  0  0
   21.1610   13.7620   10.2790 C   0  0  0  0  0  0  0  0  0  0  0  0
   20.3810   12.8270   11.2060 C   0  0  0  0  0  0  0  0  0  0  0  0
   19.7930   13.6040   12.3700 C   0  0  0  0  0  0  0  0  0  0  0  0
   20.9180   14.2130   13.1940 C   0  0  0  0  0  0  0  0  0  0  0  0
   21.7550   16.0530    6.5410 C   0  0  0  0  0  0  0  0  0  0  0  0
   20.6190   16.6770    6.3100 N   0  0  0  0  0  0  0  0  0  0  0  0
   18.9504   19.6134    8.5356 H   0  0  0  0  0  0  0  0  0  0  0  0
   19.8320   19.3891    6.9867 H   0  0  0  0  0  0  0  0  0  0  0  0
   18.0430   19.5504    6.9867 H   0  0  0  0  0  0  0  0  0  0  0  0
   18.3449   17.4199    8.6657 H   0  0  0  0  0  0  0  0  0  0  0  0
   18.1209   17.2888    6.8674 H   0  0  0  0  0  0  0  0  0  0  0  0
   20.7857   16.5767    9.6374 H   0  0  0  0  0  0  0  0  0  0  0  0
   24.6532   16.9691   10.5204 H   0  0  0  0  0  0  0  0  0  0  0  0
   22.8976   17.6997   14.4943 H   0  0  0  0  0  0  0  0  0  0  0  0
   23.8710   19.0010   16.1046 H   0  0  0  0  0  0  0  0  0  0  0  0
   25.2702   17.0359   16.5229 H   0  0  0  0  0  0  0  0  0  0  0  0
   26.4254   17.5627   15.2520 H   0  0  0  0  0  0  0  0  0  0  0  0
   25.7129   19.0622   17.8204 H   0  0  0  0  0  0  0  0  0  0  0  0
   27.2700   18.2234   17.4360 H   0  0  0  0  0  0  0  0  0  0  0  0
   26.3856   21.5630   15.1147 H   0  0  0  0  0  0  0  0  0  0  0  0
   20.4364   14.3516    9.6983 H   0  0  0  0  0  0  0  0  0  0  0  0
   21.7968   13.1192    9.6524 H   0  0  0  0  0  0  0  0  0  0  0  0
   19.5667   12.3517   10.6395 H   0  0  0  0  0  0  0  0  0  0  0  0
   21.0662   12.0612   11.5985 H   0  0  0  0  0  0  0  0  0  0  0  0
   19.1449   14.4054   11.9857 H   0  0  0  0  0  0  0  0  0  0  0  0
   19.2017   12.9253   13.0022 H   0  0  0  0  0  0  0  0  0  0  0  0
   20.4793   14.9165   13.9169 H   0  0  0  0  0  0  0  0  0  0  0  0
   21.4443   13.3832   13.6883 H   0  0  0  0  0  0  0  0  0  0  0  0
   22.4386   15.6865    5.7610 H   0  0  0  0  0  0  0  0  0  0  0  0
  1  2  1  0
  2  3  1  0
  3  4  2  0
  4  5  1  0
  5  6  1  0
  6  7  2  0
  6  8  2  0
  6  9  1  0
  9 10  2  0
 10 11  1  0
 11 12  1  0
 12 13  2  0
 12 14  1  0
 14 15  1  0
 15 16  1  0
 16 17  1  0
 17 18  1  0
 18 19  2  0
 18 20  1  0
 20 21  1  0
 21 22  2  0
 11 23  2  0
 23 24  1  0
 24 25  2  0
 25 26  1  0
 26 27  1  0
 27 28  1  0
 28 29  1  0
  5 30  1  0
 30 31  2  0
 31  3  1  0
 25  9  1  0
 21 15  1  0
 29 24  1  0
  1 32  1  0
  1 33  1  0
  1 34  1  0
  2 35  1  0
  2 36  1  0
  4 37  1  0
 10 38  1  0
 14 39  1  0
 15 40  1  1
 16 41  1  0
 16 42  1  0
 17 43  1  0
 17 44  1  0
 20 45  1  0
 26 46  1  0
 26 47  1  0
 27 48  1  0
 27 49  1  0
 28 50  1  0
 28 51  1  0
 29 52  1  0
 29 53  1  0
 30 54  1  0
M  END
>  <meeko>  (132) 
{"is_sidechain": [true], "free_energy": -11.24, "intermolecular_energy": 0.0, "internal_energy": -11.24, "cluster_size": 20, "cluster_id": 1, "rank_in_cluster": 1}

>  <_RMSD_MCS_to_ref>  (132) 
0.5976570923196677

$$$$
ligand
     RDKit          3D

 44 47  0  0  0  0  0  0  0  0999 V2000
   18.9090   19.1530    7.5370 C   0  0  0  0  0  0  0  0  0  0  0  0
   18.7730   17.6470    7.6780 C   0  0  0  0  0  0  0  0  0  0  0  0
   20.0760   16.9450    7.5240 C   0  0  0  0  0  0  0  0  0  0  0  0
   21.0640   16.7360    8.4660 C   0  0  0  0  0  0  0  0  0  0  0  0
   22.0250   16.0380    7.7940 N   0  0  0  0  0  0  0  0  0  0  0  0
   23.5690   15.6720    8.3710 S   0  0  0  0  0  6  0  0  0  0  0  0
   24.3780   16.8320    8.0380 O   0  0  0  0  0  0  0  0  0  0  0  0
   23.8680   14.3720    7.8020 O   0  0  0  0  0  0  0  0  0  0  0  0
   23.5020   15.5160    9.9980 O   0  0  0  0  0  0  0  0  0  0  0  0
   24.4150   16.2090   10.7540 C   0  0  0  0  0  0  0  0  0  0  0  0
   25.7170   16.4080   10.2840 C   0  0  0  0  0  0  0  0  0  0  0  0
   26.6380   17.1290   11.0470 C   0  0  0  0  0  0  0  0  0  0  0  0
   26.2950   17.6680   12.2950 C   0  0  0  0  0  0  0  0  0  0  0  0
   24.9910   17.4360   12.7480 C   0  0  0  0  0  0  0  0  0  0  0  0
   24.0600   16.7080   12.0180 C   0  0  0  0  0  0  0  0  0  0  0  0
   22.8820   16.6350   12.7080 N   0  0  0  0  0  0  0  0  0  0  0  0
   23.0340   17.2920   13.8490 N   0  0  0  0  0  0  0  0  0  0  0  0
   24.2900   17.7860   13.8750 N   0  0  0  0  0  0  0  0  0  0  0  0
   24.7200   18.6260   14.9780 C   0  0  1  0  0  0  0  0  0  0  0  0
   25.7820   17.9510   15.8530 C   0  0  0  0  0  0  0  0  0  0  0  0
   26.2190   18.9010   16.9560 C   0  0  0  0  0  0  0  0  0  0  0  0
   26.7320   20.1990   16.3820 C   0  0  0  0  0  0  0  0  0  0  0  0
   27.4730   20.9480   17.0100 O   0  0  0  0  0  0  0  0  0  0  0  0
   26.2510   20.5490   15.1450 N   0  0  0  0  0  0  0  0  0  0  0  0
   25.2070   19.9680   14.4610 C   0  0  0  0  0  0  0  0  0  0  0  0
   24.6570   20.5810   13.5480 O   0  0  0  0  0  0  0  0  0  0  0  0
   21.6400   15.8830    6.5000 C   0  0  0  0  0  0  0  0  0  0  0  0
   20.4490   16.4120    6.3040 N   0  0  0  0  0  0  0  0  0  0  0  0
   18.9505   19.6125    8.5356 H   0  0  0  0  0  0  0  0  0  0  0  0
   19.8320   19.3879    6.9867 H   0  0  0  0  0  0  0  0  0  0  0  0
   18.0430   19.5494    6.9867 H   0  0  0  0  0  0  0  0  0  0  0  0
   18.3648   17.4205    8.6740 H   0  0  0  0  0  0  0  0  0  0  0  0
   18.1041   17.2935    6.8795 H   0  0  0  0  0  0  0  0  0  0  0  0
   21.0740   17.0585    9.5176 H   0  0  0  0  0  0  0  0  0  0  0  0
   26.0168   15.9950    9.3096 H   0  0  0  0  0  0  0  0  0  0  0  0
   27.6568   17.2776   10.6596 H   0  0  0  0  0  0  0  0  0  0  0  0
   27.0169   18.2462   12.8904 H   0  0  0  0  0  0  0  0  0  0  0  0
   23.8449   18.7910   15.6238 H   0  0  0  0  0  0  0  0  0  0  0  0
   25.3602   17.0396   16.3017 H   0  0  0  0  0  0  0  0  0  0  0  0
   26.6519   17.6898   15.2324 H   0  0  0  0  0  0  0  0  0  0  0  0
   25.3601   19.1118   17.6101 H   0  0  0  0  0  0  0  0  0  0  0  0
   27.0308   18.4255   17.5260 H   0  0  0  0  0  0  0  0  0  0  0  0
   26.7242   21.3344   14.6759 H   0  0  0  0  0  0  0  0  0  0  0  0
   22.2394   15.3850    5.7237 H   0  0  0  0  0  0  0  0  0  0  0  0
  1  2  1  0
  2  3  1  0
  3  4  2  0
  4  5  1  0
  5  6  1  0
  6  7  2  0
  6  8  2  0
  6  9  1  0
  9 10  1  0
 10 11  2  0
 11 12  1  0
 12 13  2  0
 13 14  1  0
 14 15  2  0
 15 16  1  0
 16 17  2  0
 17 18  1  0
 18 19  1  0
 19 20  1  0
 20 21  1  0
 21 22  1  0
 22 23  2  0
 22 24  1  0
 24 25  1  0
 25 26  2  0
  5 27  1  0
 27 28  2  0
 28  3  1  0
 15 10  1  0
 25 19  1  0
 18 14  1  0
  1 29  1  0
  1 30  1  0
  1 31  1  0
  2 32  1  0
  2 33  1  0
  4 34  1  0
 11 35  1  0
 12 36  1  0
 13 37  1  0
 19 38  1  1
 20 39  1  0
 20 40  1  0
 21 41  1  0
 21 42  1  0
 24 43  1  0
 27 44  1  0
M  END
>  <meeko>  (133) 
{"is_sidechain": [true], "free_energy": -11.24, "intermolecular_energy": 0.0, "internal_energy": -11.24, "cluster_size": 20, "cluster_id": 1, "rank_in_cluster": 1}

>  <_RMSD_MCS_to_ref>  (133) 
0.35712602817492944

$$$$
ligand
     RDKit          3D

 55 59  0  0  0  0  0  0  0  0999 V2000
   18.9090   19.1540    7.5370 C   0  0  0  0  0  0  0  0  0  0  0  0
   18.7730   17.6460    7.6780 C   0  0  0  0  0  0  0  0  0  0  0  0
   20.0570   16.9990    8.0600 C   0  0  0  0  0  0  0  0  0  0  0  0
   21.2870   17.0700    7.4350 C   0  0  0  0  0  0  0  0  0  0  0  0
   22.0990   16.2940    8.2110 N   0  0  0  0  0  0  0  0  0  0  0  0
   23.7250   15.9910    7.9320 S   0  0  0  0  0  6  0  0  0  0  0  0
   24.4090   16.8260    8.9020 O   0  0  0  0  0  0  0  0  0  0  0  0
   23.9480   16.1370    6.5070 O   0  0  0  0  0  0  0  0  0  0  0  0
   24.0000   14.2940    8.3740 C   0  0  0  0  0  0  0  0  0  0  0  0
   24.1770   13.3900    7.3170 C   0  0  0  0  0  0  0  0  0  0  0  0
   24.4170   12.0650    7.6180 C   0  0  0  0  0  0  0  0  0  0  0  0
   24.4880   11.5980    8.8770 N   0  0  0  0  0  0  0  0  0  0  0  0
   24.2950   12.4890    9.8780 C   0  0  0  0  0  0  0  0  0  0  0  0
   24.0450   13.8520    9.7050 C   0  0  0  0  0  0  0  0  0  0  0  0
   23.8420   14.6870   10.8930 C   0  0  0  0  0  0  0  0  0  0  0  0
   22.6560   14.5520   11.6620 C   0  0  0  0  0  0  0  0  0  0  0  0
   22.4290   15.3410   12.7930 C   0  0  0  0  0  0  0  0  0  0  0  0
   23.3970   16.2640   13.1280 C   0  0  0  0  0  0  0  0  0  0  0  0
   24.5660   16.4270   12.3910 C   0  0  0  0  0  0  0  0  0  0  0  0
   24.7970   15.6530   11.2650 C   0  0  0  0  0  0  0  0  0  0  0  0
   25.4200   17.4870   13.0070 C   0  0  0  0  0  0  0  0  0  0  0  0
   24.6040   17.9290   14.1320 N   0  0  0  0  0  0  0  0  0  0  0  0
   25.0820   18.8210   15.1850 C   0  0  1  0  0  0  0  0  0  0  0  0
   26.0850   18.1030   16.0910 C   0  0  0  0  0  0  0  0  0  0  0  0
   26.4680   19.0050   17.2520 C   0  0  0  0  0  0  0  0  0  0  0  0
   27.0120   20.3250   16.7620 C   0  0  0  0  0  0  0  0  0  0  0  0
   27.8690   20.9530   17.3760 O   0  0  0  0  0  0  0  0  0  0  0  0
   26.4750   20.8170   15.5990 N   0  0  0  0  0  0  0  0  0  0  0  0
   25.6980   20.1390   14.6870 C   0  0  0  0  0  0  0  0  0  0  0  0
   25.5090   20.6140   13.5700 O   0  0  0  0  0  0  0  0  0  0  0  0
   23.4310   17.2030   14.2540 C   0  0  0  0  0  0  0  0  0  0  0  0
   22.5910   17.2830   15.1280 O   0  0  0  0  0  0  0  0  0  0  0  0
   21.3730   15.7570    9.2240 C   0  0  0  0  0  0  0  0  0  0  0  0
   20.1290   16.1850    9.1740 N   0  0  0  0  0  0  0  0  0  0  0  0
   18.9504   19.6134    8.5356 H   0  0  0  0  0  0  0  0  0  0  0  0
   19.8320   19.3891    6.9867 H   0  0  0  0  0  0  0  0  0  0  0  0
   18.0430   19.5504    6.9867 H   0  0  0  0  0  0  0  0  0  0  0  0
   18.0228   17.4289    8.4526 H   0  0  0  0  0  0  0  0  0  0  0  0
   18.4687   17.2417    6.7013 H   0  0  0  0  0  0  0  0  0  0  0  0
   21.5512   17.6242    6.5223 H   0  0  0  0  0  0  0  0  0  0  0  0
   24.1257   13.7293    6.2719 H   0  0  0  0  0  0  0  0  0  0  0  0
   24.5570   11.3566    6.7882 H   0  0  0  0  0  0  0  0  0  0  0  0
   24.3386   12.1091   10.9094 H   0  0  0  0  0  0  0  0  0  0  0  0
   21.9004   13.8112   11.3614 H   0  0  0  0  0  0  0  0  0  0  0  0
   21.5136   15.2300   13.3927 H   0  0  0  0  0  0  0  0  0  0  0  0
   25.7123   15.7910   10.6708 H   0  0  0  0  0  0  0  0  0  0  0  0
   26.3809   17.0753   13.3493 H   0  0  0  0  0  0  0  0  0  0  0  0
   25.6871   18.2965   12.3118 H   0  0  0  0  0  0  0  0  0  0  0  0
   24.1777   19.0975   15.7470 H   0  0  0  0  0  0  0  0  0  0  0  0
   25.6300   17.1803   16.4802 H   0  0  0  0  0  0  0  0  0  0  0  0
   26.9862   17.8559   15.5107 H   0  0  0  0  0  0  0  0  0  0  0  0
   25.5776   19.1913   17.8704 H   0  0  0  0  0  0  0  0  0  0  0  0
   27.2505   18.5026   17.8397 H   0  0  0  0  0  0  0  0  0  0  0  0
   26.6758   21.8042   15.3843 H   0  0  0  0  0  0  0  0  0  0  0  0
   21.7680   15.0624    9.9799 H   0  0  0  0  0  0  0  0  0  0  0  0
  1  2  1  0
  2  3  1  0
  3  4  2  0
  4  5  1  0
  5  6  1  0
  6  7  2  0
  6  8  2  0
  6  9  1  0
  9 10  2  0
 10 11  1  0
 11 12  2  0
 12 13  1  0
 13 14  2  0
 14 15  1  0
 15 16  2  0
 16 17  1  0
 17 18  2  0
 18 19  1  0
 19 20  2  0
 19 21  1  0
 21 22  1  0
 22 23  1  0
 23 24  1  0
 24 25  1  0
 25 26  1  0
 26 27  2  0
 26 28  1  0
 28 29  1  0
 29 30  2  0
 22 31  1  0
 31 32  2  0
  5 33  1  0
 33 34  2  0
 34  3  1  0
 14  9  1  0
 20 15  1  0
 29 23  1  0
 31 18  1  0
  1 35  1  0
  1 36  1  0
  1 37  1  0
  2 38  1  0
  2 39  1  0
  4 40  1  0
 10 41  1  0
 11 42  1  0
 13 43  1  0
 16 44  1  0
 17 45  1  0
 20 46  1  0
 21 47  1  0
 21 48  1  0
 23 49  1  1
 24 50  1  0
 24 51  1  0
 25 52  1  0
 25 53  1  0
 28 54  1  0
 33 55  1  0
M  END
>  <meeko>  (134) 
{"is_sidechain": [true], "free_energy": -11.24, "intermolecular_energy": 0.0, "internal_energy": -11.24, "cluster_size": 20, "cluster_id": 1, "rank_in_cluster": 1}

>  <_RMSD_MCS_to_ref>  (134) 
1.1403669487396495

$$$$
ligand
     RDKit          3D

 56 60  0  0  0  0  0  0  0  0999 V2000
   18.7970   18.8170    7.7190 C   0  0  0  0  0  0  0  0  0  0  0  0
   18.5280   17.3290    7.8810 C   0  0  0  0  0  0  0  0  0  0  0  0
   19.7580   16.5750    8.2460 C   0  0  0  0  0  0  0  0  0  0  0  0
   20.9830   16.5570    7.6110 C   0  0  0  0  0  0  0  0  0  0  0  0
   21.7380   15.6990    8.3590 N   0  0  0  0  0  0  0  0  0  0  0  0
   23.2200   15.0240    7.9020 S   0  0  0  0  0  6  0  0  0  0  0  0
   22.9760   13.5950    7.8170 O   0  0  0  0  0  0  0  0  0  0  0  0
   23.6120   15.7900    6.7330 O   0  0  0  0  0  0  0  0  0  0  0  0
   24.3060   15.3240    9.0920 O   0  0  0  0  0  0  0  0  0  0  0  0
   24.3190   14.5070   10.1910 C   0  0  0  0  0  0  0  0  0  0  0  0
   24.5500   13.1320   10.0550 C   0  0  0  0  0  0  0  0  0  0  0  0
   24.5220   12.3060   11.1780 C   0  0  0  0  0  0  0  0  0  0  0  0
   24.2630   12.8790   12.4140 C   0  0  0  0  0  0  0  0  0  0  0  0
   24.0690   14.2600   12.5520 C   0  0  0  0  0  0  0  0  0  0  0  0
   24.1100   15.0910   11.4420 C   0  0  0  0  0  0  0  0  0  0  0  0
   23.8530   14.6180   14.0040 C   0  0  2  0  0  0  0  0  0  0  0  0
   23.4880   13.2430   14.5990 C   0  0  0  0  0  0  0  0  0  0  0  0
   24.2090   12.1890   13.7430 C   0  0  0  0  0  0  0  0  0  0  0  0
   22.8060   15.6940   14.2650 C   0  0  0  0  0  0  0  0  0  0  0  0
   23.6300   16.9190   14.5440 C   0  0  0  0  0  0  0  0  0  0  0  0
   23.1750   18.0500   14.6320 O   0  0  0  0  0  0  0  0  0  0  0  0
   24.9350   16.5580   14.7240 N   0  0  0  0  0  0  0  0  0  0  0  0
   25.9190   17.4740   15.2850 C   0  0  2  0  0  0  0  0  0  0  0  0
   25.7830   17.7010   16.7890 C   0  0  0  0  0  0  0  0  0  0  0  0
   26.8800   18.6490   17.2510 C   0  0  0  0  0  0  0  0  0  0  0  0
   26.8410   19.9510   16.4860 C   0  0  0  0  0  0  0  0  0  0  0  0
   27.2320   21.0090   16.9710 O   0  0  0  0  0  0  0  0  0  0  0  0
   26.3950   19.8900   15.1890 N   0  0  0  0  0  0  0  0  0  0  0  0
   25.8430   18.8100   14.5370 C   0  0  0  0  0  0  0  0  0  0  0  0
   25.3760   18.9310   13.4060 O   0  0  0  0  0  0  0  0  0  0  0  0
   25.1050   15.2050   14.6260 C   0  0  0  0  0  0  0  0  0  0  0  0
   26.0950   14.5770   14.9730 O   0  0  0  0  0  0  0  0  0  0  0  0
   20.9780   15.2050    9.3700 C   0  0  0  0  0  0  0  0  0  0  0  0
   19.7670   15.7230    9.3330 N   0  0  0  0  0  0  0  0  0  0  0  0
   18.8815   19.2845    8.7111 H   0  0  0  0  0  0  0  0  0  0  0  0
   19.7359   18.9616    7.1643 H   0  0  0  0  0  0  0  0  0  0  0  0
   17.9682   19.2812    7.1643 H   0  0  0  0  0  0  0  0  0  0  0  0
   17.7775   17.1882    8.6727 H   0  0  0  0  0  0  0  0  0  0  0  0
   18.1672   16.9427    6.9163 H   0  0  0  0  0  0  0  0  0  0  0  0
   21.2832   17.1083    6.7077 H   0  0  0  0  0  0  0  0  0  0  0  0
   24.7535   12.7040    9.0623 H   0  0  0  0  0  0  0  0  0  0  0  0
   24.7012   11.2246   11.0856 H   0  0  0  0  0  0  0  0  0  0  0  0
   23.9816   16.1787   11.5444 H   0  0  0  0  0  0  0  0  0  0  0  0
   23.8263   13.1796   15.6438 H   0  0  0  0  0  0  0  0  0  0  0  0
   22.3996   13.0835   14.5913 H   0  0  0  0  0  0  0  0  0  0  0  0
   25.2173   11.9779   14.1286 H   0  0  0  0  0  0  0  0  0  0  0  0
   23.7117   11.2081   13.7220 H   0  0  0  0  0  0  0  0  0  0  0  0
   22.1656   15.8426   13.3831 H   0  0  0  0  0  0  0  0  0  0  0  0
   22.1228   15.4385   15.0884 H   0  0  0  0  0  0  0  0  0  0  0  0
   26.9029   17.0011   15.1498 H   0  0  0  0  0  0  0  0  0  0  0  0
   24.7992   18.1418   17.0074 H   0  0  0  0  0  0  0  0  0  0  0  0
   25.8756   16.7412   17.3184 H   0  0  0  0  0  0  0  0  0  0  0  0
   26.7440   18.8590   18.3222 H   0  0  0  0  0  0  0  0  0  0  0  0
   27.8526   18.1687   17.0680 H   0  0  0  0  0  0  0  0  0  0  0  0
   26.4839   20.7555   14.6377 H   0  0  0  0  0  0  0  0  0  0  0  0
   21.3248   14.4745   10.1157 H   0  0  0  0  0  0  0  0  0  0  0  0
  1  2  1  0
  2  3  1  0
  3  4  2  0
  4  5  1  0
  5  6  1  0
  6  7  2  0
  6  8  2  0
  6  9  1  0
  9 10  1  0
 10 11  2  0
 11 12  1  0
 12 13  2  0
 13 14  1  0
 14 15  2  0
 14 16  1  0
 16 17  1  1
 17 18  1  0
 16 19  1  0
 19 20  1  0
 20 21  2  0
 20 22  1  0
 22 23  1  0
 23 24  1  0
 24 25  1  0
 25 26  1  0
 26 27  2  0
 26 28  1  0
 28 29  1  0
 29 30  2  0
 22 31  1  0
 31 32  2  0
  5 33  1  0
 33 34  2  0
 34  3  1  0
 15 10  1  0
 31 16  1  0
 18 13  1  0
 29 23  1  0
  1 35  1  0
  1 36  1  0
  1 37  1  0
  2 38  1  0
  2 39  1  0
  4 40  1  0
 11 41  1  0
 12 42  1  0
 15 43  1  0
 17 44  1  0
 17 45  1  0
 18 46  1  0
 18 47  1  0
 19 48  1  0
 19 49  1  0
 23 50  1  1
 24 51  1  0
 24 52  1  0
 25 53  1  0
 25 54  1  0
 28 55  1  0
 33 56  1  0
M  END
>  <meeko>  (135) 
{"is_sidechain": [true], "free_energy": -11.23, "intermolecular_energy": 0.0, "internal_energy": -11.23, "cluster_size": 20, "cluster_id": 1, "rank_in_cluster": 1}

>  <_RMSD_MCS_to_ref>  (135) 
1.936060414494193

$$$$
ligand
     RDKit          3D

 48 51  0  0  0  0  0  0  0  0999 V2000
   18.9090   19.1540    7.5370 C   0  0  0  0  0  0  0  0  0  0  0  0
   18.7730   17.6460    7.6780 C   0  0  0  0  0  0  0  0  0  0  0  0
   20.0320   16.9340    7.3250 C   0  0  0  0  0  0  0  0  0  0  0  0
   21.2030   16.8270    8.0490 C   0  0  0  0  0  0  0  0  0  0  0  0
   22.0250   16.0870    7.2480 N   0  0  0  0  0  0  0  0  0  0  0  0
   23.5130   15.4610    7.6960 S   0  0  0  0  0  6  0  0  0  0  0  0
   24.5100   16.2660    7.0180 O   0  0  0  0  0  0  0  0  0  0  0  0
   23.4230   14.0240    7.5610 O   0  0  0  0  0  0  0  0  0  0  0  0
   23.7790   15.7720    9.3930 C   0  0  0  0  0  0  0  0  0  0  0  0
   24.7870   16.6180    9.7640 N   0  0  0  0  0  0  0  0  0  0  0  0
   24.8850   16.8400   11.0860 N   0  0  0  0  0  0  0  0  0  0  0  0
   23.9220   16.0750   11.6410 C   0  0  0  0  0  0  0  0  0  0  0  0
   23.5470   15.8880   12.9880 C   0  0  0  0  0  0  0  0  0  0  0  0
   24.1930   16.5540   14.1340 C   0  0  0  0  0  0  0  0  0  0  0  0
   24.4820   15.9090   15.1370 O   0  0  0  0  0  0  0  0  0  0  0  0
   24.4350   17.9010   14.0170 N   0  0  0  0  0  0  0  0  0  0  0  0
   24.9700   18.6920   15.1100 C   0  0  1  0  0  0  0  0  0  0  0  0
   26.1020   17.9660   15.8320 C   0  0  0  0  0  0  0  0  0  0  0  0
   26.6280   18.8390   16.9610 C   0  0  0  0  0  0  0  0  0  0  0  0
   27.0660   20.1910   16.4490 C   0  0  0  0  0  0  0  0  0  0  0  0
   28.0010   20.8110   16.9450 O   0  0  0  0  0  0  0  0  0  0  0  0
   26.3410   20.7180   15.4110 N   0  0  0  0  0  0  0  0  0  0  0  0
   25.4950   20.0300   14.5750 C   0  0  0  0  0  0  0  0  0  0  0  0
   25.1810   20.4950   13.4800 O   0  0  0  0  0  0  0  0  0  0  0  0
   22.4670   14.9870   13.1670 C   0  0  0  0  0  0  0  0  0  0  0  0
   21.8090   14.3210   12.0870 C   0  0  0  0  0  0  0  0  0  0  0  0
   22.1570   14.4900   10.7320 C   0  0  0  0  0  0  0  0  0  0  0  0
   23.2160   15.3820   10.5820 C   0  0  0  0  0  0  0  0  0  0  0  0
   21.3520   15.7330    6.1250 C   0  0  0  0  0  0  0  0  0  0  0  0
   20.1370   16.2410    6.1350 N   0  0  0  0  0  0  0  0  0  0  0  0
   18.9504   19.6134    8.5356 H   0  0  0  0  0  0  0  0  0  0  0  0
   19.8320   19.3891    6.9867 H   0  0  0  0  0  0  0  0  0  0  0  0
   18.0430   19.5504    6.9867 H   0  0  0  0  0  0  0  0  0  0  0  0
   18.5121   17.4094    8.7201 H   0  0  0  0  0  0  0  0  0  0  0  0
   17.9884   17.3106    6.9838 H   0  0  0  0  0  0  0  0  0  0  0  0
   21.4233   17.2427    9.0433 H   0  0  0  0  0  0  0  0  0  0  0  0
   25.4239   17.0528    9.0812 H   0  0  0  0  0  0  0  0  0  0  0  0
   24.2294   18.3665   13.1215 H   0  0  0  0  0  0  0  0  0  0  0  0
   24.1537   18.8611   15.8277 H   0  0  0  0  0  0  0  0  0  0  0  0
   25.7247   17.0194   16.2462 H   0  0  0  0  0  0  0  0  0  0  0  0
   26.9152   17.7579   15.1211 H   0  0  0  0  0  0  0  0  0  0  0  0
   25.8318   18.9788   17.7070 H   0  0  0  0  0  0  0  0  0  0  0  0
   27.4983   18.3388   17.4109 H   0  0  0  0  0  0  0  0  0  0  0  0
   26.4405   21.7291   15.2414 H   0  0  0  0  0  0  0  0  0  0  0  0
   22.1170   14.7901   14.1911 H   0  0  0  0  0  0  0  0  0  0  0  0
   20.9824   13.6363   12.3277 H   0  0  0  0  0  0  0  0  0  0  0  0
   21.6546   13.9806    9.8965 H   0  0  0  0  0  0  0  0  0  0  0  0
   21.7636   15.1086    5.3183 H   0  0  0  0  0  0  0  0  0  0  0  0
  1  2  1  0
  2  3  1  0
  3  4  2  0
  4  5  1  0
  5  6  1  0
  6  7  2  0
  6  8  2  0
  6  9  1  0
  9 10  1  0
 10 11  1  0
 11 12  2  0
 12 13  1  0
 13 14  1  0
 14 15  2  0
 14 16  1  0
 16 17  1  0
 17 18  1  0
 18 19  1  0
 19 20  1  0
 20 21  2  0
 20 22  1  0
 22 23  1  0
 23 24  2  0
 13 25  2  0
 25 26  1  0
 26 27  2  0
 27 28  1  0
  5 29  1  0
 29 30  2  0
 30  3  1  0
 28  9  2  0
 28 12  1  0
 23 17  1  0
  1 31  1  0
  1 32  1  0
  1 33  1  0
  2 34  1  0
  2 35  1  0
  4 36  1  0
 10 37  1  0
 16 38  1  0
 17 39  1  1
 18 40  1  0
 18 41  1  0
 19 42  1  0
 19 43  1  0
 22 44  1  0
 25 45  1  0
 26 46  1  0
 27 47  1  0
 29 48  1  0
M  END
>  <meeko>  (136) 
{"is_sidechain": [true], "free_energy": -11.23, "intermolecular_energy": 0.0, "internal_energy": -11.23, "cluster_size": 15, "cluster_id": 1, "rank_in_cluster": 1}

>  <_RMSD_MCS_to_ref>  (136) 
0.5402934387904413

$$$$
ligand
     RDKit          3D

 46 49  0  0  0  0  0  0  0  0999 V2000
   18.9090   19.1540    7.5370 C   0  0  0  0  0  0  0  0  0  0  0  0
   18.7730   17.6460    7.6780 C   0  0  0  0  0  0  0  0  0  0  0  0
   20.0880   16.9530    7.6010 C   0  0  0  0  0  0  0  0  0  0  0  0
   20.9190   16.5490    8.6270 C   0  0  0  0  0  0  0  0  0  0  0  0
   21.9700   15.9520    7.9930 N   0  0  0  0  0  0  0  0  0  0  0  0
   23.4110   15.4700    8.7080 S   0  0  0  0  0  6  0  0  0  0  0  0
   24.3680   16.5130    8.3950 O   0  0  0  0  0  0  0  0  0  0  0  0
   23.6130   14.0850    8.3320 O   0  0  0  0  0  0  0  0  0  0  0  0
   23.0700   15.5240   10.4510 C   0  0  0  0  0  0  0  0  0  0  0  0
   23.8140   16.3780   11.2640 C   0  0  0  0  0  0  0  0  0  0  0  0
   23.5640   16.4490   12.6500 C   0  0  0  0  0  0  0  0  0  0  0  0
   24.4020   17.3660   13.4660 C   0  0  0  0  0  0  0  0  0  0  0  0
   25.5400   17.6330   13.0950 O   0  0  0  0  0  0  0  0  0  0  0  0
   23.8680   17.8760   14.6240 N   0  0  0  0  0  0  0  0  0  0  0  0
   24.6480   18.7120   15.5240 C   0  0  1  0  0  0  0  0  0  0  0  0
   25.7680   17.9260   16.2000 C   0  0  0  0  0  0  0  0  0  0  0  0
   26.5580   18.8500   17.1140 C   0  0  0  0  0  0  0  0  0  0  0  0
   27.0890   20.0450   16.3600 C   0  0  0  0  0  0  0  0  0  0  0  0
   28.1560   20.5810   16.6430 O   0  0  0  0  0  0  0  0  0  0  0  0
   26.2990   20.5350   15.3500 N   0  0  0  0  0  0  0  0  0  0  0  0
   25.2580   19.8800   14.7400 C   0  0  0  0  0  0  0  0  0  0  0  0
   24.8450   20.2380   13.6380 O   0  0  0  0  0  0  0  0  0  0  0  0
   22.5340   15.6570   13.2080 C   0  0  0  0  0  0  0  0  0  0  0  0
   22.1340   15.5970   14.5420 N   0  0  0  0  0  0  0  0  0  0  0  0
   21.1330   14.7590   14.7320 N   0  0  0  0  0  0  0  0  0  0  0  0
   20.6320   14.0120   13.3290 S   0  0  0  0  0  0  0  0  0  0  0  0
   21.8000   14.8240   12.3530 C   0  0  0  0  0  0  0  0  0  0  0  0
   22.0410   14.7340   10.9730 C   0  0  0  0  0  0  0  0  0  0  0  0
   21.7860   16.0380    6.6510 C   0  0  0  0  0  0  0  0  0  0  0  0
   20.6470   16.6370    6.3770 N   0  0  0  0  0  0  0  0  0  0  0  0
   18.9504   19.6134    8.5356 H   0  0  0  0  0  0  0  0  0  0  0  0
   19.8320   19.3891    6.9867 H   0  0  0  0  0  0  0  0  0  0  0  0
   18.0430   19.5504    6.9867 H   0  0  0  0  0  0  0  0  0  0  0  0
   18.3107   17.4215    8.6506 H   0  0  0  0  0  0  0  0  0  0  0  0
   18.1513   17.2838    6.8459 H   0  0  0  0  0  0  0  0  0  0  0  0
   20.7683   16.6787    9.7089 H   0  0  0  0  0  0  0  0  0  0  0  0
   24.6034   17.0023   10.8201 H   0  0  0  0  0  0  0  0  0  0  0  0
   22.8892   17.6610   14.8618 H   0  0  0  0  0  0  0  0  0  0  0  0
   23.9701   19.0851   16.3058 H   0  0  0  0  0  0  0  0  0  0  0  0
   25.3346   17.1070   16.7929 H   0  0  0  0  0  0  0  0  0  0  0  0
   26.4377   17.5099   15.4329 H   0  0  0  0  0  0  0  0  0  0  0  0
   25.9011   19.2003   17.9238 H   0  0  0  0  0  0  0  0  0  0  0  0
   27.4121   18.2887   17.5208 H   0  0  0  0  0  0  0  0  0  0  0  0
   26.5076   21.4872   15.0173 H   0  0  0  0  0  0  0  0  0  0  0  0
   21.4454   14.0699   10.3293 H   0  0  0  0  0  0  0  0  0  0  0  0
   22.4915   15.6593    5.8968 H   0  0  0  0  0  0  0  0  0  0  0  0
  1  2  1  0
  2  3  1  0
  3  4  2  0
  4  5  1  0
  5  6  1  0
  6  7  2  0
  6  8  2  0
  6  9  1  0
  9 10  2  0
 10 11  1  0
 11 12  1  0
 12 13  2  0
 12 14  1  0
 14 15  1  0
 15 16  1  0
 16 17  1  0
 17 18  1  0
 18 19  2  0
 18 20  1  0
 20 21  1  0
 21 22  2  0
 11 23  2  0
 23 24  1  0
 24 25  2  0
 25 26  1  0
 26 27  1  0
 27 28  2  0
  5 29  1  0
 29 30  2  0
 30  3  1  0
 28  9  1  0
 21 15  1  0
 27 23  1  0
  1 31  1  0
  1 32  1  0
  1 33  1  0
  2 34  1  0
  2 35  1  0
  4 36  1  0
 10 37  1  0
 14 38  1  0
 15 39  1  1
 16 40  1  0
 16 41  1  0
 17 42  1  0
 17 43  1  0
 20 44  1  0
 28 45  1  0
 29 46  1  0
M  END
>  <meeko>  (137) 
{"is_sidechain": [true], "free_energy": -11.23, "intermolecular_energy": 0.0, "internal_energy": -11.23, "cluster_size": 20, "cluster_id": 1, "rank_in_cluster": 1}

>  <_RMSD_MCS_to_ref>  (137) 
0.7313286235035215

$$$$
ligand
     RDKit          3D

 55 59  0  0  0  0  0  0  0  0999 V2000
   18.9090   19.1540    7.5370 C   0  0  0  0  0  0  0  0  0  0  0  0
   18.7730   17.6460    7.6780 C   0  0  0  0  0  0  0  0  0  0  0  0
   19.7940   16.9150    6.8810 C   0  0  0  0  0  0  0  0  0  0  0  0
   21.1630   16.8670    7.0580 C   0  0  0  0  0  0  0  0  0  0  0  0
   21.6040   16.0580    6.0490 N   0  0  0  0  0  0  0  0  0  0  0  0
   23.2100   15.7690    5.6460 S   0  0  0  0  0  6  0  0  0  0  0  0
   23.1640   14.9510    4.4460 O   0  0  0  0  0  0  0  0  0  0  0  0
   23.8670   17.0620    5.6750 O   0  0  0  0  0  0  0  0  0  0  0  0
   23.8430   14.7790    6.9720 C   0  0  0  0  0  0  0  0  0  0  0  0
   24.4220   13.5530    6.7090 C   0  0  0  0  0  0  0  0  0  0  0  0
   24.8630   12.8210    7.8010 C   0  0  0  0  0  0  0  0  0  0  0  0
   24.7070   13.3420    9.0900 C   0  0  0  0  0  0  0  0  0  0  0  0
   24.1140   14.5950    9.2680 C   0  0  0  0  0  0  0  0  0  0  0  0
   23.9080   15.2270   10.5920 C   0  0  0  0  0  0  0  0  0  0  0  0
   22.8260   14.8190   11.4230 C   0  0  0  0  0  0  0  0  0  0  0  0
   22.5820   15.3840   12.6850 C   0  0  0  0  0  0  0  0  0  0  0  0
   23.4290   16.3800   13.1230 C   0  0  0  0  0  0  0  0  0  0  0  0
   24.4850   16.7930   12.3180 C   0  0  0  0  0  0  0  0  0  0  0  0
   24.7470   16.2500   11.0710 C   0  0  0  0  0  0  0  0  0  0  0  0
   25.2100   17.8530   13.0260 C   0  0  0  0  0  0  0  0  0  0  0  0
   26.2210   18.3940   12.6230 O   0  0  0  0  0  0  0  0  0  0  0  0
   24.5200   18.0920   14.2050 N   0  0  0  0  0  0  0  0  0  0  0  0
   25.0850   18.9020   15.2780 C   0  0  1  0  0  0  0  0  0  0  0  0
   26.1490   18.1540   16.0760 C   0  0  0  0  0  0  0  0  0  0  0  0
   26.6250   19.0260   17.2260 C   0  0  0  0  0  0  0  0  0  0  0  0
   27.1270   20.3610   16.7270 C   0  0  0  0  0  0  0  0  0  0  0  0
   28.0710   20.9450   17.2500 O   0  0  0  0  0  0  0  0  0  0  0  0
   26.4610   20.9080   15.6600 N   0  0  0  0  0  0  0  0  0  0  0  0
   25.6840   20.2190   14.7560 C   0  0  0  0  0  0  0  0  0  0  0  0
   25.5140   20.6610   13.6230 O   0  0  0  0  0  0  0  0  0  0  0  0
   23.4290   17.1460   14.4020 C   0  0  0  0  0  0  0  0  0  0  0  0
   23.6750   15.3140    8.2070 N   0  0  0  0  0  0  0  0  0  0  0  0
   20.5440   15.6780    5.2890 C   0  0  0  0  0  0  0  0  0  0  0  0
   19.4230   16.1710    5.7770 N   0  0  0  0  0  0  0  0  0  0  0  0
   18.9504   19.6134    8.5356 H   0  0  0  0  0  0  0  0  0  0  0  0
   19.8320   19.3891    6.9867 H   0  0  0  0  0  0  0  0  0  0  0  0
   18.0430   19.5504    6.9867 H   0  0  0  0  0  0  0  0  0  0  0  0
   18.8911   17.3768    8.7380 H   0  0  0  0  0  0  0  0  0  0  0  0
   17.7802   17.3589    7.3014 H   0  0  0  0  0  0  0  0  0  0  0  0
   21.7617   17.3662    7.8342 H   0  0  0  0  0  0  0  0  0  0  0  0
   24.5283   13.1750    5.6815 H   0  0  0  0  0  0  0  0  0  0  0  0
   25.3325   11.8370    7.6547 H   0  0  0  0  0  0  0  0  0  0  0  0
   25.0506   12.7663    9.9621 H   0  0  0  0  0  0  0  0  0  0  0  0
   22.1530   14.0278   11.0610 H   0  0  0  0  0  0  0  0  0  0  0  0
   21.7405   15.0424   13.3056 H   0  0  0  0  0  0  0  0  0  0  0  0
   25.5931   16.6109   10.4678 H   0  0  0  0  0  0  0  0  0  0  0  0
   24.2406   19.1307   15.9448 H   0  0  0  0  0  0  0  0  0  0  0  0
   25.7210   17.2224   16.4748 H   0  0  0  0  0  0  0  0  0  0  0  0
   26.9992   17.9152   15.4202 H   0  0  0  0  0  0  0  0  0  0  0  0
   25.7879   19.1938   17.9196 H   0  0  0  0  0  0  0  0  0  0  0  0
   27.4527   18.5104   17.7351 H   0  0  0  0  0  0  0  0  0  0  0  0
   26.5501   21.9249   15.5228 H   0  0  0  0  0  0  0  0  0  0  0  0
   23.6253   16.4863   15.2601 H   0  0  0  0  0  0  0  0  0  0  0  0
   22.4656   17.6286   14.6233 H   0  0  0  0  0  0  0  0  0  0  0  0
   20.6117   15.0465    4.3909 H   0  0  0  0  0  0  0  0  0  0  0  0
  1  2  1  0
  2  3  1  0
  3  4  2  0
  4  5  1  0
  5  6  1  0
  6  7  2  0
  6  8  2  0
  6  9  1  0
  9 10  2  0
 10 11  1  0
 11 12  2  0
 12 13  1  0
 13 14  1  0
 14 15  2  0
 15 16  1  0
 16 17  2  0
 17 18  1  0
 18 19  2  0
 18 20  1  0
 20 21  2  0
 20 22  1  0
 22 23  1  0
 23 24  1  0
 24 25  1  0
 25 26  1  0
 26 27  2  0
 26 28  1  0
 28 29  1  0
 29 30  2  0
 22 31  1  0
 13 32  2  0
  5 33  1  0
 33 34  2  0
 34  3  1  0
 32  9  1  0
 19 14  1  0
 29 23  1  0
 31 17  1  0
  1 35  1  0
  1 36  1  0
  1 37  1  0
  2 38  1  0
  2 39  1  0
  4 40  1  0
 10 41  1  0
 11 42  1  0
 12 43  1  0
 15 44  1  0
 16 45  1  0
 19 46  1  0
 23 47  1  1
 24 48  1  0
 24 49  1  0
 25 50  1  0
 25 51  1  0
 28 52  1  0
 31 53  1  0
 31 54  1  0
 33 55  1  0
M  END
>  <meeko>  (138) 
{"is_sidechain": [true], "free_energy": -11.23, "intermolecular_energy": 0.0, "internal_energy": -11.23, "cluster_size": 19, "cluster_id": 1, "rank_in_cluster": 1}

>  <_RMSD_MCS_to_ref>  (138) 
1.98752419971291

$$$$
ligand
     RDKit          3D

 54 58  0  0  0  0  0  0  0  0999 V2000
   18.9090   19.1540    7.5370 C   0  0  0  0  0  0  0  0  0  0  0  0
   18.7730   17.6460    7.6780 C   0  0  0  0  0  0  0  0  0  0  0  0
   20.0660   16.9940    8.0240 C   0  0  0  0  0  0  0  0  0  0  0  0
   21.2440   16.9740    7.3040 C   0  0  0  0  0  0  0  0  0  0  0  0
   22.1050   16.2770    8.0980 N   0  0  0  0  0  0  0  0  0  0  0  0
   23.7310   15.9840    7.8040 S   0  0  0  0  0  6  0  0  0  0  0  0
   23.8480   16.0790    6.3610 O   0  0  0  0  0  0  0  0  0  0  0  0
   24.4890   16.8480    8.6870 O   0  0  0  0  0  0  0  0  0  0  0  0
   24.0480   14.3150    8.2610 C   0  0  0  0  0  0  0  0  0  0  0  0
   24.2900   13.3960    7.2330 C   0  0  0  0  0  0  0  0  0  0  0  0
   24.5040   12.0800    7.5700 C   0  0  0  0  0  0  0  0  0  0  0  0
   24.4840   11.6650    8.8470 N   0  0  0  0  0  0  0  0  0  0  0  0
   24.2600   12.5720    9.8510 N   0  0  0  0  0  0  0  0  0  0  0  0
   24.0580   13.8830    9.5790 C   0  0  0  0  0  0  0  0  0  0  0  0
   23.8640   14.7000   10.7790 C   0  0  0  0  0  0  0  0  0  0  0  0
   22.6870   14.5400   11.5580 C   0  0  0  0  0  0  0  0  0  0  0  0
   22.4560   15.3080   12.7020 C   0  0  0  0  0  0  0  0  0  0  0  0
   23.4250   16.2270   13.0520 C   0  0  0  0  0  0  0  0  0  0  0  0
   24.6030   16.3890   12.3280 C   0  0  0  0  0  0  0  0  0  0  0  0
   24.8420   15.6250   11.1960 C   0  0  0  0  0  0  0  0  0  0  0  0
   25.4530   17.4420   12.9610 C   0  0  0  0  0  0  0  0  0  0  0  0
   24.6200   17.8900   14.0710 N   0  0  0  0  0  0  0  0  0  0  0  0
   25.0770   18.8010   15.1170 C   0  0  1  0  0  0  0  0  0  0  0  0
   26.0340   18.0940   16.0770 C   0  0  0  0  0  0  0  0  0  0  0  0
   26.3980   19.0270   17.2200 C   0  0  0  0  0  0  0  0  0  0  0  0
   26.9840   20.3200   16.7080 C   0  0  0  0  0  0  0  0  0  0  0  0
   27.8300   20.9530   17.3310 O   0  0  0  0  0  0  0  0  0  0  0  0
   26.4960   20.7810   15.5100 N   0  0  0  0  0  0  0  0  0  0  0  0
   25.7260   20.0940   14.6000 C   0  0  0  0  0  0  0  0  0  0  0  0
   25.5650   20.5440   13.4680 O   0  0  0  0  0  0  0  0  0  0  0  0
   23.4470   17.1620   14.1800 C   0  0  0  0  0  0  0  0  0  0  0  0
   22.5950   17.2420   15.0420 O   0  0  0  0  0  0  0  0  0  0  0  0
   21.4480   15.8460    9.2050 C   0  0  0  0  0  0  0  0  0  0  0  0
   20.2110   16.2930    9.2060 N   0  0  0  0  0  0  0  0  0  0  0  0
   18.9504   19.6134    8.5356 H   0  0  0  0  0  0  0  0  0  0  0  0
   19.8320   19.3891    6.9867 H   0  0  0  0  0  0  0  0  0  0  0  0
   18.0430   19.5504    6.9867 H   0  0  0  0  0  0  0  0  0  0  0  0
   18.0433   17.4289    8.4720 H   0  0  0  0  0  0  0  0  0  0  0  0
   18.4416   17.2450    6.7088 H   0  0  0  0  0  0  0  0  0  0  0  0
   21.4419   17.4181    6.3173 H   0  0  0  0  0  0  0  0  0  0  0  0
   24.3085   13.7186    6.1815 H   0  0  0  0  0  0  0  0  0  0  0  0
   24.6967   11.3477    6.7721 H   0  0  0  0  0  0  0  0  0  0  0  0
   21.9392   13.7932   11.2531 H   0  0  0  0  0  0  0  0  0  0  0  0
   21.5402   15.1856   13.2990 H   0  0  0  0  0  0  0  0  0  0  0  0
   25.7798   15.7390   10.6325 H   0  0  0  0  0  0  0  0  0  0  0  0
   26.4041   17.0227   13.3209 H   0  0  0  0  0  0  0  0  0  0  0  0
   25.7388   18.2500   12.2714 H   0  0  0  0  0  0  0  0  0  0  0  0
   24.1617   19.1054   15.6457 H   0  0  0  0  0  0  0  0  0  0  0  0
   25.5474   17.1940   16.4809 H   0  0  0  0  0  0  0  0  0  0  0  0
   26.9479   17.8093   15.5351 H   0  0  0  0  0  0  0  0  0  0  0  0
   25.4920   19.2502   17.8025 H   0  0  0  0  0  0  0  0  0  0  0  0
   27.1518   18.5291   17.8476 H   0  0  0  0  0  0  0  0  0  0  0  0
   26.7337   21.7527   15.2645 H   0  0  0  0  0  0  0  0  0  0  0  0
   21.8877   15.2129    9.9897 H   0  0  0  0  0  0  0  0  0  0  0  0
  1  2  1  0
  2  3  1  0
  3  4  2  0
  4  5  1  0
  5  6  1  0
  6  7  2  0
  6  8  2  0
  6  9  1  0
  9 10  2  0
 10 11  1  0
 11 12  2  0
 12 13  1  0
 13 14  2  0
 14 15  1  0
 15 16  2  0
 16 17  1  0
 17 18  2  0
 18 19  1  0
 19 20  2  0
 19 21  1  0
 21 22  1  0
 22 23  1  0
 23 24  1  0
 24 25  1  0
 25 26  1  0
 26 27  2  0
 26 28  1  0
 28 29  1  0
 29 30  2  0
 22 31  1  0
 31 32  2  0
  5 33  1  0
 33 34  2  0
 34  3  1  0
 14  9  1  0
 20 15  1  0
 29 23  1  0
 31 18  1  0
  1 35  1  0
  1 36  1  0
  1 37  1  0
  2 38  1  0
  2 39  1  0
  4 40  1  0
 10 41  1  0
 11 42  1  0
 16 43  1  0
 17 44  1  0
 20 45  1  0
 21 46  1  0
 21 47  1  0
 23 48  1  1
 24 49  1  0
 24 50  1  0
 25 51  1  0
 25 52  1  0
 28 53  1  0
 33 54  1  0
M  END
>  <meeko>  (139) 
{"is_sidechain": [true], "free_energy": -11.23, "intermolecular_energy": 0.0, "internal_energy": -11.23, "cluster_size": 20, "cluster_id": 1, "rank_in_cluster": 1}

>  <_RMSD_MCS_to_ref>  (139) 
1.0769291733649171

$$$$
ligand
     RDKit          3D

 52 56  0  0  0  0  0  0  0  0999 V2000
   18.9090   19.1540    7.5370 C   0  0  0  0  0  0  0  0  0  0  0  0
   18.7730   17.6460    7.6780 C   0  0  0  0  0  0  0  0  0  0  0  0
   20.0850   16.9520    7.5770 C   0  0  0  0  0  0  0  0  0  0  0  0
   20.5820   15.9230    8.3550 C   0  0  0  0  0  0  0  0  0  0  0  0
   21.8310   15.7020    7.8550 N   0  0  0  0  0  0  0  0  0  0  0  0
   22.9790   14.6310    8.4430 S   0  0  0  0  0  6  0  0  0  0  0  0
   22.2860   13.6770    9.2850 O   0  0  0  0  0  0  0  0  0  0  0  0
   23.7070   14.2140    7.2600 O   0  0  0  0  0  0  0  0  0  0  0  0
   24.0720   15.6030    9.4590 C   0  0  0  0  0  0  0  0  0  0  0  0
   23.6190   15.8900   10.7610 C   0  0  0  0  0  0  0  0  0  0  0  0
   24.4490   16.6250   11.5820 C   0  0  0  0  0  0  0  0  0  0  0  0
   25.6900   17.0930   11.1700 C   0  0  0  0  0  0  0  0  0  0  0  0
   26.1400   16.8310    9.8890 C   0  0  0  0  0  0  0  0  0  0  0  0
   25.3320   16.0730    9.0060 C   0  0  0  0  0  0  0  0  0  0  0  0
   25.8540   15.8670    7.6560 C   0  0  0  0  0  0  0  0  0  0  0  0
   26.6630   14.8720    7.1430 C   0  0  0  0  0  0  0  0  0  0  0  0
   26.8820   15.0760    5.7510 C   0  0  0  0  0  0  0  0  0  0  0  0
   26.2870   16.1280    5.1970 N   0  0  0  0  0  0  0  0  0  0  0  0
   25.4130   16.9140    6.3660 S   0  0  0  0  0  0  0  0  0  0  0  0
   26.3340   17.8760   12.2680 C   0  0  0  0  0  0  0  0  0  0  0  0
   25.3850   17.7210   13.3630 N   0  0  0  0  0  0  0  0  0  0  0  0
   25.4270   18.5240   14.5810 C   0  0  1  0  0  0  0  0  0  0  0  0
   26.3410   17.9260   15.6450 C   0  0  0  0  0  0  0  0  0  0  0  0
   26.2650   18.7710   16.9080 C   0  0  0  0  0  0  0  0  0  0  0  0
   26.6020   20.2150   16.6180 C   0  0  0  0  0  0  0  0  0  0  0  0
   27.2240   20.9160   17.4100 O   0  0  0  0  0  0  0  0  0  0  0  0
   26.1620   20.7180   15.4200 N   0  0  0  0  0  0  0  0  0  0  0  0
   25.8640   19.9720   14.3030 C   0  0  0  0  0  0  0  0  0  0  0  0
   25.9690   20.4620   13.1820 O   0  0  0  0  0  0  0  0  0  0  0  0
   24.2320   17.0620   12.9650 C   0  0  0  0  0  0  0  0  0  0  0  0
   23.2180   16.8650   13.6050 O   0  0  0  0  0  0  0  0  0  0  0  0
   22.0400   16.5210    6.7920 C   0  0  0  0  0  0  0  0  0  0  0  0
   21.0060   17.3150    6.6130 N   0  0  0  0  0  0  0  0  0  0  0  0
   18.9504   19.6134    8.5356 H   0  0  0  0  0  0  0  0  0  0  0  0
   19.8320   19.3891    6.9867 H   0  0  0  0  0  0  0  0  0  0  0  0
   18.0430   19.5504    6.9867 H   0  0  0  0  0  0  0  0  0  0  0  0
   18.3274   17.4205    8.6581 H   0  0  0  0  0  0  0  0  0  0  0  0
   18.1362   17.2859    6.8566 H   0  0  0  0  0  0  0  0  0  0  0  0
   20.0842   15.4023    9.1863 H   0  0  0  0  0  0  0  0  0  0  0  0
   22.6368   15.5401   11.1115 H   0  0  0  0  0  0  0  0  0  0  0  0
   27.1187   17.2085    9.5578 H   0  0  0  0  0  0  0  0  0  0  0  0
   27.0797   14.0388    7.7279 H   0  0  0  0  0  0  0  0  0  0  0  0
   27.5138   14.3952    5.1616 H   0  0  0  0  0  0  0  0  0  0  0  0
   27.3167   17.4577   12.5312 H   0  0  0  0  0  0  0  0  0  0  0  0
   26.5300   18.9253   12.0022 H   0  0  0  0  0  0  0  0  0  0  0  0
   24.3958   18.5250   14.9640 H   0  0  0  0  0  0  0  0  0  0  0  0
   26.0188   16.8987   15.8706 H   0  0  0  0  0  0  0  0  0  0  0  0
   27.3765   17.9110   15.2742 H   0  0  0  0  0  0  0  0  0  0  0  0
   25.2452   18.7152   17.3166 H   0  0  0  0  0  0  0  0  0  0  0  0
   26.9943   18.3811   17.6334 H   0  0  0  0  0  0  0  0  0  0  0  0
   26.0450   21.7390   15.3510 H   0  0  0  0  0  0  0  0  0  0  0  0
   22.9461   16.5207    6.1684 H   0  0  0  0  0  0  0  0  0  0  0  0
  1  2  1  0
  2  3  1  0
  3  4  2  0
  4  5  1  0
  5  6  1  0
  6  7  2  0
  6  8  2  0
  6  9  1  0
  9 10  2  0
 10 11  1  0
 11 12  2  0
 12 13  1  0
 13 14  2  0
 14 15  1  0
 15 16  2  0
 16 17  1  0
 17 18  2  0
 18 19  1  0
 12 20  1  0
 20 21  1  0
 21 22  1  0
 22 23  1  0
 23 24  1  0
 24 25  1  0
 25 26  2  0
 25 27  1  0
 27 28  1  0
 28 29  2  0
 21 30  1  0
 30 31  2  0
  5 32  1  0
 32 33  2  0
 33  3  1  0
 14  9  1  0
 19 15  1  0
 28 22  1  0
 30 11  1  0
  1 34  1  0
  1 35  1  0
  1 36  1  0
  2 37  1  0
  2 38  1  0
  4 39  1  0
 10 40  1  0
 13 41  1  0
 16 42  1  0
 17 43  1  0
 20 44  1  0
 20 45  1  0
 22 46  1  1
 23 47  1  0
 23 48  1  0
 24 49  1  0
 24 50  1  0
 27 51  1  0
 32 52  1  0
M  END
>  <meeko>  (140) 
{"is_sidechain": [true], "free_energy": -11.22, "intermolecular_energy": 0.0, "internal_energy": -11.22, "cluster_size": 19, "cluster_id": 1, "rank_in_cluster": 1}

>  <_RMSD_MCS_to_ref>  (140) 
0.788166226122384

$$$$
ligand
     RDKit          3D

 47 50  0  0  0  0  0  0  0  0999 V2000
   18.9090   19.1540    7.5370 C   0  0  0  0  0  0  0  0  0  0  0  0
   18.7730   17.6460    7.6780 C   0  0  0  0  0  0  0  0  0  0  0  0
   19.9690   16.9240    7.1650 C   0  0  0  0  0  0  0  0  0  0  0  0
   21.0920   16.5020    7.8510 C   0  0  0  0  0  0  0  0  0  0  0  0
   21.8460   15.8720    6.9040 N   0  0  0  0  0  0  0  0  0  0  0  0
   23.4410   15.3650    7.0950 S   0  0  0  0  0  6  0  0  0  0  0  0
   24.2320   16.5790    7.0170 O   0  0  0  0  0  0  0  0  0  0  0  0
   23.6080   14.2900    6.1350 O   0  0  0  0  0  0  0  0  0  0  0  0
   23.5450   14.7550    8.6030 O   0  0  0  0  0  0  0  0  0  0  0  0
   23.9330   15.5090    9.6810 C   0  0  0  0  0  0  0  0  0  0  0  0
   25.2210   16.0510    9.5850 C   0  0  0  0  0  0  0  0  0  0  0  0
   25.7400   16.8400   10.6160 C   0  0  0  0  0  0  0  0  0  0  0  0
   24.9660   17.0890   11.7510 C   0  0  0  0  0  0  0  0  0  0  0  0
   25.4760   17.9140   12.8610 C   0  0  0  0  0  0  0  0  0  0  0  0
   26.6030   18.3960   12.7820 O   0  0  0  0  0  0  0  0  0  0  0  0
   24.6120   18.1100   13.9410 N   0  0  0  0  0  0  0  0  0  0  0  0
   25.1250   18.7980   15.1290 C   0  0  1  0  0  0  0  0  0  0  0  0
   26.2620   18.0440   15.8200 C   0  0  0  0  0  0  0  0  0  0  0  0
   26.7050   18.8160   17.0520 C   0  0  0  0  0  0  0  0  0  0  0  0
   27.1180   20.2230   16.6940 C   0  0  0  0  0  0  0  0  0  0  0  0
   27.9560   20.8450   17.3410 O   0  0  0  0  0  0  0  0  0  0  0  0
   26.4710   20.8020   15.6320 N   0  0  0  0  0  0  0  0  0  0  0  0
   25.5970   20.2070   14.7460 C   0  0  0  0  0  0  0  0  0  0  0  0
   25.2070   20.8360   13.7630 O   0  0  0  0  0  0  0  0  0  0  0  0
   23.3520   17.5530   14.0330 N   0  0  0  0  0  0  0  0  0  0  0  0
   22.9250   16.8270   13.0490 C   0  0  0  0  0  0  0  0  0  0  0  0
   23.6950   16.5470   11.8430 C   0  0  0  0  0  0  0  0  0  0  0  0
   23.1620   15.7570   10.8190 C   0  0  0  0  0  0  0  0  0  0  0  0
   21.2350   15.9880    5.6980 C   0  0  0  0  0  0  0  0  0  0  0  0
   20.0770   16.6020    5.8270 N   0  0  0  0  0  0  0  0  0  0  0  0
   18.9504   19.6134    8.5356 H   0  0  0  0  0  0  0  0  0  0  0  0
   19.8320   19.3891    6.9867 H   0  0  0  0  0  0  0  0  0  0  0  0
   18.0430   19.5504    6.9867 H   0  0  0  0  0  0  0  0  0  0  0  0
   18.6399   17.4001    8.7419 H   0  0  0  0  0  0  0  0  0  0  0  0
   17.9048   17.3278    7.0823 H   0  0  0  0  0  0  0  0  0  0  0  0
   21.3249   16.6420    8.9169 H   0  0  0  0  0  0  0  0  0  0  0  0
   25.8298   15.8541    8.6902 H   0  0  0  0  0  0  0  0  0  0  0  0
   26.7524   17.2622   10.5334 H   0  0  0  0  0  0  0  0  0  0  0  0
   24.2952   18.8504   15.8492 H   0  0  0  0  0  0  0  0  0  0  0  0
   25.9113   17.0453   16.1193 H   0  0  0  0  0  0  0  0  0  0  0  0
   27.1096   17.9417   15.1264 H   0  0  0  0  0  0  0  0  0  0  0  0
   25.8713   18.8579   17.7684 H   0  0  0  0  0  0  0  0  0  0  0  0
   27.5702   18.3004   17.4942 H   0  0  0  0  0  0  0  0  0  0  0  0
   26.6608   21.8025   15.4774 H   0  0  0  0  0  0  0  0  0  0  0  0
   21.9169   16.3940   13.1283 H   0  0  0  0  0  0  0  0  0  0  0  0
   22.1494   15.3368   10.9088 H   0  0  0  0  0  0  0  0  0  0  0  0
   21.6484   15.6211    4.7470 H   0  0  0  0  0  0  0  0  0  0  0  0
  1  2  1  0
  2  3  1  0
  3  4  2  0
  4  5  1  0
  5  6  1  0
  6  7  2  0
  6  8  2  0
  6  9  1  0
  9 10  1  0
 10 11  2  0
 11 12  1  0
 12 13  2  0
 13 14  1  0
 14 15  2  0
 14 16  1  0
 16 17  1  0
 17 18  1  0
 18 19  1  0
 19 20  1  0
 20 21  2  0
 20 22  1  0
 22 23  1  0
 23 24  2  0
 16 25  1  0
 25 26  2  0
 26 27  1  0
 27 28  2  0
  5 29  1  0
 29 30  2  0
 30  3  1  0
 28 10  1  0
 27 13  1  0
 23 17  1  0
  1 31  1  0
  1 32  1  0
  1 33  1  0
  2 34  1  0
  2 35  1  0
  4 36  1  0
 11 37  1  0
 12 38  1  0
 17 39  1  1
 18 40  1  0
 18 41  1  0
 19 42  1  0
 19 43  1  0
 22 44  1  0
 26 45  1  0
 28 46  1  0
 29 47  1  0
M  END
>  <meeko>  (141) 
{"is_sidechain": [true], "free_energy": -11.22, "intermolecular_energy": 0.0, "internal_energy": -11.22, "cluster_size": 20, "cluster_id": 1, "rank_in_cluster": 1}

>  <_RMSD_MCS_to_ref>  (141) 
0.68387076426926

$$$$
ligand
     RDKit          3D

 46 49  0  0  0  0  0  0  0  0999 V2000
   18.9090   19.1540    7.5370 C   0  0  0  0  0  0  0  0  0  0  0  0
   18.7730   17.6460    7.6780 C   0  0  0  0  0  0  0  0  0  0  0  0
   20.0900   16.9560    7.6290 C   0  0  0  0  0  0  0  0  0  0  0  0
   21.0380   16.8190    8.6240 C   0  0  0  0  0  0  0  0  0  0  0  0
   22.0320   16.0870    8.0400 N   0  0  0  0  0  0  0  0  0  0  0  0
   23.5070   15.6920    8.7330 S   0  0  0  0  0  6  0  0  0  0  0  0
   23.8220   14.3550    8.2630 O   0  0  0  0  0  0  0  0  0  0  0  0
   24.3830   16.8230    8.4930 O   0  0  0  0  0  0  0  0  0  0  0  0
   23.2260   15.5880   10.4840 C   0  0  0  0  0  0  0  0  0  0  0  0
   24.1960   16.0940   11.3400 C   0  0  0  0  0  0  0  0  0  0  0  0
   23.9630   16.0110   12.7170 C   0  0  0  0  0  0  0  0  0  0  0  0
   24.9190   16.5280   13.7240 C   0  0  0  0  0  0  0  0  0  0  0  0
   25.6050   15.7500   14.3730 O   0  0  0  0  0  0  0  0  0  0  0  0
   25.0050   17.8950   13.8580 N   0  0  0  0  0  0  0  0  0  0  0  0
   26.0130   18.5010   14.7220 C   0  0  2  0  0  0  0  0  0  0  0  0
   25.8200   18.1280   16.1880 C   0  0  0  0  0  0  0  0  0  0  0  0
   26.8700   18.8330   17.0320 C   0  0  0  0  0  0  0  0  0  0  0  0
   26.8320   20.3280   16.8220 C   0  0  0  0  0  0  0  0  0  0  0  0
   27.0850   21.1260   17.7190 O   0  0  0  0  0  0  0  0  0  0  0  0
   26.5280   20.7630   15.5560 N   0  0  0  0  0  0  0  0  0  0  0  0
   25.9160   20.0220   14.5780 C   0  0  0  0  0  0  0  0  0  0  0  0
   25.3330   20.5590   13.6350 O   0  0  0  0  0  0  0  0  0  0  0  0
   22.7510   15.4390   13.1420 C   0  0  0  0  0  0  0  0  0  0  0  0
   22.0790   15.1580   14.3500 C   0  0  0  0  0  0  0  0  0  0  0  0
   20.9000   14.5620   14.1520 N   0  0  0  0  0  0  0  0  0  0  0  0
   20.7760   14.4470   12.7720 O   0  0  0  0  0  0  0  0  0  0  0  0
   21.8780   14.9730   12.1690 C   0  0  0  0  0  0  0  0  0  0  0  0
   22.0540   15.0090   10.8330 N   0  0  0  0  0  0  0  0  0  0  0  0
   21.7030   15.8400    6.7460 C   0  0  0  0  0  0  0  0  0  0  0  0
   20.5170   16.3400    6.4680 N   0  0  0  0  0  0  0  0  0  0  0  0
   18.9504   19.6134    8.5356 H   0  0  0  0  0  0  0  0  0  0  0  0
   19.8320   19.3891    6.9867 H   0  0  0  0  0  0  0  0  0  0  0  0
   18.0430   19.5504    6.9867 H   0  0  0  0  0  0  0  0  0  0  0  0
   18.2915   17.4223    8.6414 H   0  0  0  0  0  0  0  0  0  0  0  0
   18.1690   17.2810    6.8342 H   0  0  0  0  0  0  0  0  0  0  0  0
   21.0009   17.2100    9.6515 H   0  0  0  0  0  0  0  0  0  0  0  0
   25.1188   16.5460   10.9473 H   0  0  0  0  0  0  0  0  0  0  0  0
   24.3492   18.4984   13.3416 H   0  0  0  0  0  0  0  0  0  0  0  0
   27.0003   18.1269   14.4134 H   0  0  0  0  0  0  0  0  0  0  0  0
   24.8169   18.4378   16.5163 H   0  0  0  0  0  0  0  0  0  0  0  0
   25.9242   17.0394   16.3065 H   0  0  0  0  0  0  0  0  0  0  0  0
   26.6810   18.6157   18.0936 H   0  0  0  0  0  0  0  0  0  0  0  0
   27.8617   18.4657   16.7292 H   0  0  0  0  0  0  0  0  0  0  0  0
   26.7824   21.7327   15.3196 H   0  0  0  0  0  0  0  0  0  0  0  0
   22.4810   15.4024   15.3443 H   0  0  0  0  0  0  0  0  0  0  0  0
   22.3384   15.2980    6.0301 H   0  0  0  0  0  0  0  0  0  0  0  0
  1  2  1  0
  2  3  1  0
  3  4  2  0
  4  5  1  0
  5  6  1  0
  6  7  2  0
  6  8  2  0
  6  9  1  0
  9 10  2  0
 10 11  1  0
 11 12  1  0
 12 13  2  0
 12 14  1  0
 14 15  1  0
 15 16  1  0
 16 17  1  0
 17 18  1  0
 18 19  2  0
 18 20  1  0
 20 21  1  0
 21 22  2  0
 11 23  2  0
 23 24  1  0
 24 25  2  0
 25 26  1  0
 26 27  1  0
 27 28  2  0
  5 29  1  0
 29 30  2  0
 30  3  1  0
 28  9  1  0
 21 15  1  0
 27 23  1  0
  1 31  1  0
  1 32  1  0
  1 33  1  0
  2 34  1  0
  2 35  1  0
  4 36  1  0
 10 37  1  0
 14 38  1  0
 15 39  1  6
 16 40  1  0
 16 41  1  0
 17 42  1  0
 17 43  1  0
 20 44  1  0
 24 45  1  0
 29 46  1  0
M  END
>  <meeko>  (142) 
{"is_sidechain": [true], "free_energy": -11.22, "intermolecular_energy": 0.0, "internal_energy": -11.22, "cluster_size": 20, "cluster_id": 1, "rank_in_cluster": 1}

>  <_RMSD_MCS_to_ref>  (142) 
0.777432669467624

$$$$
ligand
     RDKit          3D

 46 49  0  0  0  0  0  0  0  0999 V2000
   18.9090   19.1540    7.5370 C   0  0  0  0  0  0  0  0  0  0  0  0
   18.7730   17.6460    7.6780 C   0  0  0  0  0  0  0  0  0  0  0  0
   20.0940   16.9610    7.6750 C   0  0  0  0  0  0  0  0  0  0  0  0
   20.9410   16.7040    8.7360 C   0  0  0  0  0  0  0  0  0  0  0  0
   22.0030   16.0610    8.1670 N   0  0  0  0  0  0  0  0  0  0  0  0
   23.4370   15.6370    8.9350 S   0  0  0  0  0  6  0  0  0  0  0  0
   24.2680   16.8260    8.8440 O   0  0  0  0  0  0  0  0  0  0  0  0
   23.8270   14.3660    8.3490 O   0  0  0  0  0  0  0  0  0  0  0  0
   22.9710   15.3800   10.6340 C   0  0  0  0  0  0  0  0  0  0  0  0
   23.8480   15.8420   11.5430 N   0  0  0  0  0  0  0  0  0  0  0  0
   23.5110   15.6790   12.8480 C   0  0  0  0  0  0  0  0  0  0  0  0
   24.4830   16.1940   13.8570 C   0  0  0  0  0  0  0  0  0  0  0  0
   24.9710   15.4770   14.7210 O   0  0  0  0  0  0  0  0  0  0  0  0
   24.7890   17.5310   13.7300 N   0  0  0  0  0  0  0  0  0  0  0  0
   25.8160   18.1760   14.5310 C   0  0  2  0  0  0  0  0  0  0  0  0
   25.6230   17.9180   16.0210 C   0  0  0  0  0  0  0  0  0  0  0  0
   26.7110   18.6340   16.8050 C   0  0  0  0  0  0  0  0  0  0  0  0
   26.7330   20.1110   16.4900 C   0  0  0  0  0  0  0  0  0  0  0  0
   27.0440   20.9570   17.3230 O   0  0  0  0  0  0  0  0  0  0  0  0
   26.4190   20.4700   15.2030 N   0  0  0  0  0  0  0  0  0  0  0  0
   25.7790   19.6860   14.2750 C   0  0  0  0  0  0  0  0  0  0  0  0
   25.2310   20.1860   13.2930 O   0  0  0  0  0  0  0  0  0  0  0  0
   22.3070   15.0570   13.2080 C   0  0  0  0  0  0  0  0  0  0  0  0
   21.6700   14.7370   14.4570 C   0  0  0  0  0  0  0  0  0  0  0  0
   20.4550   14.1080   14.2920 C   0  0  0  0  0  0  0  0  0  0  0  0
   20.0670   13.8970   12.6410 S   0  0  0  0  0  0  0  0  0  0  0  0
   21.5170   14.6420   12.1450 C   0  0  0  0  0  0  0  0  0  0  0  0
   21.7920   14.7780   10.8370 N   0  0  0  0  0  0  0  0  0  0  0  0
   21.8010   15.9670    6.8270 C   0  0  0  0  0  0  0  0  0  0  0  0
   20.6430   16.4960    6.4950 N   0  0  0  0  0  0  0  0  0  0  0  0
   18.9504   19.6134    8.5356 H   0  0  0  0  0  0  0  0  0  0  0  0
   19.8320   19.3891    6.9867 H   0  0  0  0  0  0  0  0  0  0  0  0
   18.0430   19.5504    6.9867 H   0  0  0  0  0  0  0  0  0  0  0  0
   18.2604   17.4234    8.6255 H   0  0  0  0  0  0  0  0  0  0  0  0
   18.1983   17.2762    6.8161 H   0  0  0  0  0  0  0  0  0  0  0  0
   20.7937   16.9589    9.7959 H   0  0  0  0  0  0  0  0  0  0  0  0
   24.2705   18.0949   13.0415 H   0  0  0  0  0  0  0  0  0  0  0  0
   26.7882   17.7535   14.2371 H   0  0  0  0  0  0  0  0  0  0  0  0
   24.6378   18.2945   16.3336 H   0  0  0  0  0  0  0  0  0  0  0  0
   25.6817   16.8371   16.2163 H   0  0  0  0  0  0  0  0  0  0  0  0
   26.5247   18.4998   17.8808 H   0  0  0  0  0  0  0  0  0  0  0  0
   27.6831   18.2041   16.5217 H   0  0  0  0  0  0  0  0  0  0  0  0
   26.6893   21.4181   14.9048 H   0  0  0  0  0  0  0  0  0  0  0  0
   22.1062   14.9696   15.4396 H   0  0  0  0  0  0  0  0  0  0  0  0
   19.8124   13.7811   15.1228 H   0  0  0  0  0  0  0  0  0  0  0  0
   22.5077   15.5116    6.1177 H   0  0  0  0  0  0  0  0  0  0  0  0
  1  2  1  0
  2  3  1  0
  3  4  2  0
  4  5  1  0
  5  6  1  0
  6  7  2  0
  6  8  2  0
  6  9  1  0
  9 10  2  0
 10 11  1  0
 11 12  1  0
 12 13  2  0
 12 14  1  0
 14 15  1  0
 15 16  1  0
 16 17  1  0
 17 18  1  0
 18 19  2  0
 18 20  1  0
 20 21  1  0
 21 22  2  0
 11 23  2  0
 23 24  1  0
 24 25  2  0
 25 26  1  0
 26 27  1  0
 27 28  2  0
  5 29  1  0
 29 30  2  0
 30  3  1  0
 28  9  1  0
 21 15  1  0
 27 23  1  0
  1 31  1  0
  1 32  1  0
  1 33  1  0
  2 34  1  0
  2 35  1  0
  4 36  1  0
 14 37  1  0
 15 38  1  6
 16 39  1  0
 16 40  1  0
 17 41  1  0
 17 42  1  0
 20 43  1  0
 24 44  1  0
 25 45  1  0
 29 46  1  0
M  END
>  <meeko>  (143) 
{"is_sidechain": [true], "free_energy": -11.22, "intermolecular_energy": 0.0, "internal_energy": -11.22, "cluster_size": 19, "cluster_id": 1, "rank_in_cluster": 1}

>  <_RMSD_MCS_to_ref>  (143) 
0.5531672441495428

$$$$
ligand
     RDKit          3D

 53 56  0  0  0  0  0  0  0  0999 V2000
   18.7970   18.8170    7.7190 C   0  0  0  0  0  0  0  0  0  0  0  0
   18.5280   17.3290    7.8810 C   0  0  0  0  0  0  0  0  0  0  0  0
   19.7460   16.5090    7.6380 C   0  0  0  0  0  0  0  0  0  0  0  0
   20.4770   15.7530    8.5350 C   0  0  0  0  0  0  0  0  0  0  0  0
   21.4800   15.2180    7.7800 N   0  0  0  0  0  0  0  0  0  0  0  0
   22.7700   14.3040    8.3480 S   0  0  0  0  0  6  0  0  0  0  0  0
   22.3020   12.9300    8.3540 O   0  0  0  0  0  0  0  0  0  0  0  0
   23.9140   14.7280    7.5600 O   0  0  0  0  0  0  0  0  0  0  0  0
   23.0360   14.8070   10.0220 C   0  0  0  0  0  0  0  0  0  0  0  0
   24.0870   15.6400   10.1610 N   0  0  0  0  0  0  0  0  0  0  0  0
   24.4030   16.0990   11.4000 N   0  0  0  0  0  0  0  0  0  0  0  0
   23.6780   15.7030   12.4830 C   0  0  0  0  0  0  0  0  0  0  0  0
   24.1330   16.3360   13.7730 C   0  0  0  0  0  0  0  0  0  0  0  0
   24.0570   15.7700   14.8570 O   0  0  0  0  0  0  0  0  0  0  0  0
   24.6270   17.6210   13.6510 N   0  0  0  0  0  0  0  0  0  0  0  0
   24.9630   18.4360   14.8070 C   0  0  1  0  0  0  0  0  0  0  0  0
   25.9610   17.7390   15.7250 C   0  0  0  0  0  0  0  0  0  0  0  0
   26.2900   18.6460   16.9010 C   0  0  0  0  0  0  0  0  0  0  0  0
   26.8010   19.9880   16.4320 C   0  0  0  0  0  0  0  0  0  0  0  0
   27.6360   20.6310   17.0620 O   0  0  0  0  0  0  0  0  0  0  0  0
   26.2590   20.4810   15.2720 N   0  0  0  0  0  0  0  0  0  0  0  0
   25.5640   19.7630   14.3300 C   0  0  0  0  0  0  0  0  0  0  0  0
   25.4260   20.1880   13.1850 O   0  0  0  0  0  0  0  0  0  0  0  0
   22.6040   14.8090   12.3760 C   0  0  0  0  0  0  0  0  0  0  0  0
   22.2430   14.3700   11.0820 C   0  0  0  0  0  0  0  0  0  0  0  0
   21.0860   13.4250   10.8640 C   0  0  0  0  0  0  0  0  0  0  0  0
   20.1250   13.3610   12.0460 C   0  0  0  0  0  0  0  0  0  0  0  0
   20.9010   13.1660   13.3350 C   0  0  0  0  0  0  0  0  0  0  0  0
   21.8230   14.3570   13.5900 C   0  0  0  0  0  0  0  0  0  0  0  0
   21.3660   15.6640    6.5030 C   0  0  0  0  0  0  0  0  0  0  0  0
   20.3090   16.4420    6.3790 N   0  0  0  0  0  0  0  0  0  0  0  0
   18.8815   19.2845    8.7111 H   0  0  0  0  0  0  0  0  0  0  0  0
   19.7359   18.9616    7.1643 H   0  0  0  0  0  0  0  0  0  0  0  0
   17.9682   19.2812    7.1643 H   0  0  0  0  0  0  0  0  0  0  0  0
   18.1736   17.1423    8.9055 H   0  0  0  0  0  0  0  0  0  0  0  0
   17.7712   17.0392    7.1372 H   0  0  0  0  0  0  0  0  0  0  0  0
   20.2926   15.6144    9.6105 H   0  0  0  0  0  0  0  0  0  0  0  0
   24.7617   18.0147   12.7088 H   0  0  0  0  0  0  0  0  0  0  0  0
   24.0389   18.6083   15.3783 H   0  0  0  0  0  0  0  0  0  0  0  0
   25.5233   16.8009   16.0971 H   0  0  0  0  0  0  0  0  0  0  0  0
   26.8814   17.5182   15.1645 H   0  0  0  0  0  0  0  0  0  0  0  0
   25.3810   18.7984   17.5014 H   0  0  0  0  0  0  0  0  0  0  0  0
   27.0764   18.1652   17.5014 H   0  0  0  0  0  0  0  0  0  0  0  0
   26.3856   21.4869   15.0901 H   0  0  0  0  0  0  0  0  0  0  0  0
   20.5264   13.7577    9.9774 H   0  0  0  0  0  0  0  0  0  0  0  0
   21.5093   12.4180   10.7350 H   0  0  0  0  0  0  0  0  0  0  0  0
   19.5542   14.2996   12.1028 H   0  0  0  0  0  0  0  0  0  0  0  0
   19.4370   12.5141   11.9068 H   0  0  0  0  0  0  0  0  0  0  0  0
   20.1939   13.0699   14.1721 H   0  0  0  0  0  0  0  0  0  0  0  0
   21.5120   12.2554   13.2481 H   0  0  0  0  0  0  0  0  0  0  0  0
   21.2085   15.2003   13.9383 H   0  0  0  0  0  0  0  0  0  0  0  0
   22.5616   14.0301   14.3367 H   0  0  0  0  0  0  0  0  0  0  0  0
   22.0584   15.4117    5.6863 H   0  0  0  0  0  0  0  0  0  0  0  0
  1  2  1  0
  2  3  1  0
  3  4  2  0
  4  5  1  0
  5  6  1  0
  6  7  2  0
  6  8  2  0
  6  9  1  0
  9 10  2  0
 10 11  1  0
 11 12  2  0
 12 13  1  0
 13 14  2  0
 13 15  1  0
 15 16  1  0
 16 17  1  0
 17 18  1  0
 18 19  1  0
 19 20  2  0
 19 21  1  0
 21 22  1  0
 22 23  2  0
 12 24  1  0
 24 25  2  0
 25 26  1  0
 26 27  1  0
 27 28  1  0
 28 29  1  0
  5 30  1  0
 30 31  2  0
 31  3  1  0
 25  9  1  0
 22 16  1  0
 29 24  1  0
  1 32  1  0
  1 33  1  0
  1 34  1  0
  2 35  1  0
  2 36  1  0
  4 37  1  0
 15 38  1  0
 16 39  1  1
 17 40  1  0
 17 41  1  0
 18 42  1  0
 18 43  1  0
 21 44  1  0
 26 45  1  0
 26 46  1  0
 27 47  1  0
 27 48  1  0
 28 49  1  0
 28 50  1  0
 29 51  1  0
 29 52  1  0
 30 53  1  0
M  END
>  <meeko>  (144) 
{"is_sidechain": [true], "free_energy": -11.21, "intermolecular_energy": 0.0, "internal_energy": -11.21, "cluster_size": 14, "cluster_id": 1, "rank_in_cluster": 1}

>  <_RMSD_MCS_to_ref>  (144) 
0.3279962736915702

$$$$
ligand
     RDKit          3D

 48 51  0  0  0  0  0  0  0  0999 V2000
   18.9090   19.1540    7.5370 C   0  0  0  0  0  0  0  0  0  0  0  0
   18.7730   17.6460    7.6780 C   0  0  0  0  0  0  0  0  0  0  0  0
   20.0100   16.9290    7.2640 C   0  0  0  0  0  0  0  0  0  0  0  0
   21.0800   16.5240    8.0370 C   0  0  0  0  0  0  0  0  0  0  0  0
   21.9170   15.9080    7.1520 N   0  0  0  0  0  0  0  0  0  0  0  0
   23.4810   15.4050    7.4810 S   0  0  0  0  0  6  0  0  0  0  0  0
   24.3670   16.2400    6.6990 O   0  0  0  0  0  0  0  0  0  0  0  0
   23.4670   13.9590    7.3990 O   0  0  0  0  0  0  0  0  0  0  0  0
   23.8510   15.7450    9.1530 C   0  0  0  0  0  0  0  0  0  0  0  0
   24.9310   16.5320    9.4490 N   0  0  0  0  0  0  0  0  0  0  0  0
   25.1710   16.6960   10.7620 N   0  0  0  0  0  0  0  0  0  0  0  0
   24.1840   16.0220   11.3850 C   0  0  0  0  0  0  0  0  0  0  0  0
   23.9070   15.8410   12.7570 C   0  0  0  0  0  0  0  0  0  0  0  0
   24.7190   16.4000   13.8520 C   0  0  0  0  0  0  0  0  0  0  0  0
   24.8700   15.7660   14.8910 O   0  0  0  0  0  0  0  0  0  0  0  0
   25.2880   17.6330   13.6410 N   0  0  0  0  0  0  0  0  0  0  0  0
   26.1910   18.2460   14.5980 C   0  0  2  0  0  0  0  0  0  0  0  0
   25.7390   18.0080   16.0350 C   0  0  0  0  0  0  0  0  0  0  0  0
   26.7150   18.6740   16.9920 C   0  0  0  0  0  0  0  0  0  0  0  0
   26.8610   20.1460   16.6880 C   0  0  0  0  0  0  0  0  0  0  0  0
   27.0650   20.9810   17.5630 O   0  0  0  0  0  0  0  0  0  0  0  0
   26.7890   20.5110   15.3680 N   0  0  0  0  0  0  0  0  0  0  0  0
   26.2710   19.7560   14.3420 C   0  0  0  0  0  0  0  0  0  0  0  0
   25.9230   20.2870   13.2880 O   0  0  0  0  0  0  0  0  0  0  0  0
   22.7580   15.0530   13.0140 C   0  0  0  0  0  0  0  0  0  0  0  0
   21.9430   14.4870   11.9850 C   0  0  0  0  0  0  0  0  0  0  0  0
   22.1940   14.6470   10.6080 C   0  0  0  0  0  0  0  0  0  0  0  0
   23.3290   15.4210   10.3810 C   0  0  0  0  0  0  0  0  0  0  0  0
   21.3850   15.9850    5.9060 C   0  0  0  0  0  0  0  0  0  0  0  0
   20.2170   16.5920    5.9410 N   0  0  0  0  0  0  0  0  0  0  0  0
   18.9504   19.6134    8.5356 H   0  0  0  0  0  0  0  0  0  0  0  0
   19.8320   19.3891    6.9867 H   0  0  0  0  0  0  0  0  0  0  0  0
   18.0430   19.5504    6.9867 H   0  0  0  0  0  0  0  0  0  0  0  0
   18.5599   17.4063    8.7302 H   0  0  0  0  0  0  0  0  0  0  0  0
   17.9556   17.3175    7.0192 H   0  0  0  0  0  0  0  0  0  0  0  0
   21.2248   16.6654    9.1182 H   0  0  0  0  0  0  0  0  0  0  0  0
   25.5160   16.9660    8.7208 H   0  0  0  0  0  0  0  0  0  0  0  0
   25.0657   18.1404   12.7726 H   0  0  0  0  0  0  0  0  0  0  0  0
   27.1797   17.7824   14.4656 H   0  0  0  0  0  0  0  0  0  0  0  0
   24.7356   18.4352   16.1790 H   0  0  0  0  0  0  0  0  0  0  0  0
   25.7103   16.9268   16.2353 H   0  0  0  0  0  0  0  0  0  0  0  0
   26.3455   18.5553   18.0212 H   0  0  0  0  0  0  0  0  0  0  0  0
   27.6985   18.1954   16.8748 H   0  0  0  0  0  0  0  0  0  0  0  0
   27.1585   21.4402   15.1213 H   0  0  0  0  0  0  0  0  0  0  0  0
   22.4781   14.8668   14.0614 H   0  0  0  0  0  0  0  0  0  0  0  0
   21.0685   13.8915   12.2860 H   0  0  0  0  0  0  0  0  0  0  0  0
   21.5709   14.2144    9.8114 H   0  0  0  0  0  0  0  0  0  0  0  0
   21.8623   15.5952    4.9949 H   0  0  0  0  0  0  0  0  0  0  0  0
  1  2  1  0
  2  3  1  0
  3  4  2  0
  4  5  1  0
  5  6  1  0
  6  7  2  0
  6  8  2  0
  6  9  1  0
  9 10  1  0
 10 11  1  0
 11 12  2  0
 12 13  1  0
 13 14  1  0
 14 15  2  0
 14 16  1  0
 16 17  1  0
 17 18  1  0
 18 19  1  0
 19 20  1  0
 20 21  2  0
 20 22  1  0
 22 23  1  0
 23 24  2  0
 13 25  2  0
 25 26  1  0
 26 27  2  0
 27 28  1  0
  5 29  1  0
 29 30  2  0
 30  3  1  0
 28  9  2  0
 28 12  1  0
 23 17  1  0
  1 31  1  0
  1 32  1  0
  1 33  1  0
  2 34  1  0
  2 35  1  0
  4 36  1  0
 10 37  1  0
 16 38  1  0
 17 39  1  1
 18 40  1  0
 18 41  1  0
 19 42  1  0
 19 43  1  0
 22 44  1  0
 25 45  1  0
 26 46  1  0
 27 47  1  0
 29 48  1  0
M  END
>  <meeko>  (145) 
{"is_sidechain": [true], "free_energy": -11.21, "intermolecular_energy": 0.0, "internal_energy": -11.21, "cluster_size": 9, "cluster_id": 1, "rank_in_cluster": 1}

>  <_RMSD_MCS_to_ref>  (145) 
0.8688266672805208

$$$$
ligand
     RDKit          3D

 47 50  0  0  0  0  0  0  0  0999 V2000
   18.9090   19.1540    7.5370 C   0  0  0  0  0  0  0  0  0  0  0  0
   18.7730   17.6460    7.6780 C   0  0  0  0  0  0  0  0  0  0  0  0
   20.0950   16.9620    7.6870 C   0  0  0  0  0  0  0  0  0  0  0  0
   20.8280   16.5050    8.7640 C   0  0  0  0  0  0  0  0  0  0  0  0
   21.9430   15.9520    8.2000 N   0  0  0  0  0  0  0  0  0  0  0  0
   23.2950   15.4010    9.0230 S   0  0  0  0  0  6  0  0  0  0  0  0
   23.5180   14.0460    8.5460 O   0  0  0  0  0  0  0  0  0  0  0  0
   24.2900   16.4510    8.8900 O   0  0  0  0  0  0  0  0  0  0  0  0
   22.8750   15.2880   10.7780 C   0  0  0  0  0  0  0  0  0  0  0  0
   23.8080   15.7640   11.6900 N   0  0  0  0  0  0  0  0  0  0  0  0
   23.5180   15.6790   12.9510 C   0  0  0  0  0  0  0  0  0  0  0  0
   24.5200   16.1940   13.9830 C   0  0  0  0  0  0  0  0  0  0  0  0
   25.0940   15.4400   14.7510 O   0  0  0  0  0  0  0  0  0  0  0  0
   24.7140   17.5570   13.9310 N   0  0  0  0  0  0  0  0  0  0  0  0
   25.7720   18.2070   14.6880 C   0  0  2  0  0  0  0  0  0  0  0  0
   25.6490   17.9470   16.1850 C   0  0  0  0  0  0  0  0  0  0  0  0
   26.7610   18.6800   16.9200 C   0  0  0  0  0  0  0  0  0  0  0  0
   26.7470   20.1570   16.6040 C   0  0  0  0  0  0  0  0  0  0  0  0
   27.0780   21.0080   17.4240 O   0  0  0  0  0  0  0  0  0  0  0  0
   26.3770   20.5090   15.3320 N   0  0  0  0  0  0  0  0  0  0  0  0
   25.7050   19.7160   14.4340 C   0  0  0  0  0  0  0  0  0  0  0  0
   25.1060   20.2040   13.4770 O   0  0  0  0  0  0  0  0  0  0  0  0
   22.2740   15.1320   13.3650 C   0  0  0  0  0  0  0  0  0  0  0  0
   21.6580   14.9120   14.5800 C   0  0  0  0  0  0  0  0  0  0  0  0
   20.3960   14.3290   14.3020 C   0  0  0  0  0  0  0  0  0  0  0  0
   20.2920   14.2180   12.9320 C   0  0  0  0  0  0  0  0  0  0  0  0
   21.4400   14.7090   12.3790 N   0  0  0  0  0  0  0  0  0  0  0  0
   21.7150   14.7730   11.0690 N   0  0  0  0  0  0  0  0  0  0  0  0
   21.8910   16.1240    6.8530 C   0  0  0  0  0  0  0  0  0  0  0  0
   20.7700   16.7190    6.5060 N   0  0  0  0  0  0  0  0  0  0  0  0
   18.9504   19.6134    8.5356 H   0  0  0  0  0  0  0  0  0  0  0  0
   19.8320   19.3891    6.9867 H   0  0  0  0  0  0  0  0  0  0  0  0
   18.0430   19.5504    6.9867 H   0  0  0  0  0  0  0  0  0  0  0  0
   18.2524   17.4237    8.6211 H   0  0  0  0  0  0  0  0  0  0  0  0
   18.2060   17.2750    6.8115 H   0  0  0  0  0  0  0  0  0  0  0  0
   20.5728   16.5710    9.8319 H   0  0  0  0  0  0  0  0  0  0  0  0
   24.0940   18.1301   13.3410 H   0  0  0  0  0  0  0  0  0  0  0  0
   26.7343   17.7917   14.3540 H   0  0  0  0  0  0  0  0  0  0  0  0
   24.6733   18.3092   16.5411 H   0  0  0  0  0  0  0  0  0  0  0  0
   25.7319   16.8672   16.3776 H   0  0  0  0  0  0  0  0  0  0  0  0
   26.6250   18.5440   18.0031 H   0  0  0  0  0  0  0  0  0  0  0  0
   27.7257   18.2642   16.5937 H   0  0  0  0  0  0  0  0  0  0  0  0
   26.6266   21.4583   15.0199 H   0  0  0  0  0  0  0  0  0  0  0  0
   22.0677   15.1445   15.5740 H   0  0  0  0  0  0  0  0  0  0  0  0
   19.6412   14.0226   15.0411 H   0  0  0  0  0  0  0  0  0  0  0  0
   19.4341   13.8059   12.3805 H   0  0  0  0  0  0  0  0  0  0  0  0
   22.6768   15.8095    6.1505 H   0  0  0  0  0  0  0  0  0  0  0  0
  1  2  1  0
  2  3  1  0
  3  4  2  0
  4  5  1  0
  5  6  1  0
  6  7  2  0
  6  8  2  0
  6  9  1  0
  9 10  1  0
 10 11  2  0
 11 12  1  0
 12 13  2  0
 12 14  1  0
 14 15  1  0
 15 16  1  0
 16 17  1  0
 17 18  1  0
 18 19  2  0
 18 20  1  0
 20 21  1  0
 21 22  2  0
 11 23  1  0
 23 24  2  0
 24 25  1  0
 25 26  2  0
 26 27  1  0
 27 28  1  0
  5 29  1  0
 29 30  2  0
 30  3  1  0
 28  9  2  0
 21 15  1  0
 27 23  1  0
  1 31  1  0
  1 32  1  0
  1 33  1  0
  2 34  1  0
  2 35  1  0
  4 36  1  0
 14 37  1  0
 15 38  1  6
 16 39  1  0
 16 40  1  0
 17 41  1  0
 17 42  1  0
 20 43  1  0
 24 44  1  0
 25 45  1  0
 26 46  1  0
 29 47  1  0
M  END
>  <meeko>  (146) 
{"is_sidechain": [true], "free_energy": -11.21, "intermolecular_energy": 0.0, "internal_energy": -11.21, "cluster_size": 19, "cluster_id": 1, "rank_in_cluster": 1}

>  <_RMSD_MCS_to_ref>  (146) 
0.5530187860984261

$$$$
ligand
     RDKit          3D

 50 53  0  0  0  0  0  0  0  0999 V2000
   18.9090   19.1540    7.5370 C   0  0  0  0  0  0  0  0  0  0  0  0
   18.7730   17.6460    7.6780 C   0  0  0  0  0  0  0  0  0  0  0  0
   20.0840   16.9510    7.5620 C   0  0  0  0  0  0  0  0  0  0  0  0
   21.0900   16.8340    8.5020 C   0  0  0  0  0  0  0  0  0  0  0  0
   22.0570   16.1100    7.8680 N   0  0  0  0  0  0  0  0  0  0  0  0
   23.4250   15.4470    8.5840 S   0  0  0  0  0  6  0  0  0  0  0  0
   24.4750   16.4370    8.4530 O   0  0  0  0  0  0  0  0  0  0  0  0
   23.5400   14.1100    8.0360 O   0  0  0  0  0  0  0  0  0  0  0  0
   22.9950   15.3200   10.2990 C   0  0  0  0  0  0  0  0  0  0  0  0
   23.8730   15.7950   11.2670 C   0  0  0  0  0  0  0  0  0  0  0  0
   23.5390   15.6980   12.6320 C   0  0  0  0  0  0  0  0  0  0  0  0
   24.5400   16.2590   13.5940 C   0  0  0  0  0  0  0  0  0  0  0  0
   25.1780   15.5030   14.3210 O   0  0  0  0  0  0  0  0  0  0  0  0
   24.7110   17.6210   13.6260 N   0  0  0  0  0  0  0  0  0  0  0  0
   25.7490   18.2610   14.4150 C   0  0  2  0  0  0  0  0  0  0  0  0
   25.6060   17.9480   15.9020 C   0  0  0  0  0  0  0  0  0  0  0  0
   26.7110   18.6470   16.6770 C   0  0  0  0  0  0  0  0  0  0  0  0
   26.7060   20.1350   16.4150 C   0  0  0  0  0  0  0  0  0  0  0  0
   27.0300   20.9550   17.2690 O   0  0  0  0  0  0  0  0  0  0  0  0
   26.3520   20.5350   15.1520 N   0  0  0  0  0  0  0  0  0  0  0  0
   25.6840   19.7810   14.2160 C   0  0  0  0  0  0  0  0  0  0  0  0
   25.1010   20.3210   13.2780 O   0  0  0  0  0  0  0  0  0  0  0  0
   22.3280   15.1130   13.0440 C   0  0  0  0  0  0  0  0  0  0  0  0
   21.9800   15.0100   14.3500 N   0  0  0  0  0  0  0  0  0  0  0  0
   20.7980   14.4440   14.6830 C   0  0  0  0  0  0  0  0  0  0  0  0
   19.9060   13.9440   13.7600 C   0  0  0  0  0  0  0  0  0  0  0  0
   20.2460   14.0370   12.4180 C   0  0  0  0  0  0  0  0  0  0  0  0
   21.4600   14.6260   12.0360 C   0  0  0  0  0  0  0  0  0  0  0  0
   21.7950   14.7260   10.6770 C   0  0  0  0  0  0  0  0  0  0  0  0
   21.6240   15.7820    6.6230 C   0  0  0  0  0  0  0  0  0  0  0  0
   20.4300   16.2870    6.4020 N   0  0  0  0  0  0  0  0  0  0  0  0
   18.9504   19.6134    8.5356 H   0  0  0  0  0  0  0  0  0  0  0  0
   19.8320   19.3891    6.9867 H   0  0  0  0  0  0  0  0  0  0  0  0
   18.0430   19.5504    6.9867 H   0  0  0  0  0  0  0  0  0  0  0  0
   18.3379   17.4199    8.6627 H   0  0  0  0  0  0  0  0  0  0  0  0
   18.1268   17.2871    6.8634 H   0  0  0  0  0  0  0  0  0  0  0  0
   21.1072   17.2332    9.5269 H   0  0  0  0  0  0  0  0  0  0  0  0
   24.8297   16.2471   10.9664 H   0  0  0  0  0  0  0  0  0  0  0  0
   24.0782   18.2122   13.0684 H   0  0  0  0  0  0  0  0  0  0  0  0
   26.7175   17.8683   14.0719 H   0  0  0  0  0  0  0  0  0  0  0  0
   24.6277   18.3025   16.2586 H   0  0  0  0  0  0  0  0  0  0  0  0
   25.6816   16.8615   16.0563 H   0  0  0  0  0  0  0  0  0  0  0  0
   26.5609   18.4717   17.7525 H   0  0  0  0  0  0  0  0  0  0  0  0
   27.6782   18.2390   16.3484 H   0  0  0  0  0  0  0  0  0  0  0  0
   26.6117   21.4933   14.8778 H   0  0  0  0  0  0  0  0  0  0  0  0
   20.5344   14.3793   15.7490 H   0  0  0  0  0  0  0  0  0  0  0  0
   18.9568   13.4867   14.0760 H   0  0  0  0  0  0  0  0  0  0  0  0
   19.5607   13.6473   11.6509 H   0  0  0  0  0  0  0  0  0  0  0  0
   21.1092   14.3350    9.9110 H   0  0  0  0  0  0  0  0  0  0  0  0
   22.1927   15.1782    5.9005 H   0  0  0  0  0  0  0  0  0  0  0  0
  1  2  1  0
  2  3  1  0
  3  4  2  0
  4  5  1  0
  5  6  1  0
  6  7  2  0
  6  8  2  0
  6  9  1  0
  9 10  2  0
 10 11  1  0
 11 12  1  0
 12 13  2  0
 12 14  1  0
 14 15  1  0
 15 16  1  0
 16 17  1  0
 17 18  1  0
 18 19  2  0
 18 20  1  0
 20 21  1  0
 21 22  2  0
 11 23  2  0
 23 24  1  0
 24 25  2  0
 25 26  1  0
 26 27  2  0
 27 28  1  0
 28 29  2  0
  5 30  1  0
 30 31  2  0
 31  3  1  0
 29  9  1  0
 21 15  1  0
 28 23  1  0
  1 32  1  0
  1 33  1  0
  1 34  1  0
  2 35  1  0
  2 36  1  0
  4 37  1  0
 10 38  1  0
 14 39  1  0
 15 40  1  6
 16 41  1  0
 16 42  1  0
 17 43  1  0
 17 44  1  0
 20 45  1  0
 25 46  1  0
 26 47  1  0
 27 48  1  0
 29 49  1  0
 30 50  1  0
M  END
>  <meeko>  (147) 
{"is_sidechain": [true], "free_energy": -11.21, "intermolecular_energy": 0.0, "internal_energy": -11.21, "cluster_size": 20, "cluster_id": 1, "rank_in_cluster": 1}

>  <_RMSD_MCS_to_ref>  (147) 
0.5135054906122118

$$$$
ligand
     RDKit          3D

 53 56  0  0  0  0  0  0  0  0999 V2000
   18.9090   19.1540    7.5370 C   0  0  0  0  0  0  0  0  0  0  0  0
   18.7730   17.6460    7.6780 C   0  0  0  0  0  0  0  0  0  0  0  0
   20.0820   16.9500    7.5520 C   0  0  0  0  0  0  0  0  0  0  0  0
   21.0970   16.8300    8.4810 C   0  0  0  0  0  0  0  0  0  0  0  0
   22.0640   16.1190    7.8310 N   0  0  0  0  0  0  0  0  0  0  0  0
   23.4560   15.4900    8.5310 S   0  0  0  0  0  6  0  0  0  0  0  0
   24.4730   16.5100    8.3640 O   0  0  0  0  0  0  0  0  0  0  0  0
   23.6050   14.1490    8.0030 O   0  0  0  0  0  0  0  0  0  0  0  0
   23.0490   15.3790   10.2510 C   0  0  0  0  0  0  0  0  0  0  0  0
   21.8260   14.8300   10.6330 C   0  0  0  0  0  0  0  0  0  0  0  0
   21.4970   14.7590   11.9860 C   0  0  0  0  0  0  0  0  0  0  0  0
   22.3970   15.1890   12.9750 C   0  0  0  0  0  0  0  0  0  0  0  0
   23.6330   15.7330   12.5700 C   0  0  0  0  0  0  0  0  0  0  0  0
   24.6110   16.2470   13.5660 C   0  0  0  0  0  0  0  0  0  0  0  0
   25.2230   15.4840   14.3000 O   0  0  0  0  0  0  0  0  0  0  0  0
   24.7730   17.6140   13.5850 N   0  0  0  0  0  0  0  0  0  0  0  0
   25.8060   18.2380   14.4010 C   0  0  2  0  0  0  0  0  0  0  0  0
   25.6320   17.9290   15.8840 C   0  0  0  0  0  0  0  0  0  0  0  0
   26.7170   18.6390   16.6790 C   0  0  0  0  0  0  0  0  0  0  0  0
   26.7120   20.1250   16.4090 C   0  0  0  0  0  0  0  0  0  0  0  0
   27.0100   20.9520   17.2660 O   0  0  0  0  0  0  0  0  0  0  0  0
   26.3850   20.5180   15.1350 N   0  0  0  0  0  0  0  0  0  0  0  0
   25.7430   19.7540   14.1940 C   0  0  0  0  0  0  0  0  0  0  0  0
   25.1670   20.2710   13.2360 O   0  0  0  0  0  0  0  0  0  0  0  0
   23.9600   15.8270   11.2090 C   0  0  0  0  0  0  0  0  0  0  0  0
   22.0210   15.0650   14.4290 C   0  0  0  0  0  0  0  0  0  0  0  0
   20.8480   14.1140   14.6180 C   0  0  0  0  0  0  0  0  0  0  0  0
   19.7880   14.4370   13.5830 C   0  0  0  0  0  0  0  0  0  0  0  0
   20.2690   14.2140   12.2540 O   0  0  0  0  0  0  0  0  0  0  0  0
   21.6190   15.7900    6.5920 C   0  0  0  0  0  0  0  0  0  0  0  0
   20.4190   16.2910    6.3860 N   0  0  0  0  0  0  0  0  0  0  0  0
   18.9504   19.6134    8.5356 H   0  0  0  0  0  0  0  0  0  0  0  0
   19.8320   19.3891    6.9867 H   0  0  0  0  0  0  0  0  0  0  0  0
   18.0430   19.5504    6.9867 H   0  0  0  0  0  0  0  0  0  0  0  0
   18.3449   17.4196    8.6657 H   0  0  0  0  0  0  0  0  0  0  0  0
   18.1207   17.2883    6.8677 H   0  0  0  0  0  0  0  0  0  0  0  0
   21.1207   17.2187    9.5098 H   0  0  0  0  0  0  0  0  0  0  0  0
   21.1253   14.4554    9.8723 H   0  0  0  0  0  0  0  0  0  0  0  0
   24.1536   18.2054   13.0128 H   0  0  0  0  0  0  0  0  0  0  0  0
   26.7800   17.8335   14.0885 H   0  0  0  0  0  0  0  0  0  0  0  0
   24.6440   18.2786   16.2182 H   0  0  0  0  0  0  0  0  0  0  0  0
   25.7097   16.8436   16.0446 H   0  0  0  0  0  0  0  0  0  0  0  0
   26.5441   18.4692   17.7520 H   0  0  0  0  0  0  0  0  0  0  0  0
   27.6928   18.2339   16.3730 H   0  0  0  0  0  0  0  0  0  0  0  0
   26.6460   21.4757   14.8602 H   0  0  0  0  0  0  0  0  0  0  0  0
   24.9268   16.2505   10.8992 H   0  0  0  0  0  0  0  0  0  0  0  0
   22.8859   14.6833   14.9914 H   0  0  0  0  0  0  0  0  0  0  0  0
   21.7250   16.0585   14.7969 H   0  0  0  0  0  0  0  0  0  0  0  0
   21.1883   13.0761   14.4877 H   0  0  0  0  0  0  0  0  0  0  0  0
   20.4314   14.2295   15.6295 H   0  0  0  0  0  0  0  0  0  0  0  0
   18.9106   13.7970   13.7579 H   0  0  0  0  0  0  0  0  0  0  0  0
   19.5223   15.5000   13.6805 H   0  0  0  0  0  0  0  0  0  0  0  0
   22.1817   15.1892    5.8623 H   0  0  0  0  0  0  0  0  0  0  0  0
  1  2  1  0
  2  3  1  0
  3  4  2  0
  4  5  1  0
  5  6  1  0
  6  7  2  0
  6  8  2  0
  6  9  1  0
  9 10  2  0
 10 11  1  0
 11 12  2  0
 12 13  1  0
 13 14  1  0
 14 15  2  0
 14 16  1  0
 16 17  1  0
 17 18  1  0
 18 19  1  0
 19 20  1  0
 20 21  2  0
 20 22  1  0
 22 23  1  0
 23 24  2  0
 13 25  2  0
 12 26  1  0
 26 27  1  0
 27 28  1  0
 28 29  1  0
  5 30  1  0
 30 31  2  0
 31  3  1  0
 25  9  1  0
 29 11  1  0
 23 17  1  0
  1 32  1  0
  1 33  1  0
  1 34  1  0
  2 35  1  0
  2 36  1  0
  4 37  1  0
 10 38  1  0
 16 39  1  0
 17 40  1  6
 18 41  1  0
 18 42  1  0
 19 43  1  0
 19 44  1  0
 22 45  1  0
 25 46  1  0
 26 47  1  0
 26 48  1  0
 27 49  1  0
 27 50  1  0
 28 51  1  0
 28 52  1  0
 30 53  1  0
M  END
>  <meeko>  (148) 
{"is_sidechain": [true], "free_energy": -11.21, "intermolecular_energy": 0.0, "internal_energy": -11.21, "cluster_size": 20, "cluster_id": 1, "rank_in_cluster": 1}

>  <_RMSD_MCS_to_ref>  (148) 
0.5418098272354321

$$$$
ligand
     RDKit          3D

 48 51  0  0  0  0  0  0  0  0999 V2000
   18.9090   19.1540    7.5370 C   0  0  0  0  0  0  0  0  0  0  0  0
   18.7730   17.6460    7.6780 C   0  0  0  0  0  0  0  0  0  0  0  0
   20.0520   16.9380    7.4040 C   0  0  0  0  0  0  0  0  0  0  0  0
   20.6920   15.9760    8.1610 C   0  0  0  0  0  0  0  0  0  0  0  0
   21.8130   15.6760    7.4400 N   0  0  0  0  0  0  0  0  0  0  0  0
   23.0150   14.6000    7.9050 S   0  0  0  0  0  6  0  0  0  0  0  0
   23.8840   14.4160    6.7610 O   0  0  0  0  0  0  0  0  0  0  0  0
   22.2930   13.4930    8.5060 O   0  0  0  0  0  0  0  0  0  0  0  0
   23.9200   15.4510    9.1800 C   0  0  0  0  0  0  0  0  0  0  0  0
   25.0970   16.1150    8.7940 C   0  0  0  0  0  0  0  0  0  0  0  0
   25.8660   16.7910    9.7250 C   0  0  0  0  0  0  0  0  0  0  0  0
   25.4720   16.8220   11.0620 C   0  0  0  0  0  0  0  0  0  0  0  0
   24.2820   16.1810   11.5020 C   0  0  0  0  0  0  0  0  0  0  0  0
   23.7010   16.0970   12.8360 C   0  0  0  0  0  0  0  0  0  0  0  0
   24.2650   16.7060   14.0480 C   0  0  0  0  0  0  0  0  0  0  0  0
   24.3720   16.0980   15.1090 O   0  0  0  0  0  0  0  0  0  0  0  0
   24.6460   18.0250   13.9310 N   0  0  0  0  0  0  0  0  0  0  0  0
   25.0770   18.7910   15.0920 C   0  0  1  0  0  0  0  0  0  0  0  0
   26.1600   18.0720   15.8890 C   0  0  0  0  0  0  0  0  0  0  0  0
   26.5950   18.9450   17.0570 C   0  0  0  0  0  0  0  0  0  0  0  0
   27.0520   20.3050   16.5850 C   0  0  0  0  0  0  0  0  0  0  0  0
   27.9450   20.9320   17.1460 O   0  0  0  0  0  0  0  0  0  0  0  0
   26.3940   20.8340   15.5040 N   0  0  0  0  0  0  0  0  0  0  0  0
   25.6260   20.1350   14.6060 C   0  0  0  0  0  0  0  0  0  0  0  0
   25.3880   20.5800   13.4830 O   0  0  0  0  0  0  0  0  0  0  0  0
   22.5140   15.3890   12.8080 C   0  0  0  0  0  0  0  0  0  0  0  0
   22.1130   14.8150   11.2640 S   0  0  0  0  0  0  0  0  0  0  0  0
   23.5160   15.5020   10.5370 C   0  0  0  0  0  0  0  0  0  0  0  0
   21.8270   16.4170    6.3050 C   0  0  0  0  0  0  0  0  0  0  0  0
   20.7740   17.2070    6.2580 N   0  0  0  0  0  0  0  0  0  0  0  0
   18.9504   19.6134    8.5356 H   0  0  0  0  0  0  0  0  0  0  0  0
   19.8320   19.3891    6.9867 H   0  0  0  0  0  0  0  0  0  0  0  0
   18.0430   19.5504    6.9867 H   0  0  0  0  0  0  0  0  0  0  0  0
   18.4525   17.4137    8.7043 H   0  0  0  0  0  0  0  0  0  0  0  0
   18.0328   17.3034    6.9399 H   0  0  0  0  0  0  0  0  0  0  0  0
   20.3725   15.5495    9.1233 H   0  0  0  0  0  0  0  0  0  0  0  0
   25.4106   16.0972    7.7398 H   0  0  0  0  0  0  0  0  0  0  0  0
   26.7872   17.3034    9.4105 H   0  0  0  0  0  0  0  0  0  0  0  0
   26.0968   17.3551   11.7937 H   0  0  0  0  0  0  0  0  0  0  0  0
   24.6256   18.4772   13.0058 H   0  0  0  0  0  0  0  0  0  0  0  0
   24.2103   18.9252   15.7559 H   0  0  0  0  0  0  0  0  0  0  0  0
   25.7629   17.1199   16.2709 H   0  0  0  0  0  0  0  0  0  0  0  0
   27.0240   17.8743   15.2376 H   0  0  0  0  0  0  0  0  0  0  0  0
   25.7465   19.0711   17.7456 H   0  0  0  0  0  0  0  0  0  0  0  0
   27.4376   18.4521   17.5640 H   0  0  0  0  0  0  0  0  0  0  0  0
   26.4844   21.8487   15.3520 H   0  0  0  0  0  0  0  0  0  0  0  0
   21.8919   15.2154   13.6984 H   0  0  0  0  0  0  0  0  0  0  0  0
   22.6079   16.3658    5.5319 H   0  0  0  0  0  0  0  0  0  0  0  0
  1  2  1  0
  2  3  1  0
  3  4  2  0
  4  5  1  0
  5  6  1  0
  6  7  2  0
  6  8  2  0
  6  9  1  0
  9 10  2  0
 10 11  1  0
 11 12  2  0
 12 13  1  0
 13 14  1  0
 14 15  1  0
 15 16  2  0
 15 17  1  0
 17 18  1  0
 18 19  1  0
 19 20  1  0
 20 21  1  0
 21 22  2  0
 21 23  1  0
 23 24  1  0
 24 25  2  0
 14 26  2  0
 26 27  1  0
 27 28  1  0
  5 29  1  0
 29 30  2  0
 30  3  1  0
 28  9  1  0
 28 13  2  0
 24 18  1  0
  1 31  1  0
  1 32  1  0
  1 33  1  0
  2 34  1  0
  2 35  1  0
  4 36  1  0
 10 37  1  0
 11 38  1  0
 12 39  1  0
 17 40  1  0
 18 41  1  1
 19 42  1  0
 19 43  1  0
 20 44  1  0
 20 45  1  0
 23 46  1  0
 26 47  1  0
 29 48  1  0
M  END
>  <meeko>  (149) 
{"is_sidechain": [true], "free_energy": -11.21, "intermolecular_energy": 0.0, "internal_energy": -11.21, "cluster_size": 16, "cluster_id": 1, "rank_in_cluster": 1}

>  <_RMSD_MCS_to_ref>  (149) 
0.6306462294081101

$$$$
ligand
     RDKit          3D

 47 50  0  0  0  0  0  0  0  0999 V2000
   18.9090   19.1540    7.5370 C   0  0  0  0  0  0  0  0  0  0  0  0
   18.7730   17.6460    7.6780 C   0  0  0  0  0  0  0  0  0  0  0  0
   20.0220   16.9310    7.2980 C   0  0  0  0  0  0  0  0  0  0  0  0
   20.8100   16.0940    8.0610 C   0  0  0  0  0  0  0  0  0  0  0  0
   21.8290   15.7380    7.2220 N   0  0  0  0  0  0  0  0  0  0  0  0
   23.0840   14.6890    7.6010 S   0  0  0  0  0  6  0  0  0  0  0  0
   22.4850   13.4940    8.1590 O   0  0  0  0  0  0  0  0  0  0  0  0
   23.8960   14.6450    6.3980 O   0  0  0  0  0  0  0  0  0  0  0  0
   24.0290   15.4720    8.8480 C   0  0  0  0  0  0  0  0  0  0  0  0
   25.2710   16.0710    8.5350 C   0  0  0  0  0  0  0  0  0  0  0  0
   26.0850   16.7100    9.5070 C   0  0  0  0  0  0  0  0  0  0  0  0
   25.7390   16.8170   10.8680 C   0  0  0  0  0  0  0  0  0  0  0  0
   24.5010   16.2320   11.1780 C   0  0  0  0  0  0  0  0  0  0  0  0
   23.9580   16.2160   12.4500 C   0  0  0  0  0  0  0  0  0  0  0  0
   24.3530   16.7690   13.7250 C   0  0  0  0  0  0  0  0  0  0  0  0
   24.2100   16.1900   14.8000 O   0  0  0  0  0  0  0  0  0  0  0  0
   24.8700   18.0480   13.6780 N   0  0  0  0  0  0  0  0  0  0  0  0
   25.1310   18.8050   14.8950 C   0  0  1  0  0  0  0  0  0  0  0  0
   26.0790   18.0770   15.8400 C   0  0  0  0  0  0  0  0  0  0  0  0
   26.3480   18.9480   17.0590 C   0  0  0  0  0  0  0  0  0  0  0  0
   26.8810   20.3030   16.6580 C   0  0  0  0  0  0  0  0  0  0  0  0
   27.7060   20.9130   17.3310 O   0  0  0  0  0  0  0  0  0  0  0  0
   26.3780   20.8440   15.5020 N   0  0  0  0  0  0  0  0  0  0  0  0
   25.7560   20.1450   14.4970 C   0  0  0  0  0  0  0  0  0  0  0  0
   25.7040   20.5830   13.3480 O   0  0  0  0  0  0  0  0  0  0  0  0
   22.5100   15.3090   12.3760 S   0  0  0  0  0  0  0  0  0  0  0  0
   22.5320   15.0280   10.7540 N   0  0  0  0  0  0  0  0  0  0  0  0
   23.6340   15.5370   10.1980 C   0  0  0  0  0  0  0  0  0  0  0  0
   21.6340   16.3200    6.0120 C   0  0  0  0  0  0  0  0  0  0  0  0
   20.5470   17.0630    6.0270 N   0  0  0  0  0  0  0  0  0  0  0  0
   18.9504   19.6134    8.5356 H   0  0  0  0  0  0  0  0  0  0  0  0
   19.8320   19.3891    6.9867 H   0  0  0  0  0  0  0  0  0  0  0  0
   18.0430   19.5504    6.9867 H   0  0  0  0  0  0  0  0  0  0  0  0
   18.5332   17.4083    8.7249 H   0  0  0  0  0  0  0  0  0  0  0  0
   17.9738   17.3140    6.9990 H   0  0  0  0  0  0  0  0  0  0  0  0
   20.6541   15.7842    9.1049 H   0  0  0  0  0  0  0  0  0  0  0  0
   25.6219   16.0406    7.4929 H   0  0  0  0  0  0  0  0  0  0  0  0
   27.0399   17.1462    9.1785 H   0  0  0  0  0  0  0  0  0  0  0  0
   26.3769   17.3110   11.6156 H   0  0  0  0  0  0  0  0  0  0  0  0
   25.0754   18.4759   12.7639 H   0  0  0  0  0  0  0  0  0  0  0  0
   24.1780   18.9419   15.4270 H   0  0  0  0  0  0  0  0  0  0  0  0
   25.6214   17.1293   16.1602 H   0  0  0  0  0  0  0  0  0  0  0  0
   27.0265   17.8697   15.3211 H   0  0  0  0  0  0  0  0  0  0  0  0
   25.4098   19.0828   17.6172 H   0  0  0  0  0  0  0  0  0  0  0  0
   27.1036   18.4483   17.6830 H   0  0  0  0  0  0  0  0  0  0  0  0
   26.4753   21.8618   15.3772 H   0  0  0  0  0  0  0  0  0  0  0  0
   22.2920   16.1894    5.1403 H   0  0  0  0  0  0  0  0  0  0  0  0
  1  2  1  0
  2  3  1  0
  3  4  2  0
  4  5  1  0
  5  6  1  0
  6  7  2  0
  6  8  2  0
  6  9  1  0
  9 10  2  0
 10 11  1  0
 11 12  2  0
 12 13  1  0
 13 14  2  0
 14 15  1  0
 15 16  2  0
 15 17  1  0
 17 18  1  0
 18 19  1  0
 19 20  1  0
 20 21  1  0
 21 22  2  0
 21 23  1  0
 23 24  1  0
 24 25  2  0
 14 26  1  0
 26 27  1  0
 27 28  2  0
  5 29  1  0
 29 30  2  0
 30  3  1  0
 28  9  1  0
 28 13  1  0
 24 18  1  0
  1 31  1  0
  1 32  1  0
  1 33  1  0
  2 34  1  0
  2 35  1  0
  4 36  1  0
 10 37  1  0
 11 38  1  0
 12 39  1  0
 17 40  1  0
 18 41  1  1
 19 42  1  0
 19 43  1  0
 20 44  1  0
 20 45  1  0
 23 46  1  0
 29 47  1  0
M  END
>  <meeko>  (150) 
{"is_sidechain": [true], "free_energy": -11.21, "intermolecular_energy": 0.0, "internal_energy": -11.21, "cluster_size": 17, "cluster_id": 1, "rank_in_cluster": 1}

>  <_RMSD_MCS_to_ref>  (150) 
0.639898950355966

$$$$
ligand
     RDKit          3D

 46 49  0  0  0  0  0  0  0  0999 V2000
   18.9090   19.1540    7.5370 C   0  0  0  0  0  0  0  0  0  0  0  0
   18.7730   17.6460    7.6780 C   0  0  0  0  0  0  0  0  0  0  0  0
   20.0630   16.9410    7.4470 C   0  0  0  0  0  0  0  0  0  0  0  0
   21.1550   16.8310    8.2860 C   0  0  0  0  0  0  0  0  0  0  0  0
   22.0530   16.0910    7.5720 N   0  0  0  0  0  0  0  0  0  0  0  0
   23.4750   15.4220    8.1660 S   0  0  0  0  0  6  0  0  0  0  0  0
   23.4110   14.0140    7.8290 O   0  0  0  0  0  0  0  0  0  0  0  0
   24.5510   16.2840    7.7250 O   0  0  0  0  0  0  0  0  0  0  0  0
   23.3260   15.5850    9.9300 C   0  0  0  0  0  0  0  0  0  0  0  0
   24.3190   16.2610   10.6380 C   0  0  0  0  0  0  0  0  0  0  0  0
   24.2310   16.4060   12.0380 C   0  0  0  0  0  0  0  0  0  0  0  0
   25.3110   17.1510   12.7330 C   0  0  0  0  0  0  0  0  0  0  0  0
   26.3250   17.4610   12.1140 O   0  0  0  0  0  0  0  0  0  0  0  0
   25.1280   17.4820   14.0540 N   0  0  0  0  0  0  0  0  0  0  0  0
   26.0970   18.2860   14.7840 C   0  0  2  0  0  0  0  0  0  0  0  0
   26.0530   17.9990   16.2820 C   0  0  0  0  0  0  0  0  0  0  0  0
   27.0710   18.8750   16.9960 C   0  0  0  0  0  0  0  0  0  0  0  0
   26.8420   20.3380   16.6990 C   0  0  0  0  0  0  0  0  0  0  0  0
   27.0760   21.2220   17.5180 O   0  0  0  0  0  0  0  0  0  0  0  0
   26.3860   20.6450   15.4420 N   0  0  0  0  0  0  0  0  0  0  0  0
   25.8100   19.7730   14.5500 C   0  0  0  0  0  0  0  0  0  0  0  0
   25.1260   20.1860   13.6150 O   0  0  0  0  0  0  0  0  0  0  0  0
   23.1330   15.8360   12.7230 C   0  0  0  0  0  0  0  0  0  0  0  0
   22.8790   15.8640   14.0950 N   0  0  0  0  0  0  0  0  0  0  0  0
   21.7670   15.2300   14.4150 N   0  0  0  0  0  0  0  0  0  0  0  0
   20.9830   14.5790   13.0940 S   0  0  0  0  0  0  0  0  0  0  0  0
   22.1670   15.1510   11.9750 C   0  0  0  0  0  0  0  0  0  0  0  0
   22.2320   15.0070   10.5820 C   0  0  0  0  0  0  0  0  0  0  0  0
   21.5000   15.7490    6.3800 C   0  0  0  0  0  0  0  0  0  0  0  0
   20.2910   16.2560    6.2700 N   0  0  0  0  0  0  0  0  0  0  0  0
   18.9504   19.6134    8.5356 H   0  0  0  0  0  0  0  0  0  0  0  0
   19.8320   19.3891    6.9867 H   0  0  0  0  0  0  0  0  0  0  0  0
   18.0430   19.5504    6.9867 H   0  0  0  0  0  0  0  0  0  0  0  0
   18.4205   17.4156    8.6942 H   0  0  0  0  0  0  0  0  0  0  0  0
   18.0578   17.2990    6.9177 H   0  0  0  0  0  0  0  0  0  0  0  0
   21.2738   17.2451    9.2981 H   0  0  0  0  0  0  0  0  0  0  0  0
   25.1792   16.6852   10.0994 H   0  0  0  0  0  0  0  0  0  0  0  0
   24.2823   17.1522   14.5407 H   0  0  0  0  0  0  0  0  0  0  0  0
   27.0987   18.0249   14.4120 H   0  0  0  0  0  0  0  0  0  0  0  0
   25.0464   18.2176   16.6678 H   0  0  0  0  0  0  0  0  0  0  0  0
   26.2917   16.9400   16.4597 H   0  0  0  0  0  0  0  0  0  0  0  0
   26.9856   18.7121   18.0805 H   0  0  0  0  0  0  0  0  0  0  0  0
   28.0748   18.6017   16.6387 H   0  0  0  0  0  0  0  0  0  0  0  0
   26.4850   21.6240   15.1375 H   0  0  0  0  0  0  0  0  0  0  0  0
   21.4552   14.4623   10.0252 H   0  0  0  0  0  0  0  0  0  0  0  0
   21.9939   15.1339    5.6134 H   0  0  0  0  0  0  0  0  0  0  0  0
  1  2  1  0
  2  3  1  0
  3  4  2  0
  4  5  1  0
  5  6  1  0
  6  7  2  0
  6  8  2  0
  6  9  1  0
  9 10  2  0
 10 11  1  0
 11 12  1  0
 12 13  2  0
 12 14  1  0
 14 15  1  0
 15 16  1  0
 16 17  1  0
 17 18  1  0
 18 19  2  0
 18 20  1  0
 20 21  1  0
 21 22  2  0
 11 23  2  0
 23 24  1  0
 24 25  2  0
 25 26  1  0
 26 27  1  0
 27 28  2  0
  5 29  1  0
 29 30  2  0
 30  3  1  0
 28  9  1  0
 21 15  1  0
 27 23  1  0
  1 31  1  0
  1 32  1  0
  1 33  1  0
  2 34  1  0
  2 35  1  0
  4 36  1  0
 10 37  1  0
 14 38  1  0
 15 39  1  6
 16 40  1  0
 16 41  1  0
 17 42  1  0
 17 43  1  0
 20 44  1  0
 28 45  1  0
 29 46  1  0
M  END
>  <meeko>  (151) 
{"is_sidechain": [true], "free_energy": -11.21, "intermolecular_energy": 0.0, "internal_energy": -11.21, "cluster_size": 20, "cluster_id": 1, "rank_in_cluster": 1}

>  <_RMSD_MCS_to_ref>  (151) 
0.7465733572648963

$$$$
ligand
     RDKit          3D

 53 57  0  0  0  0  0  0  0  0999 V2000
   18.9090   19.1540    7.5370 C   0  0  0  0  0  0  0  0  0  0  0  0
   18.7730   17.6460    7.6780 C   0  0  0  0  0  0  0  0  0  0  0  0
   20.0130   16.9310    7.2720 C   0  0  0  0  0  0  0  0  0  0  0  0
   20.4100   15.6440    7.5730 C   0  0  0  0  0  0  0  0  0  0  0  0
   21.6120   15.5040    6.9370 N   0  0  0  0  0  0  0  0  0  0  0  0
   22.6670   14.2170    7.1330 S   0  0  0  0  0  6  0  0  0  0  0  0
   22.5160   13.3650    5.9720 O   0  0  0  0  0  0  0  0  0  0  0  0
   22.4710   13.7520    8.4910 O   0  0  0  0  0  0  0  0  0  0  0  0
   24.2780   14.7830    7.0770 C   0  0  0  0  0  0  0  0  0  0  0  0
   25.1670   14.6000    6.0090 C   0  0  0  0  0  0  0  0  0  0  0  0
   26.3650   15.1350    6.2580 N   0  0  0  0  0  0  0  0  0  0  0  0
   26.2230   15.6890    7.4760 N   0  0  0  0  0  0  0  0  0  0  0  0
   24.9850   15.4900    8.0320 C   0  0  0  0  0  0  0  0  0  0  0  0
   24.6200   15.9890    9.3430 C   0  0  0  0  0  0  0  0  0  0  0  0
   23.3230   15.7500    9.8460 C   0  0  0  0  0  0  0  0  0  0  0  0
   22.9610   16.1820   11.1240 C   0  0  0  0  0  0  0  0  0  0  0  0
   23.9240   16.8310   11.8710 C   0  0  0  0  0  0  0  0  0  0  0  0
   25.2110   17.0710   11.3940 C   0  0  0  0  0  0  0  0  0  0  0  0
   25.5720   16.6690   10.1190 C   0  0  0  0  0  0  0  0  0  0  0  0
   26.0230   17.7600   12.4400 C   0  0  0  0  0  0  0  0  0  0  0  0
   25.0950   17.8370   13.5620 N   0  0  0  0  0  0  0  0  0  0  0  0
   25.3400   18.6340   14.7560 C   0  0  1  0  0  0  0  0  0  0  0  0
   26.3130   17.9590   15.7190 C   0  0  0  0  0  0  0  0  0  0  0  0
   26.4510   18.8080   16.9740 C   0  0  0  0  0  0  0  0  0  0  0  0
   26.8780   20.2170   16.6340 C   0  0  0  0  0  0  0  0  0  0  0  0
   27.6390   20.8630   17.3460 O   0  0  0  0  0  0  0  0  0  0  0  0
   26.3570   20.7550   15.4850 N   0  0  0  0  0  0  0  0  0  0  0  0
   25.8680   20.0390   14.4160 C   0  0  0  0  0  0  0  0  0  0  0  0
   25.8820   20.5230   13.2870 O   0  0  0  0  0  0  0  0  0  0  0  0
   23.8340   17.3650   13.2330 C   0  0  0  0  0  0  0  0  0  0  0  0
   22.8270   17.3770   13.9140 O   0  0  0  0  0  0  0  0  0  0  0  0
   21.9210   16.6710    6.3140 C   0  0  0  0  0  0  0  0  0  0  0  0
   20.9690   17.5620    6.5010 N   0  0  0  0  0  0  0  0  0  0  0  0
   18.9504   19.6134    8.5356 H   0  0  0  0  0  0  0  0  0  0  0  0
   19.8320   19.3891    6.9867 H   0  0  0  0  0  0  0  0  0  0  0  0
   18.0430   19.5504    6.9867 H   0  0  0  0  0  0  0  0  0  0  0  0
   18.5536   17.4065    8.7290 H   0  0  0  0  0  0  0  0  0  0  0  0
   17.9597   17.3161    7.0149 H   0  0  0  0  0  0  0  0  0  0  0  0
   19.8797   14.8999    8.1855 H   0  0  0  0  0  0  0  0  0  0  0  0
   24.9085   14.0775    5.0761 H   0  0  0  0  0  0  0  0  0  0  0  0
   26.9740   16.2136    7.9469 H   0  0  0  0  0  0  0  0  0  0  0  0
   22.5886   15.2172    9.2241 H   0  0  0  0  0  0  0  0  0  0  0  0
   21.9488   16.0119   11.5197 H   0  0  0  0  0  0  0  0  0  0  0  0
   26.5777   16.8769    9.7248 H   0  0  0  0  0  0  0  0  0  0  0  0
   26.9150   17.1720   12.7018 H   0  0  0  0  0  0  0  0  0  0  0  0
   26.4070   18.7403   12.1212 H   0  0  0  0  0  0  0  0  0  0  0  0
   24.3614   18.7262   15.2498 H   0  0  0  0  0  0  0  0  0  0  0  0
   25.9309   16.9635   15.9893 H   0  0  0  0  0  0  0  0  0  0  0  0
   27.2956   17.8543   15.2358 H   0  0  0  0  0  0  0  0  0  0  0  0
   25.4818   18.8418   17.4931 H   0  0  0  0  0  0  0  0  0  0  0  0
   27.2195   18.3562   17.6184 H   0  0  0  0  0  0  0  0  0  0  0  0
   26.3293   21.7823   15.4162 H   0  0  0  0  0  0  0  0  0  0  0  0
   22.8388   16.8474    5.7339 H   0  0  0  0  0  0  0  0  0  0  0  0
  1  2  1  0
  2  3  1  0
  3  4  2  0
  4  5  1  0
  5  6  1  0
  6  7  2  0
  6  8  2  0
  6  9  1  0
  9 10  1  0
 10 11  2  0
 11 12  1  0
 12 13  1  0
 13 14  1  0
 14 15  2  0
 15 16  1  0
 16 17  2  0
 17 18  1  0
 18 19  2  0
 18 20  1  0
 20 21  1  0
 21 22  1  0
 22 23  1  0
 23 24  1  0
 24 25  1  0
 25 26  2  0
 25 27  1  0
 27 28  1  0
 28 29  2  0
 21 30  1  0
 30 31  2  0
  5 32  1  0
 32 33  2  0
 33  3  1  0
 13  9  2  0
 19 14  1  0
 28 22  1  0
 30 17  1  0
  1 34  1  0
  1 35  1  0
  1 36  1  0
  2 37  1  0
  2 38  1  0
  4 39  1  0
 10 40  1  0
 12 41  1  0
 15 42  1  0
 16 43  1  0
 19 44  1  0
 20 45  1  0
 20 46  1  0
 22 47  1  1
 23 48  1  0
 23 49  1  0
 24 50  1  0
 24 51  1  0
 27 52  1  0
 32 53  1  0
M  END
>  <meeko>  (152) 
{"is_sidechain": [true], "free_energy": -11.21, "intermolecular_energy": 0.0, "internal_energy": -11.21, "cluster_size": 20, "cluster_id": 1, "rank_in_cluster": 1}

>  <_RMSD_MCS_to_ref>  (152) 
0.729852686810458

$$$$
ligand
     RDKit          3D

 50 53  0  0  0  0  0  0  0  0999 V2000
   18.9090   19.1540    7.5370 C   0  0  0  0  0  0  0  0  0  0  0  0
   18.7730   17.6460    7.6780 C   0  0  0  0  0  0  0  0  0  0  0  0
   20.0920   16.9560    7.6340 C   0  0  0  0  0  0  0  0  0  0  0  0
   20.9670   16.6880    8.6670 C   0  0  0  0  0  0  0  0  0  0  0  0
   21.9980   16.0230    8.0690 N   0  0  0  0  0  0  0  0  0  0  0  0
   23.4720   15.6430    8.7780 S   0  0  0  0  0  6  0  0  0  0  0  0
   23.8610   14.3510    8.2530 O   0  0  0  0  0  0  0  0  0  0  0  0
   24.2950   16.8280    8.6330 O   0  0  0  0  0  0  0  0  0  0  0  0
   23.0890   15.4420   10.4990 C   0  0  0  0  0  0  0  0  0  0  0  0
   23.9940   15.8800   11.4710 C   0  0  0  0  0  0  0  0  0  0  0  0
   23.6940   15.7090   12.8340 C   0  0  0  0  0  0  0  0  0  0  0  0
   24.6520   16.2310   13.8340 C   0  0  0  0  0  0  0  0  0  0  0  0
   25.2140   15.4650   14.6020 O   0  0  0  0  0  0  0  0  0  0  0  0
   24.8470   17.5900   13.8230 N   0  0  0  0  0  0  0  0  0  0  0  0
   25.8620   18.2160   14.6640 C   0  0  2  0  0  0  0  0  0  0  0  0
   25.6490   17.9190   16.1440 C   0  0  0  0  0  0  0  0  0  0  0  0
   26.7120   18.6370   16.9610 C   0  0  0  0  0  0  0  0  0  0  0  0
   26.7130   20.1210   16.6780 C   0  0  0  0  0  0  0  0  0  0  0  0
   26.9770   20.9570   17.5370 O   0  0  0  0  0  0  0  0  0  0  0  0
   26.4310   20.5010   15.3900 N   0  0  0  0  0  0  0  0  0  0  0  0
   25.8020   19.7300   14.4450 C   0  0  0  0  0  0  0  0  0  0  0  0
   25.2360   20.2370   13.4760 O   0  0  0  0  0  0  0  0  0  0  0  0
   22.4900   15.1020   13.2130 C   0  0  0  0  0  0  0  0  0  0  0  0
   22.1080   14.8500   14.6080 C   0  0  0  0  0  0  0  0  0  0  0  0
   21.0060   14.2660   14.9680 N   0  0  0  0  0  0  0  0  0  0  0  0
   20.1470   13.8700   13.9900 N   0  0  0  0  0  0  0  0  0  0  0  0
   20.3430   14.0150   12.6400 C   0  0  0  0  0  0  0  0  0  0  0  0
   19.5320   13.6380   11.8010 O   0  0  0  0  0  0  0  0  0  0  0  0
   21.6030   14.6600   12.2310 C   0  0  0  0  0  0  0  0  0  0  0  0
   21.8970   14.8190   10.8710 C   0  0  0  0  0  0  0  0  0  0  0  0
   21.7610   15.9400    6.7340 C   0  0  0  0  0  0  0  0  0  0  0  0
   20.6040   16.4950    6.4370 N   0  0  0  0  0  0  0  0  0  0  0  0
   18.9504   19.6134    8.5356 H   0  0  0  0  0  0  0  0  0  0  0  0
   19.8320   19.3891    6.9867 H   0  0  0  0  0  0  0  0  0  0  0  0
   18.0430   19.5504    6.9867 H   0  0  0  0  0  0  0  0  0  0  0  0
   18.2881   17.4224    8.6397 H   0  0  0  0  0  0  0  0  0  0  0  0
   18.1721   17.2804    6.8323 H   0  0  0  0  0  0  0  0  0  0  0  0
   20.8583   16.9504    9.7297 H   0  0  0  0  0  0  0  0  0  0  0  0
   24.9383   16.3572   11.1700 H   0  0  0  0  0  0  0  0  0  0  0  0
   24.2658   18.1788   13.2095 H   0  0  0  0  0  0  0  0  0  0  0  0
   26.8431   17.8063   14.3819 H   0  0  0  0  0  0  0  0  0  0  0  0
   24.6522   18.2701   16.4491 H   0  0  0  0  0  0  0  0  0  0  0  0
   25.7232   16.8350   16.3158 H   0  0  0  0  0  0  0  0  0  0  0  0
   26.5111   18.4764   18.0305 H   0  0  0  0  0  0  0  0  0  0  0  0
   27.6959   18.2303   16.6843 H   0  0  0  0  0  0  0  0  0  0  0  0
   26.7169   21.4493   15.1073 H   0  0  0  0  0  0  0  0  0  0  0  0
   22.7996   15.1769   15.3984 H   0  0  0  0  0  0  0  0  0  0  0  0
   19.2702   13.4207   14.2904 H   0  0  0  0  0  0  0  0  0  0  0  0
   21.1961   14.4568   10.1045 H   0  0  0  0  0  0  0  0  0  0  0  0
   22.4397   15.4749    6.0039 H   0  0  0  0  0  0  0  0  0  0  0  0
  1  2  1  0
  2  3  1  0
  3  4  2  0
  4  5  1  0
  5  6  1  0
  6  7  2  0
  6  8  2  0
  6  9  1  0
  9 10  2  0
 10 11  1  0
 11 12  1  0
 12 13  2  0
 12 14  1  0
 14 15  1  0
 15 16  1  0
 16 17  1  0
 17 18  1  0
 18 19  2  0
 18 20  1  0
 20 21  1  0
 21 22  2  0
 11 23  2  0
 23 24  1  0
 24 25  2  0
 25 26  1  0
 26 27  1  0
 27 28  2  0
 27 29  1  0
 29 30  2  0
  5 31  1  0
 31 32  2  0
 32  3  1  0
 30  9  1  0
 21 15  1  0
 29 23  1  0
  1 33  1  0
  1 34  1  0
  1 35  1  0
  2 36  1  0
  2 37  1  0
  4 38  1  0
 10 39  1  0
 14 40  1  0
 15 41  1  6
 16 42  1  0
 16 43  1  0
 17 44  1  0
 17 45  1  0
 20 46  1  0
 24 47  1  0
 26 48  1  0
 30 49  1  0
 31 50  1  0
M  END
>  <meeko>  (153) 
{"is_sidechain": [true], "free_energy": -11.2, "intermolecular_energy": 0.0, "internal_energy": -11.2, "cluster_size": 20, "cluster_id": 1, "rank_in_cluster": 1}

>  <_RMSD_MCS_to_ref>  (153) 
0.5975358659621284

$$$$
ligand
     RDKit          3D

 55 59  0  0  0  0  0  0  0  0999 V2000
   18.9090   19.1540    7.5370 C   0  0  0  0  0  0  0  0  0  0  0  0
   18.7730   17.6460    7.6780 C   0  0  0  0  0  0  0  0  0  0  0  0
   20.0670   16.9990    8.0290 C   0  0  0  0  0  0  0  0  0  0  0  0
   21.2690   17.0320    7.3480 C   0  0  0  0  0  0  0  0  0  0  0  0
   22.1140   16.3040    8.1350 N   0  0  0  0  0  0  0  0  0  0  0  0
   23.7260   15.9780    7.8090 S   0  0  0  0  0  6  0  0  0  0  0  0
   23.9030   16.1020    6.3760 O   0  0  0  0  0  0  0  0  0  0  0  0
   24.4470   16.8300    8.7390 O   0  0  0  0  0  0  0  0  0  0  0  0
   24.0150   14.3020    8.2670 C   0  0  0  0  0  0  0  0  0  0  0  0
   24.1990   13.3640    7.2410 C   0  0  0  0  0  0  0  0  0  0  0  0
   24.4740   12.0400    7.5600 C   0  0  0  0  0  0  0  0  0  0  0  0
   24.5580   11.7010    8.8950 C   0  0  0  0  0  0  0  0  0  0  0  0
   24.3800   12.5850    9.9010 N   0  0  0  0  0  0  0  0  0  0  0  0
   24.0900   13.8790    9.5910 C   0  0  0  0  0  0  0  0  0  0  0  0
   23.8840   14.7120   10.7830 C   0  0  0  0  0  0  0  0  0  0  0  0
   22.7160   14.5360   11.5700 C   0  0  0  0  0  0  0  0  0  0  0  0
   22.4820   15.3010   12.7150 C   0  0  0  0  0  0  0  0  0  0  0  0
   23.4260   16.2500   13.0440 C   0  0  0  0  0  0  0  0  0  0  0  0
   24.5740   16.4650   12.2840 C   0  0  0  0  0  0  0  0  0  0  0  0
   24.8090   15.7110   11.1440 C   0  0  0  0  0  0  0  0  0  0  0  0
   25.3980   17.5510   12.8930 C   0  0  0  0  0  0  0  0  0  0  0  0
   24.5950   17.9470   14.0440 N   0  0  0  0  0  0  0  0  0  0  0  0
   25.0680   18.8320   15.1040 C   0  0  1  0  0  0  0  0  0  0  0  0
   26.0430   18.0990   16.0280 C   0  0  0  0  0  0  0  0  0  0  0  0
   26.4170   18.9960   17.1960 C   0  0  0  0  0  0  0  0  0  0  0  0
   26.9890   20.3070   16.7170 C   0  0  0  0  0  0  0  0  0  0  0  0
   27.8460   20.9220   17.3460 O   0  0  0  0  0  0  0  0  0  0  0  0
   26.4790   20.8080   15.5470 N   0  0  0  0  0  0  0  0  0  0  0  0
   25.7140   20.1400   14.6180 C   0  0  0  0  0  0  0  0  0  0  0  0
   25.5600   20.6150   13.4950 O   0  0  0  0  0  0  0  0  0  0  0  0
   23.4520   17.1750   14.1820 C   0  0  0  0  0  0  0  0  0  0  0  0
   22.6300   17.2120   15.0770 O   0  0  0  0  0  0  0  0  0  0  0  0
   21.4260   15.8080    9.1950 C   0  0  0  0  0  0  0  0  0  0  0  0
   20.1810   16.2340    9.1730 N   0  0  0  0  0  0  0  0  0  0  0  0
   18.9504   19.6134    8.5356 H   0  0  0  0  0  0  0  0  0  0  0  0
   19.8320   19.3891    6.9867 H   0  0  0  0  0  0  0  0  0  0  0  0
   18.0430   19.5504    6.9867 H   0  0  0  0  0  0  0  0  0  0  0  0
   18.0409   17.4281    8.4695 H   0  0  0  0  0  0  0  0  0  0  0  0
   18.4437   17.2428    6.7090 H   0  0  0  0  0  0  0  0  0  0  0  0
   21.4930   17.5297    6.3929 H   0  0  0  0  0  0  0  0  0  0  0  0
   24.1259   13.6750    6.1884 H   0  0  0  0  0  0  0  0  0  0  0  0
   24.6202   11.2856    6.7730 H   0  0  0  0  0  0  0  0  0  0  0  0
   24.7818   10.6556    9.1538 H   0  0  0  0  0  0  0  0  0  0  0  0
   21.9768   13.7784   11.2708 H   0  0  0  0  0  0  0  0  0  0  0  0
   21.5814   15.1522   13.3289 H   0  0  0  0  0  0  0  0  0  0  0  0
   25.7045   15.8905   10.5308 H   0  0  0  0  0  0  0  0  0  0  0  0
   26.3832   17.1749   13.2058 H   0  0  0  0  0  0  0  0  0  0  0  0
   25.6128   18.3792   12.2017 H   0  0  0  0  0  0  0  0  0  0  0  0
   24.1576   19.1234   15.6484 H   0  0  0  0  0  0  0  0  0  0  0  0
   25.5672   17.1831   16.4085 H   0  0  0  0  0  0  0  0  0  0  0  0
   26.9511   17.8380   15.4648 H   0  0  0  0  0  0  0  0  0  0  0  0
   25.5177   19.1954   17.7973 H   0  0  0  0  0  0  0  0  0  0  0  0
   27.1809   18.4825   17.7983 H   0  0  0  0  0  0  0  0  0  0  0  0
   26.6921   21.7943   15.3402 H   0  0  0  0  0  0  0  0  0  0  0  0
   21.8491   15.1442    9.9633 H   0  0  0  0  0  0  0  0  0  0  0  0
  1  2  1  0
  2  3  1  0
  3  4  2  0
  4  5  1  0
  5  6  1  0
  6  7  2  0
  6  8  2  0
  6  9  1  0
  9 10  2  0
 10 11  1  0
 11 12  2  0
 12 13  1  0
 13 14  2  0
 14 15  1  0
 15 16  2  0
 16 17  1  0
 17 18  2  0
 18 19  1  0
 19 20  2  0
 19 21  1  0
 21 22  1  0
 22 23  1  0
 23 24  1  0
 24 25  1  0
 25 26  1  0
 26 27  2  0
 26 28  1  0
 28 29  1  0
 29 30  2  0
 22 31  1  0
 31 32  2  0
  5 33  1  0
 33 34  2  0
 34  3  1  0
 14  9  1  0
 20 15  1  0
 29 23  1  0
 31 18  1  0
  1 35  1  0
  1 36  1  0
  1 37  1  0
  2 38  1  0
  2 39  1  0
  4 40  1  0
 10 41  1  0
 11 42  1  0
 12 43  1  0
 16 44  1  0
 17 45  1  0
 20 46  1  0
 21 47  1  0
 21 48  1  0
 23 49  1  1
 24 50  1  0
 24 51  1  0
 25 52  1  0
 25 53  1  0
 28 54  1  0
 33 55  1  0
M  END
>  <meeko>  (154) 
{"is_sidechain": [true], "free_energy": -11.2, "intermolecular_energy": 0.0, "internal_energy": -11.2, "cluster_size": 20, "cluster_id": 1, "rank_in_cluster": 1}

>  <_RMSD_MCS_to_ref>  (154) 
1.0716304555831422

$$$$
ligand
     RDKit          3D

 55 59  0  0  0  0  0  0  0  0999 V2000
   18.9090   19.1540    7.5370 C   0  0  0  0  0  0  0  0  0  0  0  0
   18.7730   17.6460    7.6780 C   0  0  0  0  0  0  0  0  0  0  0  0
   20.0560   17.0000    8.0650 C   0  0  0  0  0  0  0  0  0  0  0  0
   21.2800   17.0440    7.4270 C   0  0  0  0  0  0  0  0  0  0  0  0
   22.0930   16.2800    8.2140 N   0  0  0  0  0  0  0  0  0  0  0  0
   23.7170   15.9680    7.9330 S   0  0  0  0  0  6  0  0  0  0  0  0
   23.9320   16.0980    6.5050 O   0  0  0  0  0  0  0  0  0  0  0  0
   24.4050   16.8180    8.8850 O   0  0  0  0  0  0  0  0  0  0  0  0
   23.9780   14.2880    8.3930 C   0  0  0  0  0  0  0  0  0  0  0  0
   24.1610   13.3800    7.3570 C   0  0  0  0  0  0  0  0  0  0  0  0
   24.3980   12.0620    7.5480 N   0  0  0  0  0  0  0  0  0  0  0  0
   24.4410   11.6270    8.8220 C   0  0  0  0  0  0  0  0  0  0  0  0
   24.2600   12.4570    9.9160 C   0  0  0  0  0  0  0  0  0  0  0  0
   24.0180   13.8280    9.7180 C   0  0  0  0  0  0  0  0  0  0  0  0
   23.8120   14.6680   10.9030 C   0  0  0  0  0  0  0  0  0  0  0  0
   22.6270   14.5370   11.6710 C   0  0  0  0  0  0  0  0  0  0  0  0
   22.3980   15.3300   12.7980 C   0  0  0  0  0  0  0  0  0  0  0  0
   23.3660   16.2550   13.1300 C   0  0  0  0  0  0  0  0  0  0  0  0
   24.5360   16.4140   12.3940 C   0  0  0  0  0  0  0  0  0  0  0  0
   24.7680   15.6340   11.2720 C   0  0  0  0  0  0  0  0  0  0  0  0
   25.3900   17.4770   13.0050 C   0  0  0  0  0  0  0  0  0  0  0  0
   24.5720   17.9260   14.1260 N   0  0  0  0  0  0  0  0  0  0  0  0
   25.0480   18.8250   15.1730 C   0  0  1  0  0  0  0  0  0  0  0  0
   26.0270   18.1050   16.1040 C   0  0  0  0  0  0  0  0  0  0  0  0
   26.4070   19.0200   17.2560 C   0  0  0  0  0  0  0  0  0  0  0  0
   26.9780   20.3240   16.7570 C   0  0  0  0  0  0  0  0  0  0  0  0
   27.8320   20.9500   17.3750 O   0  0  0  0  0  0  0  0  0  0  0  0
   26.4660   20.8050   15.5770 N   0  0  0  0  0  0  0  0  0  0  0  0
   25.6880   20.1270   14.6660 C   0  0  0  0  0  0  0  0  0  0  0  0
   25.5180   20.5900   13.5400 O   0  0  0  0  0  0  0  0  0  0  0  0
   23.3990   17.2000   14.2510 C   0  0  0  0  0  0  0  0  0  0  0  0
   22.5560   17.2850   15.1230 O   0  0  0  0  0  0  0  0  0  0  0  0
   21.3750   15.7800    9.2510 C   0  0  0  0  0  0  0  0  0  0  0  0
   20.1330   16.2170    9.2010 N   0  0  0  0  0  0  0  0  0  0  0  0
   18.9504   19.6134    8.5356 H   0  0  0  0  0  0  0  0  0  0  0  0
   19.8320   19.3891    6.9867 H   0  0  0  0  0  0  0  0  0  0  0  0
   18.0430   19.5504    6.9867 H   0  0  0  0  0  0  0  0  0  0  0  0
   18.0200   17.4288    8.4499 H   0  0  0  0  0  0  0  0  0  0  0  0
   18.4723   17.2411    6.7004 H   0  0  0  0  0  0  0  0  0  0  0  0
   21.5401   17.5730    6.4983 H   0  0  0  0  0  0  0  0  0  0  0  0
   24.1103   13.7540    6.3238 H   0  0  0  0  0  0  0  0  0  0  0  0
   24.6294   10.5584    9.0028 H   0  0  0  0  0  0  0  0  0  0  0  0
   24.3054   12.0455   10.9351 H   0  0  0  0  0  0  0  0  0  0  0  0
   21.8718   13.7949   11.3728 H   0  0  0  0  0  0  0  0  0  0  0  0
   21.4819   15.2211   13.3971 H   0  0  0  0  0  0  0  0  0  0  0  0
   25.6847   15.7675   10.6789 H   0  0  0  0  0  0  0  0  0  0  0  0
   26.3500   17.0667   13.3514 H   0  0  0  0  0  0  0  0  0  0  0  0
   25.6592   18.2822   12.3056 H   0  0  0  0  0  0  0  0  0  0  0  0
   24.1404   19.1221   15.7189 H   0  0  0  0  0  0  0  0  0  0  0  0
   25.5522   17.1956   16.5009 H   0  0  0  0  0  0  0  0  0  0  0  0
   26.9322   17.8340   15.5408 H   0  0  0  0  0  0  0  0  0  0  0  0
   25.5104   19.2289   17.8581 H   0  0  0  0  0  0  0  0  0  0  0  0
   27.1742   18.5148   17.8612 H   0  0  0  0  0  0  0  0  0  0  0  0
   26.6894   21.7840   15.3476 H   0  0  0  0  0  0  0  0  0  0  0  0
   21.7731   15.1057   10.0236 H   0  0  0  0  0  0  0  0  0  0  0  0
  1  2  1  0
  2  3  1  0
  3  4  2  0
  4  5  1  0
  5  6  1  0
  6  7  2  0
  6  8  2  0
  6  9  1  0
  9 10  2  0
 10 11  1  0
 11 12  2  0
 12 13  1  0
 13 14  2  0
 14 15  1  0
 15 16  2  0
 16 17  1  0
 17 18  2  0
 18 19  1  0
 19 20  2  0
 19 21  1  0
 21 22  1  0
 22 23  1  0
 23 24  1  0
 24 25  1  0
 25 26  1  0
 26 27  2  0
 26 28  1  0
 28 29  1  0
 29 30  2  0
 22 31  1  0
 31 32  2  0
  5 33  1  0
 33 34  2  0
 34  3  1  0
 14  9  1  0
 20 15  1  0
 29 23  1  0
 31 18  1  0
  1 35  1  0
  1 36  1  0
  1 37  1  0
  2 38  1  0
  2 39  1  0
  4 40  1  0
 10 41  1  0
 12 42  1  0
 13 43  1  0
 16 44  1  0
 17 45  1  0
 20 46  1  0
 21 47  1  0
 21 48  1  0
 23 49  1  1
 24 50  1  0
 24 51  1  0
 25 52  1  0
 25 53  1  0
 28 54  1  0
 33 55  1  0
M  END
>  <meeko>  (155) 
{"is_sidechain": [true], "free_energy": -11.2, "intermolecular_energy": 0.0, "internal_energy": -11.2, "cluster_size": 20, "cluster_id": 1, "rank_in_cluster": 1}

>  <_RMSD_MCS_to_ref>  (155) 
1.147453073356621

$$$$
ligand
     RDKit          3D

 54 58  0  0  0  0  0  0  0  0999 V2000
   18.9090   19.1540    7.5370 C   0  0  0  0  0  0  0  0  0  0  0  0
   18.7730   17.6460    7.6780 C   0  0  0  0  0  0  0  0  0  0  0  0
   20.0910   16.9560    7.6360 C   0  0  0  0  0  0  0  0  0  0  0  0
   21.0440   16.8400    8.6300 C   0  0  0  0  0  0  0  0  0  0  0  0
   22.0290   16.0910    8.0570 N   0  0  0  0  0  0  0  0  0  0  0  0
   23.4800   15.6600    8.7750 S   0  0  0  0  0  6  0  0  0  0  0  0
   23.8360   14.3570    8.2480 O   0  0  0  0  0  0  0  0  0  0  0  0
   24.3270   16.8240    8.6010 O   0  0  0  0  0  0  0  0  0  0  0  0
   23.2380   15.4570   10.5170 C   0  0  0  0  0  0  0  0  0  0  0  0
   23.9980   16.0770   11.4170 N   0  0  0  0  0  0  0  0  0  0  0  0
   23.3680   15.9300   12.6350 C   0  0  0  0  0  0  0  0  0  0  0  0
   23.8890   16.4890   13.8810 C   0  0  0  0  0  0  0  0  0  0  0  0
   23.8890   15.8770   14.9440 O   0  0  0  0  0  0  0  0  0  0  0  0
   24.3750   17.7640   13.7370 N   0  0  0  0  0  0  0  0  0  0  0  0
   24.8220   18.5590   14.8650 C   0  0  1  0  0  0  0  0  0  0  0  0
   25.8850   17.8330   15.6840 C   0  0  0  0  0  0  0  0  0  0  0  0
   26.3290   18.7170   16.8390 C   0  0  0  0  0  0  0  0  0  0  0  0
   26.8210   20.0570   16.3470 C   0  0  0  0  0  0  0  0  0  0  0  0
   27.7120   20.6800   16.9170 O   0  0  0  0  0  0  0  0  0  0  0  0
   26.1940   20.5730   15.2410 N   0  0  0  0  0  0  0  0  0  0  0  0
   25.3980   19.8850   14.3580 C   0  0  0  0  0  0  0  0  0  0  0  0
   25.1550   20.3400   13.2420 O   0  0  0  0  0  0  0  0  0  0  0  0
   22.2130   15.2030   12.4600 C   0  0  0  0  0  0  0  0  0  0  0  0
   22.1910   14.8050   11.1430 N   0  0  0  0  0  0  0  0  0  0  0  0
   21.1760   13.9320   10.7020 C   0  0  0  0  0  0  0  0  0  0  0  0
   21.2480   13.1560    9.5490 C   0  0  0  0  0  0  0  0  0  0  0  0
   20.1500   12.3740    9.1760 C   0  0  0  0  0  0  0  0  0  0  0  0
   18.9950   12.3560    9.9580 C   0  0  0  0  0  0  0  0  0  0  0  0
   18.9410   13.0960   11.1370 C   0  0  0  0  0  0  0  0  0  0  0  0
   20.0420   13.8570   11.5210 C   0  0  0  0  0  0  0  0  0  0  0  0
   19.9220   14.5730   12.6840 O   0  0  0  0  0  0  0  0  0  0  0  0
   21.1590   14.7510   13.3950 C   0  0  0  0  0  0  0  0  0  0  0  0
   21.7160   15.8530    6.7590 C   0  0  0  0  0  0  0  0  0  0  0  0
   20.5210   16.3320    6.4810 N   0  0  0  0  0  0  0  0  0  0  0  0
   18.9504   19.6134    8.5356 H   0  0  0  0  0  0  0  0  0  0  0  0
   19.8320   19.3891    6.9867 H   0  0  0  0  0  0  0  0  0  0  0  0
   18.0430   19.5504    6.9867 H   0  0  0  0  0  0  0  0  0  0  0  0
   18.2867   17.4226    8.6390 H   0  0  0  0  0  0  0  0  0  0  0  0
   18.1735   17.2805    6.8312 H   0  0  0  0  0  0  0  0  0  0  0  0
   21.0148   17.2557    9.6480 H   0  0  0  0  0  0  0  0  0  0  0  0
   24.4243   18.1719   12.7925 H   0  0  0  0  0  0  0  0  0  0  0  0
   23.9530   18.7390   15.5149 H   0  0  0  0  0  0  0  0  0  0  0  0
   25.4660   16.8961   16.0798 H   0  0  0  0  0  0  0  0  0  0  0  0
   26.7498   17.6069   15.0428 H   0  0  0  0  0  0  0  0  0  0  0  0
   25.4774   18.8750   17.5172 H   0  0  0  0  0  0  0  0  0  0  0  0
   27.1557   18.2147   17.3626 H   0  0  0  0  0  0  0  0  0  0  0  0
   26.3342   21.5762   15.0543 H   0  0  0  0  0  0  0  0  0  0  0  0
   22.1613   13.1576    8.9358 H   0  0  0  0  0  0  0  0  0  0  0  0
   20.1976   11.7685    8.2589 H   0  0  0  0  0  0  0  0  0  0  0  0
   18.1271   11.7576    9.6438 H   0  0  0  0  0  0  0  0  0  0  0  0
   18.0348   13.0793   11.7603 H   0  0  0  0  0  0  0  0  0  0  0  0
   21.0219   15.5057   14.1834 H   0  0  0  0  0  0  0  0  0  0  0  0
   21.4597   13.7941   13.8467 H   0  0  0  0  0  0  0  0  0  0  0  0
   22.3675   15.3338    6.0406 H   0  0  0  0  0  0  0  0  0  0  0  0
  1  2  1  0
  2  3  1  0
  3  4  2  0
  4  5  1  0
  5  6  1  0
  6  7  2  0
  6  8  2  0
  6  9  1  0
  9 10  2  0
 10 11  1  0
 11 12  1  0
 12 13  2  0
 12 14  1  0
 14 15  1  0
 15 16  1  0
 16 17  1  0
 17 18  1  0
 18 19  2  0
 18 20  1  0
 20 21  1  0
 21 22  2  0
 11 23  2  0
 23 24  1  0
 24 25  1  0
 25 26  2  0
 26 27  1  0
 27 28  2  0
 28 29  1  0
 29 30  2  0
 30 31  1  0
 31 32  1  0
  5 33  1  0
 33 34  2  0
 34  3  1  0
 24  9  1  0
 30 25  1  0
 21 15  1  0
 32 23  1  0
  1 35  1  0
  1 36  1  0
  1 37  1  0
  2 38  1  0
  2 39  1  0
  4 40  1  0
 14 41  1  0
 15 42  1  1
 16 43  1  0
 16 44  1  0
 17 45  1  0
 17 46  1  0
 20 47  1  0
 26 48  1  0
 27 49  1  0
 28 50  1  0
 29 51  1  0
 32 52  1  0
 32 53  1  0
 33 54  1  0
M  END
>  <meeko>  (156) 
{"is_sidechain": [true], "free_energy": -11.19, "intermolecular_energy": 0.0, "internal_energy": -11.19, "cluster_size": 18, "cluster_id": 1, "rank_in_cluster": 1}

>  <_RMSD_MCS_to_ref>  (156) 
0.3356135343582622

$$$$
ligand
     RDKit          3D

 52 56  0  0  0  0  0  0  0  0999 V2000
   18.9090   19.1540    7.5370 C   0  0  0  0  0  0  0  0  0  0  0  0
   18.7730   17.6460    7.6780 C   0  0  0  0  0  0  0  0  0  0  0  0
   20.0920   16.9590    7.6330 C   0  0  0  0  0  0  0  0  0  0  0  0
   20.6030   16.0010    8.4860 C   0  0  0  0  0  0  0  0  0  0  0  0
   21.8480   15.7420    7.9880 N   0  0  0  0  0  0  0  0  0  0  0  0
   22.9500   14.6560    8.6330 S   0  0  0  0  0  6  0  0  0  0  0  0
   23.7040   14.0980    7.5290 O   0  0  0  0  0  0  0  0  0  0  0  0
   22.1510   13.8230    9.5110 O   0  0  0  0  0  0  0  0  0  0  0  0
   24.0660   15.6160    9.6360 C   0  0  0  0  0  0  0  0  0  0  0  0
   23.6290   15.9200   10.9380 C   0  0  0  0  0  0  0  0  0  0  0  0
   24.4740   16.6600   11.7410 C   0  0  0  0  0  0  0  0  0  0  0  0
   25.7190   17.1010   11.3140 C   0  0  0  0  0  0  0  0  0  0  0  0
   26.1630   16.8030   10.0370 C   0  0  0  0  0  0  0  0  0  0  0  0
   25.3350   16.0490    9.1710 C   0  0  0  0  0  0  0  0  0  0  0  0
   25.8680   15.7550    7.8420 C   0  0  0  0  0  0  0  0  0  0  0  0
   26.6780   14.7230    7.4060 C   0  0  0  0  0  0  0  0  0  0  0  0
   26.9950   14.7360    6.0620 N   0  0  0  0  0  0  0  0  0  0  0  0
   26.4430   15.7840    5.4930 C   0  0  0  0  0  0  0  0  0  0  0  0
   25.5500   16.8190    6.5270 S   0  0  0  0  0  0  0  0  0  0  0  0
   26.3840   17.8870   12.3970 C   0  0  0  0  0  0  0  0  0  0  0  0
   25.4360   17.7710   13.4970 N   0  0  0  0  0  0  0  0  0  0  0  0
   25.4940   18.5990   14.6980 C   0  0  1  0  0  0  0  0  0  0  0  0
   26.3440   17.9750   15.8000 C   0  0  0  0  0  0  0  0  0  0  0  0
   26.2880   18.8550   17.0390 C   0  0  0  0  0  0  0  0  0  0  0  0
   26.7180   20.2690   16.7230 C   0  0  0  0  0  0  0  0  0  0  0  0
   27.3610   20.9530   17.5140 O   0  0  0  0  0  0  0  0  0  0  0  0
   26.3400   20.7680   15.5020 N   0  0  0  0  0  0  0  0  0  0  0  0
   26.0250   20.0120   14.3960 C   0  0  0  0  0  0  0  0  0  0  0  0
   26.1840   20.4670   13.2650 O   0  0  0  0  0  0  0  0  0  0  0  0
   24.2700   17.1250   13.1160 C   0  0  0  0  0  0  0  0  0  0  0  0
   23.2530   16.9630   13.7610 O   0  0  0  0  0  0  0  0  0  0  0  0
   22.0440   16.4780    6.8650 C   0  0  0  0  0  0  0  0  0  0  0  0
   21.0020   17.2500    6.6350 N   0  0  0  0  0  0  0  0  0  0  0  0
   18.9504   19.6134    8.5356 H   0  0  0  0  0  0  0  0  0  0  0  0
   19.8320   19.3891    6.9867 H   0  0  0  0  0  0  0  0  0  0  0  0
   18.0430   19.5504    6.9867 H   0  0  0  0  0  0  0  0  0  0  0  0
   18.2888   17.4218    8.6399 H   0  0  0  0  0  0  0  0  0  0  0  0
   18.1709   17.2795    6.8335 H   0  0  0  0  0  0  0  0  0  0  0  0
   20.1187   15.5501    9.3647 H   0  0  0  0  0  0  0  0  0  0  0  0
   22.6487   15.5802   11.3035 H   0  0  0  0  0  0  0  0  0  0  0  0
   27.1506   17.1491    9.6982 H   0  0  0  0  0  0  0  0  0  0  0  0
   27.0466   13.9412    8.0864 H   0  0  0  0  0  0  0  0  0  0  0  0
   26.5478   15.9852    4.4166 H   0  0  0  0  0  0  0  0  0  0  0  0
   27.3581   17.4512   12.6639 H   0  0  0  0  0  0  0  0  0  0  0  0
   26.6023   18.9272   12.1136 H   0  0  0  0  0  0  0  0  0  0  0  0
   24.4558   18.6693   15.0547 H   0  0  0  0  0  0  0  0  0  0  0  0
   25.9550   16.9749   16.0420 H   0  0  0  0  0  0  0  0  0  0  0  0
   27.3855   17.8886   15.4569 H   0  0  0  0  0  0  0  0  0  0  0  0
   25.2570   18.8703   17.4223 H   0  0  0  0  0  0  0  0  0  0  0  0
   26.9748   18.4414   17.7922 H   0  0  0  0  0  0  0  0  0  0  0  0
   26.2877   21.7921   15.4053 H   0  0  0  0  0  0  0  0  0  0  0  0
   22.9454   16.4359    6.2359 H   0  0  0  0  0  0  0  0  0  0  0  0
  1  2  1  0
  2  3  1  0
  3  4  2  0
  4  5  1  0
  5  6  1  0
  6  7  2  0
  6  8  2  0
  6  9  1  0
  9 10  2  0
 10 11  1  0
 11 12  2  0
 12 13  1  0
 13 14  2  0
 14 15  1  0
 15 16  2  0
 16 17  1  0
 17 18  2  0
 18 19  1  0
 12 20  1  0
 20 21  1  0
 21 22  1  0
 22 23  1  0
 23 24  1  0
 24 25  1  0
 25 26  2  0
 25 27  1  0
 27 28  1  0
 28 29  2  0
 21 30  1  0
 30 31  2  0
  5 32  1  0
 32 33  2  0
 33  3  1  0
 14  9  1  0
 19 15  1  0
 28 22  1  0
 30 11  1  0
  1 34  1  0
  1 35  1  0
  1 36  1  0
  2 37  1  0
  2 38  1  0
  4 39  1  0
 10 40  1  0
 13 41  1  0
 16 42  1  0
 18 43  1  0
 20 44  1  0
 20 45  1  0
 22 46  1  1
 23 47  1  0
 23 48  1  0
 24 49  1  0
 24 50  1  0
 27 51  1  0
 32 52  1  0
M  END
>  <meeko>  (157) 
{"is_sidechain": [true], "free_energy": -11.19, "intermolecular_energy": 0.0, "internal_energy": -11.19, "cluster_size": 19, "cluster_id": 1, "rank_in_cluster": 1}

>  <_RMSD_MCS_to_ref>  (157) 
0.8205863757094681

$$$$
ligand
     RDKit          3D

 49 52  0  0  0  0  0  0  0  0999 V2000
   18.9090   19.1540    7.5370 C   0  0  0  0  0  0  0  0  0  0  0  0
   18.7730   17.6460    7.6780 C   0  0  0  0  0  0  0  0  0  0  0  0
   20.0680   16.9430    7.4690 C   0  0  0  0  0  0  0  0  0  0  0  0
   20.8050   16.1950    8.3670 C   0  0  0  0  0  0  0  0  0  0  0  0
   21.9000   15.8000    7.6520 N   0  0  0  0  0  0  0  0  0  0  0  0
   23.0510   14.6890    8.1630 S   0  0  0  0  0  6  0  0  0  0  0  0
   24.1510   14.8110    7.2220 O   0  0  0  0  0  0  0  0  0  0  0  0
   22.3470   13.4430    8.3850 O   0  0  0  0  0  0  0  0  0  0  0  0
   23.5930   15.3260    9.7290 C   0  0  0  0  0  0  0  0  0  0  0  0
   22.8340   15.0480   10.8750 C   0  0  0  0  0  0  0  0  0  0  0  0
   23.2170   15.5500   12.1160 C   0  0  0  0  0  0  0  0  0  0  0  0
   24.3700   16.3470   12.2530 C   0  0  0  0  0  0  0  0  0  0  0  0
   24.6960   16.8620   13.6040 C   0  0  0  0  0  0  0  0  0  0  0  0
   24.5200   16.1590   14.5930 O   0  0  0  0  0  0  0  0  0  0  0  0
   25.1260   18.1660   13.6790 N   0  0  0  0  0  0  0  0  0  0  0  0
   25.3070   18.8310   14.9610 C   0  0  1  0  0  0  0  0  0  0  0  0
   26.3290   18.1180   15.8410 C   0  0  0  0  0  0  0  0  0  0  0  0
   26.4970   18.8820   17.1440 C   0  0  0  0  0  0  0  0  0  0  0  0
   26.8800   20.3220   16.8900 C   0  0  0  0  0  0  0  0  0  0  0  0
   27.6200   20.9500   17.6420 O   0  0  0  0  0  0  0  0  0  0  0  0
   26.3340   20.9160   15.7810 N   0  0  0  0  0  0  0  0  0  0  0  0
   25.7830   20.2640   14.7070 C   0  0  0  0  0  0  0  0  0  0  0  0
   25.6740   20.8190   13.6130 O   0  0  0  0  0  0  0  0  0  0  0  0
   25.1790   16.6010   11.1190 C   0  0  0  0  0  0  0  0  0  0  0  0
   26.4160   17.2730   10.8810 C   0  0  0  0  0  0  0  0  0  0  0  0
   26.7110   17.1730    9.5410 C   0  0  0  0  0  0  0  0  0  0  0  0
   25.7150   16.4520    8.9470 N   0  0  0  0  0  0  0  0  0  0  0  0
   24.7690   16.0850    9.8840 C   0  0  0  0  0  0  0  0  0  0  0  0
   21.7940   16.2630    6.3810 C   0  0  0  0  0  0  0  0  0  0  0  0
   20.6930   16.9710    6.2390 N   0  0  0  0  0  0  0  0  0  0  0  0
   18.9504   19.6134    8.5356 H   0  0  0  0  0  0  0  0  0  0  0  0
   19.8320   19.3891    6.9867 H   0  0  0  0  0  0  0  0  0  0  0  0
   18.0430   19.5504    6.9867 H   0  0  0  0  0  0  0  0  0  0  0  0
   18.4043   17.4165    8.6887 H   0  0  0  0  0  0  0  0  0  0  0  0
   18.0707   17.2966    6.9069 H   0  0  0  0  0  0  0  0  0  0  0  0
   20.5651   15.9694    9.4166 H   0  0  0  0  0  0  0  0  0  0  0  0
   21.9288   14.4284   10.7928 H   0  0  0  0  0  0  0  0  0  0  0  0
   22.6092   15.3204   13.0036 H   0  0  0  0  0  0  0  0  0  0  0  0
   25.3240   18.6827   12.8102 H   0  0  0  0  0  0  0  0  0  0  0  0
   24.3427   18.8179   15.4900 H   0  0  0  0  0  0  0  0  0  0  0  0
   25.9787   17.0978   16.0568 H   0  0  0  0  0  0  0  0  0  0  0  0
   27.2948   18.0711   15.3166 H   0  0  0  0  0  0  0  0  0  0  0  0
   25.5480   18.8561   17.6996 H   0  0  0  0  0  0  0  0  0  0  0  0
   27.3007   18.4059   17.7249 H   0  0  0  0  0  0  0  0  0  0  0  0
   26.3380   21.9456   15.7518 H   0  0  0  0  0  0  0  0  0  0  0  0
   27.0283   17.7833   11.6391 H   0  0  0  0  0  0  0  0  0  0  0  0
   27.5920   17.5980    9.0378 H   0  0  0  0  0  0  0  0  0  0  0  0
   25.6750   16.2160    7.9452 H   0  0  0  0  0  0  0  0  0  0  0  0
   22.5253   16.0735    5.5814 H   0  0  0  0  0  0  0  0  0  0  0  0
  1  2  1  0
  2  3  1  0
  3  4  2  0
  4  5  1  0
  5  6  1  0
  6  7  2  0
  6  8  2  0
  6  9  1  0
  9 10  2  0
 10 11  1  0
 11 12  2  0
 12 13  1  0
 13 14  2  0
 13 15  1  0
 15 16  1  0
 16 17  1  0
 17 18  1  0
 18 19  1  0
 19 20  2  0
 19 21  1  0
 21 22  1  0
 22 23  2  0
 12 24  1  0
 24 25  1  0
 25 26  2  0
 26 27  1  0
 27 28  1  0
  5 29  1  0
 29 30  2  0
 30  3  1  0
 28  9  1  0
 22 16  1  0
 28 24  2  0
  1 31  1  0
  1 32  1  0
  1 33  1  0
  2 34  1  0
  2 35  1  0
  4 36  1  0
 10 37  1  0
 11 38  1  0
 15 39  1  0
 16 40  1  1
 17 41  1  0
 17 42  1  0
 18 43  1  0
 18 44  1  0
 21 45  1  0
 25 46  1  0
 26 47  1  0
 27 48  1  0
 29 49  1  0
M  END
>  <meeko>  (158) 
{"is_sidechain": [true], "free_energy": -11.19, "intermolecular_energy": 0.0, "internal_energy": -11.19, "cluster_size": 18, "cluster_id": 1, "rank_in_cluster": 1}

>  <_RMSD_MCS_to_ref>  (158) 
0.7760585512704563

$$$$
ligand
     RDKit          3D

 50 53  0  0  0  0  0  0  0  0999 V2000
   18.9090   19.1540    7.5370 C   0  0  0  0  0  0  0  0  0  0  0  0
   18.7730   17.6460    7.6780 C   0  0  0  0  0  0  0  0  0  0  0  0
   20.0300   16.9340    7.3220 C   0  0  0  0  0  0  0  0  0  0  0  0
   21.1790   16.7750    8.0720 C   0  0  0  0  0  0  0  0  0  0  0  0
   22.0090   16.0530    7.2620 N   0  0  0  0  0  0  0  0  0  0  0  0
   23.5140   15.4360    7.6820 S   0  0  0  0  0  6  0  0  0  0  0  0
   24.4820   16.3630    7.1220 O   0  0  0  0  0  0  0  0  0  0  0  0
   23.4840   14.0330    7.3120 O   0  0  0  0  0  0  0  0  0  0  0  0
   23.5960   15.5500    9.4480 C   0  0  0  0  0  0  0  0  0  0  0  0
   24.6780   16.1590   10.0450 C   0  0  0  0  0  0  0  0  0  0  0  0
   24.6740   16.2210   11.4350 C   0  0  0  0  0  0  0  0  0  0  0  0
   23.6040   15.6740   12.1870 C   0  0  0  0  0  0  0  0  0  0  0  0
   23.5080   15.6930   13.6060 C   0  0  0  0  0  0  0  0  0  0  0  0
   24.5830   16.2800   14.4510 C   0  0  0  0  0  0  0  0  0  0  0  0
   25.3660   15.5710   15.0680 O   0  0  0  0  0  0  0  0  0  0  0  0
   24.6330   17.6560   14.4710 N   0  0  0  0  0  0  0  0  0  0  0  0
   25.7220   18.3640   15.1310 C   0  0  2  0  0  0  0  0  0  0  0  0
   25.7090   18.1630   16.6420 C   0  0  0  0  0  0  0  0  0  0  0  0
   26.8430   18.9580   17.2690 C   0  0  0  0  0  0  0  0  0  0  0  0
   26.7600   20.4190   16.8960 C   0  0  0  0  0  0  0  0  0  0  0  0
   27.1010   21.3160   17.6600 O   0  0  0  0  0  0  0  0  0  0  0  0
   26.3050   20.7050   15.6340 N   0  0  0  0  0  0  0  0  0  0  0  0
   25.5850   19.8600   14.8280 C   0  0  0  0  0  0  0  0  0  0  0  0
   24.8840   20.2910   13.9120 O   0  0  0  0  0  0  0  0  0  0  0  0
   22.4010   15.1310   14.2590 C   0  0  0  0  0  0  0  0  0  0  0  0
   21.3790   14.5570   13.5150 C   0  0  0  0  0  0  0  0  0  0  0  0
   21.4670   14.5420   12.1250 C   0  0  0  0  0  0  0  0  0  0  0  0
   22.5510   15.0830   11.4490 C   0  0  0  0  0  0  0  0  0  0  0  0
   22.5410   15.0190   10.1090 N   0  0  0  0  0  0  0  0  0  0  0  0
   21.3610   15.7640    6.1030 C   0  0  0  0  0  0  0  0  0  0  0  0
   20.1580   16.3020    6.1000 N   0  0  0  0  0  0  0  0  0  0  0  0
   18.9504   19.6134    8.5356 H   0  0  0  0  0  0  0  0  0  0  0  0
   19.8320   19.3891    6.9867 H   0  0  0  0  0  0  0  0  0  0  0  0
   18.0430   19.5504    6.9867 H   0  0  0  0  0  0  0  0  0  0  0  0
   18.5146   17.4093    8.7207 H   0  0  0  0  0  0  0  0  0  0  0  0
   17.9867   17.3110    6.9855 H   0  0  0  0  0  0  0  0  0  0  0  0
   21.3797   17.1449    9.0883 H   0  0  0  0  0  0  0  0  0  0  0  0
   25.5050   16.5760    9.4515 H   0  0  0  0  0  0  0  0  0  0  0  0
   25.5137   16.7017   11.9582 H   0  0  0  0  0  0  0  0  0  0  0  0
   23.8860   18.1952   14.0104 H   0  0  0  0  0  0  0  0  0  0  0  0
   26.6716   17.9614   14.7485 H   0  0  0  0  0  0  0  0  0  0  0  0
   24.7483   18.5106   17.0498 H   0  0  0  0  0  0  0  0  0  0  0  0
   25.8398   17.0950   16.8709 H   0  0  0  0  0  0  0  0  0  0  0  0
   26.7845   18.8636   18.3634 H   0  0  0  0  0  0  0  0  0  0  0  0
   27.7966   18.5575   16.8944 H   0  0  0  0  0  0  0  0  0  0  0  0
   26.5236   21.6385   15.2575 H   0  0  0  0  0  0  0  0  0  0  0  0
   22.3428   15.1450   15.3574 H   0  0  0  0  0  0  0  0  0  0  0  0
   20.5061   14.1172   14.0196 H   0  0  0  0  0  0  0  0  0  0  0  0
   20.6509   14.0867   11.5447 H   0  0  0  0  0  0  0  0  0  0  0  0
   21.7818   15.1648    5.2821 H   0  0  0  0  0  0  0  0  0  0  0  0
  1  2  1  0
  2  3  1  0
  3  4  2  0
  4  5  1  0
  5  6  1  0
  6  7  2  0
  6  8  2  0
  6  9  1  0
  9 10  2  0
 10 11  1  0
 11 12  2  0
 12 13  1  0
 13 14  1  0
 14 15  2  0
 14 16  1  0
 16 17  1  0
 17 18  1  0
 18 19  1  0
 19 20  1  0
 20 21  2  0
 20 22  1  0
 22 23  1  0
 23 24  2  0
 13 25  2  0
 25 26  1  0
 26 27  2  0
 27 28  1  0
 28 29  2  0
  5 30  1  0
 30 31  2  0
 31  3  1  0
 29  9  1  0
 28 12  1  0
 23 17  1  0
  1 32  1  0
  1 33  1  0
  1 34  1  0
  2 35  1  0
  2 36  1  0
  4 37  1  0
 10 38  1  0
 11 39  1  0
 16 40  1  0
 17 41  1  6
 18 42  1  0
 18 43  1  0
 19 44  1  0
 19 45  1  0
 22 46  1  0
 25 47  1  0
 26 48  1  0
 27 49  1  0
 30 50  1  0
M  END
>  <meeko>  (159) 
{"is_sidechain": [true], "free_energy": -11.19, "intermolecular_energy": 0.0, "internal_energy": -11.19, "cluster_size": 18, "cluster_id": 1, "rank_in_cluster": 1}

>  <_RMSD_MCS_to_ref>  (159) 
0.8050594180969918

$$$$
ligand
     RDKit          3D

 49 52  0  0  0  0  0  0  0  0999 V2000
   18.9090   19.1540    7.5370 C   0  0  0  0  0  0  0  0  0  0  0  0
   18.7730   17.6460    7.6780 C   0  0  0  0  0  0  0  0  0  0  0  0
   20.0870   16.9540    7.5920 C   0  0  0  0  0  0  0  0  0  0  0  0
   21.0650   16.8260    8.5600 C   0  0  0  0  0  0  0  0  0  0  0  0
   22.0530   16.1120    7.9440 N   0  0  0  0  0  0  0  0  0  0  0  0
   23.4440   15.5150    8.6720 S   0  0  0  0  0  6  0  0  0  0  0  0
   24.4500   16.5460    8.4870 O   0  0  0  0  0  0  0  0  0  0  0  0
   23.6090   14.1650    8.1650 O   0  0  0  0  0  0  0  0  0  0  0  0
   23.0680   15.4160   10.4000 C   0  0  0  0  0  0  0  0  0  0  0  0
   23.9580   15.9010   11.3290 C   0  0  0  0  0  0  0  0  0  0  0  0
   23.6020   15.7910   12.6800 C   0  0  0  0  0  0  0  0  0  0  0  0
   24.5900   16.3290   13.6650 C   0  0  0  0  0  0  0  0  0  0  0  0
   25.2040   15.5580   14.3950 O   0  0  0  0  0  0  0  0  0  0  0  0
   24.7750   17.6880   13.7170 N   0  0  0  0  0  0  0  0  0  0  0  0
   25.7970   18.3070   14.5430 C   0  0  2  0  0  0  0  0  0  0  0  0
   25.6140   17.9750   16.0200 C   0  0  0  0  0  0  0  0  0  0  0  0
   26.7030   18.6570   16.8340 C   0  0  0  0  0  0  0  0  0  0  0  0
   26.7130   20.1480   16.5930 C   0  0  0  0  0  0  0  0  0  0  0  0
   27.0100   20.9550   17.4680 O   0  0  0  0  0  0  0  0  0  0  0  0
   26.4010   20.5660   15.3240 N   0  0  0  0  0  0  0  0  0  0  0  0
   25.7470   19.8310   14.3660 C   0  0  0  0  0  0  0  0  0  0  0  0
   25.1820   20.3870   13.4250 O   0  0  0  0  0  0  0  0  0  0  0  0
   22.3830   15.2090   13.0660 C   0  0  0  0  0  0  0  0  0  0  0  0
   21.9960   15.0870   14.3650 N   0  0  0  0  0  0  0  0  0  0  0  0
   20.8000   14.5250   14.6400 C   0  0  0  0  0  0  0  0  0  0  0  0
   19.9460   14.0580   13.6670 C   0  0  0  0  0  0  0  0  0  0  0  0
   20.3470   14.1810   12.3400 C   0  0  0  0  0  0  0  0  0  0  0  0
   21.5620   14.7560   12.0070 C   0  0  0  0  0  0  0  0  0  0  0  0
   21.8830   14.8470   10.7050 N   0  0  0  0  0  0  0  0  0  0  0  0
   21.6570   15.8010    6.6830 C   0  0  0  0  0  0  0  0  0  0  0  0
   20.4690   16.3100    6.4310 N   0  0  0  0  0  0  0  0  0  0  0  0
   18.9504   19.6134    8.5356 H   0  0  0  0  0  0  0  0  0  0  0  0
   19.8320   19.3891    6.9867 H   0  0  0  0  0  0  0  0  0  0  0  0
   18.0430   19.5504    6.9867 H   0  0  0  0  0  0  0  0  0  0  0  0
   18.3170   17.4209    8.6534 H   0  0  0  0  0  0  0  0  0  0  0  0
   18.1454   17.2842    6.8503 H   0  0  0  0  0  0  0  0  0  0  0  0
   21.0509   17.2109    9.5904 H   0  0  0  0  0  0  0  0  0  0  0  0
   24.9114   16.3571   11.0240 H   0  0  0  0  0  0  0  0  0  0  0  0
   24.1653   18.2926   13.1481 H   0  0  0  0  0  0  0  0  0  0  0  0
   26.7706   17.9102   14.2193 H   0  0  0  0  0  0  0  0  0  0  0  0
   24.6287   18.3304   16.3560 H   0  0  0  0  0  0  0  0  0  0  0  0
   25.6798   16.8861   16.1610 H   0  0  0  0  0  0  0  0  0  0  0  0
   26.5239   18.4676   17.9027 H   0  0  0  0  0  0  0  0  0  0  0  0
   27.6763   18.2479   16.5251 H   0  0  0  0  0  0  0  0  0  0  0  0
   26.6842   21.5219   15.0653 H   0  0  0  0  0  0  0  0  0  0  0  0
   20.4931   14.4360   15.6926 H   0  0  0  0  0  0  0  0  0  0  0  0
   18.9794   13.6030   13.9292 H   0  0  0  0  0  0  0  0  0  0  0  0
   19.6863   13.8145   11.5405 H   0  0  0  0  0  0  0  0  0  0  0  0
   22.2471   15.2060    5.9704 H   0  0  0  0  0  0  0  0  0  0  0  0
  1  2  1  0
  2  3  1  0
  3  4  2  0
  4  5  1  0
  5  6  1  0
  6  7  2  0
  6  8  2  0
  6  9  1  0
  9 10  2  0
 10 11  1  0
 11 12  1  0
 12 13  2  0
 12 14  1  0
 14 15  1  0
 15 16  1  0
 16 17  1  0
 17 18  1  0
 18 19  2  0
 18 20  1  0
 20 21  1  0
 21 22  2  0
 11 23  2  0
 23 24  1  0
 24 25  2  0
 25 26  1  0
 26 27  2  0
 27 28  1  0
 28 29  2  0
  5 30  1  0
 30 31  2  0
 31  3  1  0
 29  9  1  0
 21 15  1  0
 28 23  1  0
  1 32  1  0
  1 33  1  0
  1 34  1  0
  2 35  1  0
  2 36  1  0
  4 37  1  0
 10 38  1  0
 14 39  1  0
 15 40  1  6
 16 41  1  0
 16 42  1  0
 17 43  1  0
 17 44  1  0
 20 45  1  0
 25 46  1  0
 26 47  1  0
 27 48  1  0
 30 49  1  0
M  END
>  <meeko>  (160) 
{"is_sidechain": [true], "free_energy": -11.19, "intermolecular_energy": 0.0, "internal_energy": -11.19, "cluster_size": 20, "cluster_id": 1, "rank_in_cluster": 1}

>  <_RMSD_MCS_to_ref>  (160) 
0.5553584428096865

$$$$
ligand
     RDKit          3D

 54 57  0  0  0  0  0  0  0  0999 V2000
   18.9090   19.1540    7.5370 C   0  0  0  0  0  0  0  0  0  0  0  0
   18.7730   17.6460    7.6780 C   0  0  0  0  0  0  0  0  0  0  0  0
   20.0940   16.9610    7.6790 C   0  0  0  0  0  0  0  0  0  0  0  0
   20.9230   16.6750    8.7460 C   0  0  0  0  0  0  0  0  0  0  0  0
   21.9860   16.0290    8.1800 N   0  0  0  0  0  0  0  0  0  0  0  0
   23.4220   15.6360    8.9580 S   0  0  0  0  0  6  0  0  0  0  0  0
   23.8470   14.3740    8.3850 O   0  0  0  0  0  0  0  0  0  0  0  0
   24.2430   16.8280    8.9120 O   0  0  0  0  0  0  0  0  0  0  0  0
   22.9220   15.3550   10.6350 C   0  0  0  0  0  0  0  0  0  0  0  0
   21.8620   14.4880   10.9030 C   0  0  0  0  0  0  0  0  0  0  0  0
   21.4670   14.2520   12.2290 C   0  0  0  0  0  0  0  0  0  0  0  0
   22.1530   14.8690   13.2980 C   0  0  0  0  0  0  0  0  0  0  0  0
   23.1880   15.7870   12.9990 C   0  0  0  0  0  0  0  0  0  0  0  0
   23.9180   16.4810   14.0980 C   0  0  0  0  0  0  0  0  0  0  0  0
   24.2190   15.8840   15.1260 O   0  0  0  0  0  0  0  0  0  0  0  0
   24.2070   17.8120   13.8850 N   0  0  0  0  0  0  0  0  0  0  0  0
   24.7520   18.6360   14.9560 C   0  0  1  0  0  0  0  0  0  0  0  0
   25.8900   17.9410   15.6960 C   0  0  0  0  0  0  0  0  0  0  0  0
   26.4370   18.8670   16.7710 C   0  0  0  0  0  0  0  0  0  0  0  0
   26.8730   20.1900   16.1850 C   0  0  0  0  0  0  0  0  0  0  0  0
   27.8230   20.8270   16.6310 O   0  0  0  0  0  0  0  0  0  0  0  0
   26.1310   20.6720   15.1370 N   0  0  0  0  0  0  0  0  0  0  0  0
   25.2750   19.9420   14.3500 C   0  0  0  0  0  0  0  0  0  0  0  0
   24.9440   20.3360   13.2320 O   0  0  0  0  0  0  0  0  0  0  0  0
   23.5810   16.0180   11.6710 C   0  0  0  0  0  0  0  0  0  0  0  0
   21.7040   14.6950   14.6230 N   0  0  0  0  0  0  0  0  0  0  0  0
   20.9160   13.5020   14.8950 C   0  0  0  0  0  0  0  0  0  0  0  0
   19.7740   13.4100   13.8980 C   0  0  0  0  0  0  0  0  0  0  0  0
   20.3390   13.2800   12.4890 C   0  0  0  0  0  0  0  0  0  0  0  0
   21.8110   15.9790    6.8350 C   0  0  0  0  0  0  0  0  0  0  0  0
   20.6640   16.5290    6.4980 N   0  0  0  0  0  0  0  0  0  0  0  0
   18.9504   19.6134    8.5356 H   0  0  0  0  0  0  0  0  0  0  0  0
   19.8320   19.3891    6.9867 H   0  0  0  0  0  0  0  0  0  0  0  0
   18.0430   19.5504    6.9867 H   0  0  0  0  0  0  0  0  0  0  0  0
   18.2577   17.4235    8.6240 H   0  0  0  0  0  0  0  0  0  0  0  0
   18.2009   17.2759    6.8144 H   0  0  0  0  0  0  0  0  0  0  0  0
   20.7640   16.9127    9.8082 H   0  0  0  0  0  0  0  0  0  0  0  0
   21.3361   13.9896   10.0753 H   0  0  0  0  0  0  0  0  0  0  0  0
   24.0358   18.2285   12.9587 H   0  0  0  0  0  0  0  0  0  0  0  0
   23.9484   18.8259   15.6828 H   0  0  0  0  0  0  0  0  0  0  0  0
   25.5141   17.0188   16.1632 H   0  0  0  0  0  0  0  0  0  0  0  0
   26.6913   17.6920   14.9847 H   0  0  0  0  0  0  0  0  0  0  0  0
   25.6530   19.0481   17.5210 H   0  0  0  0  0  0  0  0  0  0  0  0
   27.3122   18.3857   17.2319 H   0  0  0  0  0  0  0  0  0  0  0  0
   26.2246   21.6746   14.9203 H   0  0  0  0  0  0  0  0  0  0  0  0
   24.4017   16.7160   11.4491 H   0  0  0  0  0  0  0  0  0  0  0  0
   21.9228   15.3783   15.3620 H   0  0  0  0  0  0  0  0  0  0  0  0
   21.5554   12.6116   14.8030 H   0  0  0  0  0  0  0  0  0  0  0  0
   20.5080   13.5573   15.9150 H   0  0  0  0  0  0  0  0  0  0  0  0
   19.1565   12.5293   14.1281 H   0  0  0  0  0  0  0  0  0  0  0  0
   19.1565   14.3180   13.9630 H   0  0  0  0  0  0  0  0  0  0  0  0
   20.7166   12.2559   12.3528 H   0  0  0  0  0  0  0  0  0  0  0  0
   19.5292   13.5083   11.7804 H   0  0  0  0  0  0  0  0  0  0  0  0
   22.5279   15.5400    6.1256 H   0  0  0  0  0  0  0  0  0  0  0  0
  1  2  1  0
  2  3  1  0
  3  4  2  0
  4  5  1  0
  5  6  1  0
  6  7  2  0
  6  8  2  0
  6  9  1  0
  9 10  2  0
 10 11  1  0
 11 12  2  0
 12 13  1  0
 13 14  1  0
 14 15  2  0
 14 16  1  0
 16 17  1  0
 17 18  1  0
 18 19  1  0
 19 20  1  0
 20 21  2  0
 20 22  1  0
 22 23  1  0
 23 24  2  0
 13 25  2  0
 12 26  1  0
 26 27  1  0
 27 28  1  0
 28 29  1  0
  5 30  1  0
 30 31  2  0
 31  3  1  0
 25  9  1  0
 29 11  1  0
 23 17  1  0
  1 32  1  0
  1 33  1  0
  1 34  1  0
  2 35  1  0
  2 36  1  0
  4 37  1  0
 10 38  1  0
 16 39  1  0
 17 40  1  1
 18 41  1  0
 18 42  1  0
 19 43  1  0
 19 44  1  0
 22 45  1  0
 25 46  1  0
 26 47  1  0
 27 48  1  0
 27 49  1  0
 28 50  1  0
 28 51  1  0
 29 52  1  0
 29 53  1  0
 30 54  1  0
M  END
>  <meeko>  (161) 
{"is_sidechain": [true], "free_energy": -11.19, "intermolecular_energy": 0.0, "internal_energy": -11.19, "cluster_size": 20, "cluster_id": 1, "rank_in_cluster": 1}

>  <_RMSD_MCS_to_ref>  (161) 
0.43689090934312996

$$$$
ligand
     RDKit          3D

 53 56  0  0  0  0  0  0  0  0999 V2000
   18.9090   19.1540    7.5370 C   0  0  0  0  0  0  0  0  0  0  0  0
   18.7730   17.6460    7.6780 C   0  0  0  0  0  0  0  0  0  0  0  0
   20.0870   16.9530    7.5950 C   0  0  0  0  0  0  0  0  0  0  0  0
   20.9560   16.6160    8.6130 C   0  0  0  0  0  0  0  0  0  0  0  0
   21.9880   15.9850    7.9790 N   0  0  0  0  0  0  0  0  0  0  0  0
   23.4510   15.5380    8.6730 S   0  0  0  0  0  6  0  0  0  0  0  0
   24.3730   16.6140    8.3610 O   0  0  0  0  0  0  0  0  0  0  0  0
   23.6900   14.1680    8.2680 O   0  0  0  0  0  0  0  0  0  0  0  0
   23.1190   15.5590   10.4140 C   0  0  0  0  0  0  0  0  0  0  0  0
   22.1320   14.7280   10.9450 C   0  0  0  0  0  0  0  0  0  0  0  0
   21.8670   14.7490   12.3220 C   0  0  0  0  0  0  0  0  0  0  0  0
   22.6130   15.5970   13.1640 C   0  0  0  0  0  0  0  0  0  0  0  0
   23.5900   16.4570   12.6200 C   0  0  0  0  0  0  0  0  0  0  0  0
   24.4270   17.4080   13.4210 C   0  0  0  0  0  0  0  0  0  0  0  0
   25.5620   17.6910   13.0470 O   0  0  0  0  0  0  0  0  0  0  0  0
   23.8830   17.9350   14.5650 N   0  0  0  0  0  0  0  0  0  0  0  0
   24.6560   18.7430   15.4930 C   0  0  1  0  0  0  0  0  0  0  0  0
   25.7760   17.9440   16.1500 C   0  0  0  0  0  0  0  0  0  0  0  0
   26.5600   18.8470   17.0890 C   0  0  0  0  0  0  0  0  0  0  0  0
   27.0870   20.0630   16.3680 C   0  0  0  0  0  0  0  0  0  0  0  0
   28.1550   20.5920   16.6610 O   0  0  0  0  0  0  0  0  0  0  0  0
   26.2950   20.5800   15.3740 N   0  0  0  0  0  0  0  0  0  0  0  0
   25.2640   19.9300   14.7380 C   0  0  0  0  0  0  0  0  0  0  0  0
   24.8620   20.3100   13.6390 O   0  0  0  0  0  0  0  0  0  0  0  0
   23.8340   16.4300   11.2370 C   0  0  0  0  0  0  0  0  0  0  0  0
   22.3900   15.6380   14.5190 O   0  0  0  0  0  0  0  0  0  0  0  0
   21.6800   14.5250   15.0690 C   0  0  0  0  0  0  0  0  0  0  0  0
   20.4140   14.2400   14.2850 C   0  0  0  0  0  0  0  0  0  0  0  0
   20.8040   13.8360   12.8730 C   0  0  0  0  0  0  0  0  0  0  0  0
   21.7580   15.9920    6.6410 C   0  0  0  0  0  0  0  0  0  0  0  0
   20.6030   16.5660    6.3730 N   0  0  0  0  0  0  0  0  0  0  0  0
   18.9504   19.6134    8.5356 H   0  0  0  0  0  0  0  0  0  0  0  0
   19.8320   19.3891    6.9867 H   0  0  0  0  0  0  0  0  0  0  0  0
   18.0430   19.5504    6.9867 H   0  0  0  0  0  0  0  0  0  0  0  0
   18.3149   17.4212    8.6525 H   0  0  0  0  0  0  0  0  0  0  0  0
   18.1475   17.2843    6.8486 H   0  0  0  0  0  0  0  0  0  0  0  0
   20.8431   16.8112    9.6896 H   0  0  0  0  0  0  0  0  0  0  0  0
   21.5626   14.0574   10.2846 H   0  0  0  0  0  0  0  0  0  0  0  0
   22.8912   17.7513   14.7735 H   0  0  0  0  0  0  0  0  0  0  0  0
   23.9771   19.0891   16.2863 H   0  0  0  0  0  0  0  0  0  0  0  0
   25.3443   17.1084   16.7204 H   0  0  0  0  0  0  0  0  0  0  0  0
   26.4487   17.5498   15.3741 H   0  0  0  0  0  0  0  0  0  0  0  0
   25.9001   19.1732   17.9064 H   0  0  0  0  0  0  0  0  0  0  0  0
   27.4158   18.2790   17.4826 H   0  0  0  0  0  0  0  0  0  0  0  0
   26.4914   21.5463   15.0762 H   0  0  0  0  0  0  0  0  0  0  0  0
   24.5915   17.0979   10.8011 H   0  0  0  0  0  0  0  0  0  0  0  0
   22.3277   13.6364   15.0397 H   0  0  0  0  0  0  0  0  0  0  0  0
   21.4007   14.7678   16.1049 H   0  0  0  0  0  0  0  0  0  0  0  0
   19.8564   13.4221   14.7646 H   0  0  0  0  0  0  0  0  0  0  0  0
   19.7763   15.1359   14.2589 H   0  0  0  0  0  0  0  0  0  0  0  0
   21.1879   12.8052   12.8873 H   0  0  0  0  0  0  0  0  0  0  0  0
   19.9140   13.9083   12.2305 H   0  0  0  0  0  0  0  0  0  0  0  0
   22.4411   15.5762    5.8857 H   0  0  0  0  0  0  0  0  0  0  0  0
  1  2  1  0
  2  3  1  0
  3  4  2  0
  4  5  1  0
  5  6  1  0
  6  7  2  0
  6  8  2  0
  6  9  1  0
  9 10  2  0
 10 11  1  0
 11 12  2  0
 12 13  1  0
 13 14  1  0
 14 15  2  0
 14 16  1  0
 16 17  1  0
 17 18  1  0
 18 19  1  0
 19 20  1  0
 20 21  2  0
 20 22  1  0
 22 23  1  0
 23 24  2  0
 13 25  2  0
 12 26  1  0
 26 27  1  0
 27 28  1  0
 28 29  1  0
  5 30  1  0
 30 31  2  0
 31  3  1  0
 25  9  1  0
 29 11  1  0
 23 17  1  0
  1 32  1  0
  1 33  1  0
  1 34  1  0
  2 35  1  0
  2 36  1  0
  4 37  1  0
 10 38  1  0
 16 39  1  0
 17 40  1  1
 18 41  1  0
 18 42  1  0
 19 43  1  0
 19 44  1  0
 22 45  1  0
 25 46  1  0
 27 47  1  0
 27 48  1  0
 28 49  1  0
 28 50  1  0
 29 51  1  0
 29 52  1  0
 30 53  1  0
M  END
>  <meeko>  (162) 
{"is_sidechain": [true], "free_energy": -11.19, "intermolecular_energy": 0.0, "internal_energy": -11.19, "cluster_size": 20, "cluster_id": 1, "rank_in_cluster": 1}

>  <_RMSD_MCS_to_ref>  (162) 
0.719060034582185

$$$$
ligand
     RDKit          3D

 58 62  0  0  0  0  0  0  0  0999 V2000
   18.8250   19.0180    7.5350 C   0  0  0  0  0  0  0  0  0  0  0  0
   18.5200   17.5410    7.7330 C   0  0  0  0  0  0  0  0  0  0  0  0
   19.7560   16.7210    7.8510 C   0  0  0  0  0  0  0  0  0  0  0  0
   20.1990   15.9640    8.9170 C   0  0  0  0  0  0  0  0  0  0  0  0
   21.3790   15.4310    8.4850 N   0  0  0  0  0  0  0  0  0  0  0  0
   22.2360   14.1950    9.2410 S   0  0  0  0  0  6  0  0  0  0  0  0
   21.2800   13.1220    9.4270 O   0  0  0  0  0  0  0  0  0  0  0  0
   23.4610   14.0320    8.4840 O   0  0  0  0  0  0  0  0  0  0  0  0
   22.6430   14.8910   10.8190 C   0  0  0  0  0  0  0  0  0  0  0  0
   21.7020   14.8020   11.8660 C   0  0  0  0  0  0  0  0  0  0  0  0
   22.0020   15.3020   13.1410 C   0  0  0  0  0  0  0  0  0  0  0  0
   21.0380   15.1710   14.2280 C   0  0  0  0  0  0  0  0  0  0  0  0
   20.5250   13.9900   14.6040 C   0  0  0  0  0  0  0  0  0  0  0  0
   19.5080   13.8140   15.6830 C   0  0  0  0  0  0  0  0  0  0  0  0
   18.8610   12.5140   15.2540 C   0  0  0  0  0  0  0  0  0  0  0  0
   19.9240   11.7300   14.6990 O   0  0  0  0  0  0  0  0  0  0  0  0
   20.7900   12.6420   14.0030 C   0  0  0  0  0  0  0  0  0  0  0  0
   23.2430   15.8910   13.3320 C   0  0  0  0  0  0  0  0  0  0  0  0
   24.1480   15.9850   12.2740 C   0  0  0  0  0  0  0  0  0  0  0  0
   23.8840   15.5030   11.0070 C   0  0  0  0  0  0  0  0  0  0  0  0
   25.3580   16.6520   12.7650 C   0  0  0  0  0  0  0  0  0  0  0  0
   26.3190   16.9370   12.0790 O   0  0  0  0  0  0  0  0  0  0  0  0
   25.1740   16.8720   14.1210 N   0  0  0  0  0  0  0  0  0  0  0  0
   26.0600   17.7420   14.8850 C   0  0  2  0  0  0  0  0  0  0  0  0
   25.8030   17.6640   16.3880 C   0  0  0  0  0  0  0  0  0  0  0  0
   26.8170   18.5310   17.1190 C   0  0  0  0  0  0  0  0  0  0  0  0
   26.7830   19.9540   16.6120 C   0  0  0  0  0  0  0  0  0  0  0  0
   26.9500   20.9190   17.3510 O   0  0  0  0  0  0  0  0  0  0  0  0
   26.5670   20.1220   15.2670 N   0  0  0  0  0  0  0  0  0  0  0  0
   25.9550   19.2100   14.4370 C   0  0  0  0  0  0  0  0  0  0  0  0
   25.3690   19.5880   13.4260 O   0  0  0  0  0  0  0  0  0  0  0  0
   23.8330   16.5070   14.5600 C   0  0  0  0  0  0  0  0  0  0  0  0
   21.6040   15.8280    7.2060 C   0  0  0  0  0  0  0  0  0  0  0  0
   20.6370   16.6190    6.7910 N   0  0  0  0  0  0  0  0  0  0  0  0
   18.9258   19.5062    8.5155 H   0  0  0  0  0  0  0  0  0  0  0  0
   19.7645   19.1263    6.9731 H   0  0  0  0  0  0  0  0  0  0  0  0
   18.0053   19.4896    6.9731 H   0  0  0  0  0  0  0  0  0  0  0  0
   17.9273   17.4221    8.6520 H   0  0  0  0  0  0  0  0  0  0  0  0
   17.9659   17.1901    6.8500 H   0  0  0  0  0  0  0  0  0  0  0  0
   19.7117   15.8225    9.8930 H   0  0  0  0  0  0  0  0  0  0  0  0
   20.7232   14.3357   11.6803 H   0  0  0  0  0  0  0  0  0  0  0  0
   20.7185   16.0784   14.7615 H   0  0  0  0  0  0  0  0  0  0  0  0
   19.9794   13.7242   16.6728 H   0  0  0  0  0  0  0  0  0  0  0  0
   18.8090   14.6564   15.7917 H   0  0  0  0  0  0  0  0  0  0  0  0
   18.4148   12.0014   16.1190 H   0  0  0  0  0  0  0  0  0  0  0  0
   18.0499   12.6782   14.5293 H   0  0  0  0  0  0  0  0  0  0  0  0
   21.8427   12.3576   14.1477 H   0  0  0  0  0  0  0  0  0  0  0  0
   20.6005   12.6357   12.9195 H   0  0  0  0  0  0  0  0  0  0  0  0
   24.6132   15.5963   10.1887 H   0  0  0  0  0  0  0  0  0  0  0  0
   27.0761   17.3732   14.6814 H   0  0  0  0  0  0  0  0  0  0  0  0
   24.7869   18.0246   16.6059 H   0  0  0  0  0  0  0  0  0  0  0  0
   25.9007   16.6212   16.7241 H   0  0  0  0  0  0  0  0  0  0  0  0
   26.5841   18.5271   18.1940 H   0  0  0  0  0  0  0  0  0  0  0  0
   27.8215   18.1203   16.9392 H   0  0  0  0  0  0  0  0  0  0  0  0
   26.8896   21.0037   14.8435 H   0  0  0  0  0  0  0  0  0  0  0  0
   23.8695   15.7841   15.3883 H   0  0  0  0  0  0  0  0  0  0  0  0
   23.2520   17.3584   14.9442 H   0  0  0  0  0  0  0  0  0  0  0  0
   22.4731   15.5302    6.6011 H   0  0  0  0  0  0  0  0  0  0  0  0
  1  2  1  0
  2  3  1  0
  3  4  2  0
  4  5  1  0
  5  6  1  0
  6  7  2  0
  6  8  2  0
  6  9  1  0
  9 10  2  0
 10 11  1  0
 11 12  1  0
 12 13  2  0
 13 14  1  0
 14 15  1  0
 15 16  1  0
 16 17  1  0
 11 18  2  0
 18 19  1  0
 19 20  2  0
 19 21  1  0
 21 22  2  0
 21 23  1  0
 23 24  1  0
 24 25  1  0
 25 26  1  0
 26 27  1  0
 27 28  2  0
 27 29  1  0
 29 30  1  0
 30 31  2  0
 23 32  1  0
  5 33  1  0
 33 34  2  0
 34  3  1  0
 20  9  1  0
 30 24  1  0
 17 13  1  0
 32 18  1  0
  1 35  1  0
  1 36  1  0
  1 37  1  0
  2 38  1  0
  2 39  1  0
  4 40  1  0
 10 41  1  0
 12 42  1  0
 14 43  1  0
 14 44  1  0
 15 45  1  0
 15 46  1  0
 17 47  1  0
 17 48  1  0
 20 49  1  0
 24 50  1  1
 25 51  1  0
 25 52  1  0
 26 53  1  0
 26 54  1  0
 29 55  1  0
 32 56  1  0
 32 57  1  0
 33 58  1  0
M  END
>  <meeko>  (163) 
{"is_sidechain": [true], "free_energy": -11.18, "intermolecular_energy": 0.0, "internal_energy": -11.18, "cluster_size": 14, "cluster_id": 1, "rank_in_cluster": 1}

>  <_RMSD_MCS_to_ref>  (163) 
1.9536322154728443

$$$$
ligand
     RDKit          3D

 51 54  0  0  0  0  0  0  0  0999 V2000
   18.9090   19.1540    7.5370 C   0  0  0  0  0  0  0  0  0  0  0  0
   18.7730   17.6460    7.6780 C   0  0  0  0  0  0  0  0  0  0  0  0
   20.0570   16.9410    7.4180 C   0  0  0  0  0  0  0  0  0  0  0  0
   20.9740   16.4420    8.3230 C   0  0  0  0  0  0  0  0  0  0  0  0
   21.9480   15.8900    7.5430 N   0  0  0  0  0  0  0  0  0  0  0  0
   23.2950   15.0330    8.0650 S   0  0  0  0  0  6  0  0  0  0  0  0
   22.8610   13.6480    8.0580 O   0  0  0  0  0  0  0  0  0  0  0  0
   24.4180   15.4830    7.2660 O   0  0  0  0  0  0  0  0  0  0  0  0
   23.5340   15.5510    9.7580 C   0  0  0  0  0  0  0  0  0  0  0  0
   24.6490   16.3710    9.9960 C   0  0  0  0  0  0  0  0  0  0  0  0
   24.9460   16.7810   11.2850 C   0  0  0  0  0  0  0  0  0  0  0  0
   24.1310   16.3790   12.3470 C   0  0  0  0  0  0  0  0  0  0  0  0
   24.5210   16.9120   13.6750 C   0  0  0  0  0  0  0  0  0  0  0  0
   24.5230   16.1820   14.6590 O   0  0  0  0  0  0  0  0  0  0  0  0
   24.9240   18.2250   13.6940 N   0  0  0  0  0  0  0  0  0  0  0  0
   25.2610   18.9020   14.9370 C   0  0  1  0  0  0  0  0  0  0  0  0
   26.3250   18.1500   15.7270 C   0  0  0  0  0  0  0  0  0  0  0  0
   26.6520   18.9210   16.9970 C   0  0  0  0  0  0  0  0  0  0  0  0
   27.0750   20.3370   16.6860 C   0  0  0  0  0  0  0  0  0  0  0  0
   27.9120   20.9370   17.3540 O   0  0  0  0  0  0  0  0  0  0  0  0
   26.4540   20.9450   15.6240 N   0  0  0  0  0  0  0  0  0  0  0  0
   25.7740   20.3090   14.6160 C   0  0  0  0  0  0  0  0  0  0  0  0
   25.5880   20.8560   13.5290 O   0  0  0  0  0  0  0  0  0  0  0  0
   23.0070   15.5350   12.1460 C   0  0  0  0  0  0  0  0  0  0  0  0
   22.2130   15.0600   13.2210 C   0  0  0  0  0  0  0  0  0  0  0  0
   21.0900   14.2630   13.0180 C   0  0  0  0  0  0  0  0  0  0  0  0
   20.7280   13.9160   11.7310 C   0  0  0  0  0  0  0  0  0  0  0  0
   21.5070   14.3430   10.6530 C   0  0  0  0  0  0  0  0  0  0  0  0
   22.6750   15.1330   10.8180 C   0  0  0  0  0  0  0  0  0  0  0  0
   21.6330   16.0780    6.2360 C   0  0  0  0  0  0  0  0  0  0  0  0
   20.4800   16.7040    6.1240 N   0  0  0  0  0  0  0  0  0  0  0  0
   18.9504   19.6134    8.5356 H   0  0  0  0  0  0  0  0  0  0  0  0
   19.8320   19.3891    6.9867 H   0  0  0  0  0  0  0  0  0  0  0  0
   18.0430   19.5504    6.9867 H   0  0  0  0  0  0  0  0  0  0  0  0
   18.4419   17.4139    8.7010 H   0  0  0  0  0  0  0  0  0  0  0  0
   18.0406   17.3011    6.9332 H   0  0  0  0  0  0  0  0  0  0  0  0
   20.9291   16.4808    9.4214 H   0  0  0  0  0  0  0  0  0  0  0  0
   25.2870   16.6879    9.1578 H   0  0  0  0  0  0  0  0  0  0  0  0
   25.8207   17.4211   11.4725 H   0  0  0  0  0  0  0  0  0  0  0  0
   24.9892   18.7432   12.8062 H   0  0  0  0  0  0  0  0  0  0  0  0
   24.3523   18.9476   15.5553 H   0  0  0  0  0  0  0  0  0  0  0  0
   25.9480   17.1509   15.9912 H   0  0  0  0  0  0  0  0  0  0  0  0
   27.2334   18.0487   15.1150 H   0  0  0  0  0  0  0  0  0  0  0  0
   25.7601   18.9466   17.6403 H   0  0  0  0  0  0  0  0  0  0  0  0
   27.4848   18.4139   17.5062 H   0  0  0  0  0  0  0  0  0  0  0  0
   26.5028   21.9729   15.5794 H   0  0  0  0  0  0  0  0  0  0  0  0
   22.4941   15.3305   14.2495 H   0  0  0  0  0  0  0  0  0  0  0  0
   20.4961   13.9126   13.8750 H   0  0  0  0  0  0  0  0  0  0  0  0
   19.8297   13.3058   11.5556 H   0  0  0  0  0  0  0  0  0  0  0  0
   21.2033   14.0557    9.6356 H   0  0  0  0  0  0  0  0  0  0  0  0
   22.2544   15.7527    5.3886 H   0  0  0  0  0  0  0  0  0  0  0  0
  1  2  1  0
  2  3  1  0
  3  4  2  0
  4  5  1  0
  5  6  1  0
  6  7  2  0
  6  8  2  0
  6  9  1  0
  9 10  2  0
 10 11  1  0
 11 12  2  0
 12 13  1  0
 13 14  2  0
 13 15  1  0
 15 16  1  0
 16 17  1  0
 17 18  1  0
 18 19  1  0
 19 20  2  0
 19 21  1  0
 21 22  1  0
 22 23  2  0
 12 24  1  0
 24 25  2  0
 25 26  1  0
 26 27  2  0
 27 28  1  0
 28 29  2  0
  5 30  1  0
 30 31  2  0
 31  3  1  0
 29  9  1  0
 22 16  1  0
 29 24  1  0
  1 32  1  0
  1 33  1  0
  1 34  1  0
  2 35  1  0
  2 36  1  0
  4 37  1  0
 10 38  1  0
 11 39  1  0
 15 40  1  0
 16 41  1  1
 17 42  1  0
 17 43  1  0
 18 44  1  0
 18 45  1  0
 21 46  1  0
 25 47  1  0
 26 48  1  0
 27 49  1  0
 28 50  1  0
 30 51  1  0
M  END
>  <meeko>  (164) 
{"is_sidechain": [true], "free_energy": -11.18, "intermolecular_energy": 0.0, "internal_energy": -11.18, "cluster_size": 14, "cluster_id": 1, "rank_in_cluster": 1}

>  <_RMSD_MCS_to_ref>  (164) 
0.7684746796956515

$$$$
ligand
     RDKit          3D

 46 49  0  0  0  0  0  0  0  0999 V2000
   18.9090   19.1540    7.5370 C   0  0  0  0  0  0  0  0  0  0  0  0
   18.7730   17.6460    7.6780 C   0  0  0  0  0  0  0  0  0  0  0  0
   20.0950   16.9620    7.6780 C   0  0  0  0  0  0  0  0  0  0  0  0
   20.9440   16.7150    8.7390 C   0  0  0  0  0  0  0  0  0  0  0  0
   22.0010   16.0560    8.1760 N   0  0  0  0  0  0  0  0  0  0  0  0
   23.4350   15.6360    8.9470 S   0  0  0  0  0  6  0  0  0  0  0  0
   23.8250   14.3690    8.3510 O   0  0  0  0  0  0  0  0  0  0  0  0
   24.2630   16.8260    8.8680 O   0  0  0  0  0  0  0  0  0  0  0  0
   22.9630   15.3640   10.6430 C   0  0  0  0  0  0  0  0  0  0  0  0
   23.8300   15.8280   11.5560 N   0  0  0  0  0  0  0  0  0  0  0  0
   23.4950   15.6550   12.8630 C   0  0  0  0  0  0  0  0  0  0  0  0
   24.4680   16.1770   13.8670 C   0  0  0  0  0  0  0  0  0  0  0  0
   24.9740   15.4740   14.7320 O   0  0  0  0  0  0  0  0  0  0  0  0
   24.7610   17.5190   13.7370 N   0  0  0  0  0  0  0  0  0  0  0  0
   25.7880   18.1710   14.5290 C   0  0  2  0  0  0  0  0  0  0  0  0
   25.6150   17.9050   16.0210 C   0  0  0  0  0  0  0  0  0  0  0  0
   26.7030   18.6310   16.7970 C   0  0  0  0  0  0  0  0  0  0  0  0
   26.7050   20.1100   16.4860 C   0  0  0  0  0  0  0  0  0  0  0  0
   27.0120   20.9560   17.3200 O   0  0  0  0  0  0  0  0  0  0  0  0
   26.3750   20.4690   15.2040 N   0  0  0  0  0  0  0  0  0  0  0  0
   25.7310   19.6820   14.2810 C   0  0  0  0  0  0  0  0  0  0  0  0
   25.1630   20.1810   13.3100 O   0  0  0  0  0  0  0  0  0  0  0  0
   22.2960   15.0220   13.1930 C   0  0  0  0  0  0  0  0  0  0  0  0
   21.5730   14.6470   14.7110 S   0  0  0  0  0  0  0  0  0  0  0  0
   20.2090   13.9260   13.9840 C   0  0  0  0  0  0  0  0  0  0  0  0
   20.2830   13.9600   12.6120 C   0  0  0  0  0  0  0  0  0  0  0  0
   21.4760   14.5860   12.1480 C   0  0  0  0  0  0  0  0  0  0  0  0
   21.7920   14.7490   10.8400 N   0  0  0  0  0  0  0  0  0  0  0  0
   21.7940   15.9470    6.8380 C   0  0  0  0  0  0  0  0  0  0  0  0
   20.6390   16.4820    6.5030 N   0  0  0  0  0  0  0  0  0  0  0  0
   18.9504   19.6134    8.5356 H   0  0  0  0  0  0  0  0  0  0  0  0
   19.8320   19.3891    6.9867 H   0  0  0  0  0  0  0  0  0  0  0  0
   18.0430   19.5504    6.9867 H   0  0  0  0  0  0  0  0  0  0  0  0
   18.2584   17.4232    8.6244 H   0  0  0  0  0  0  0  0  0  0  0  0
   18.2000   17.2755    6.8152 H   0  0  0  0  0  0  0  0  0  0  0  0
   20.8021   16.9865    9.7955 H   0  0  0  0  0  0  0  0  0  0  0  0
   24.2317   18.0785   13.0531 H   0  0  0  0  0  0  0  0  0  0  0  0
   26.7610   17.7599   14.2221 H   0  0  0  0  0  0  0  0  0  0  0  0
   24.6289   18.2683   16.3459 H   0  0  0  0  0  0  0  0  0  0  0  0
   25.6895   16.8241   16.2109 H   0  0  0  0  0  0  0  0  0  0  0  0
   26.5288   18.4915   17.8741 H   0  0  0  0  0  0  0  0  0  0  0  0
   27.6771   18.2129   16.5031 H   0  0  0  0  0  0  0  0  0  0  0  0
   26.6350   21.4197   14.9050 H   0  0  0  0  0  0  0  0  0  0  0  0
   19.3712   13.4868   14.5454 H   0  0  0  0  0  0  0  0  0  0  0  0
   19.5085   13.5501   11.9470 H   0  0  0  0  0  0  0  0  0  0  0  0
   22.4945   15.4768    6.1322 H   0  0  0  0  0  0  0  0  0  0  0  0
  1  2  1  0
  2  3  1  0
  3  4  2  0
  4  5  1  0
  5  6  1  0
  6  7  2  0
  6  8  2  0
  6  9  1  0
  9 10  2  0
 10 11  1  0
 11 12  1  0
 12 13  2  0
 12 14  1  0
 14 15  1  0
 15 16  1  0
 16 17  1  0
 17 18  1  0
 18 19  2  0
 18 20  1  0
 20 21  1  0
 21 22  2  0
 11 23  2  0
 23 24  1  0
 24 25  1  0
 25 26  2  0
 26 27  1  0
 27 28  2  0
  5 29  1  0
 29 30  2  0
 30  3  1  0
 28  9  1  0
 21 15  1  0
 27 23  1  0
  1 31  1  0
  1 32  1  0
  1 33  1  0
  2 34  1  0
  2 35  1  0
  4 36  1  0
 14 37  1  0
 15 38  1  6
 16 39  1  0
 16 40  1  0
 17 41  1  0
 17 42  1  0
 20 43  1  0
 25 44  1  0
 26 45  1  0
 29 46  1  0
M  END
>  <meeko>  (165) 
{"is_sidechain": [true], "free_energy": -11.18, "intermolecular_energy": 0.0, "internal_energy": -11.18, "cluster_size": 20, "cluster_id": 1, "rank_in_cluster": 1}

>  <_RMSD_MCS_to_ref>  (165) 
0.5302801146563958

$$$$
ligand
     RDKit          3D

 46 49  0  0  0  0  0  0  0  0999 V2000
   18.7970   18.8170    7.7190 C   0  0  0  0  0  0  0  0  0  0  0  0
   18.5280   17.3290    7.8810 C   0  0  0  0  0  0  0  0  0  0  0  0
   19.7740   16.5210    7.8010 C   0  0  0  0  0  0  0  0  0  0  0  0
   20.3750   15.7460    8.7740 C   0  0  0  0  0  0  0  0  0  0  0  0
   21.4900   15.2480    8.1660 N   0  0  0  0  0  0  0  0  0  0  0  0
   22.5150   14.0850    8.8110 S   0  0  0  0  0  6  0  0  0  0  0  0
   21.6810   13.1350    9.5170 O   0  0  0  0  0  0  0  0  0  0  0  0
   23.3760   13.6920    7.7120 O   0  0  0  0  0  0  0  0  0  0  0  0
   23.4880   14.9750   10.0000 C   0  0  0  0  0  0  0  0  0  0  0  0
   24.7310   15.4820    9.5950 C   0  0  0  0  0  0  0  0  0  0  0  0
   25.5420   16.1830   10.4840 C   0  0  0  0  0  0  0  0  0  0  0  0
   25.1420   16.3970   11.8160 C   0  0  0  0  0  0  0  0  0  0  0  0
   26.0580   17.1550   12.7100 C   0  0  0  0  0  0  0  0  0  0  0  0
   27.0580   17.6910   12.2410 O   0  0  0  0  0  0  0  0  0  0  0  0
   25.7390   17.2400   14.0440 N   0  0  0  0  0  0  0  0  0  0  0  0
   26.5340   18.0260   14.9750 C   0  0  2  0  0  0  0  0  0  0  0  0
   26.0770   17.8270   16.4160 C   0  0  0  0  0  0  0  0  0  0  0  0
   26.9280   18.6800   17.3420 C   0  0  0  0  0  0  0  0  0  0  0  0
   26.8890   20.1360   16.9380 C   0  0  0  0  0  0  0  0  0  0  0  0
   26.9620   21.0470   17.7560 O   0  0  0  0  0  0  0  0  0  0  0  0
   26.8000   20.3980   15.5950 N   0  0  0  0  0  0  0  0  0  0  0  0
   26.4240   19.5110   14.6150 C   0  0  0  0  0  0  0  0  0  0  0  0
   26.0420   19.9090   13.5160 O   0  0  0  0  0  0  0  0  0  0  0  0
   23.9020   15.8790   12.2540 C   0  0  0  0  0  0  0  0  0  0  0  0
   23.3560   15.9840   13.5330 N   0  0  0  0  0  0  0  0  0  0  0  0
   22.1850   15.3900   13.6340 N   0  0  0  0  0  0  0  0  0  0  0  0
   21.6920   14.6840   12.2130 S   0  0  0  0  0  0  0  0  0  0  0  0
   23.1010   15.1740   11.3380 C   0  0  0  0  0  0  0  0  0  0  0  0
   21.5390   15.6950    6.8860 C   0  0  0  0  0  0  0  0  0  0  0  0
   20.5040   16.4670    6.6300 N   0  0  0  0  0  0  0  0  0  0  0  0
   18.8815   19.2845    8.7111 H   0  0  0  0  0  0  0  0  0  0  0  0
   19.7359   18.9616    7.1643 H   0  0  0  0  0  0  0  0  0  0  0  0
   17.9682   19.2812    7.1643 H   0  0  0  0  0  0  0  0  0  0  0  0
   18.0576   17.1586    8.8606 H   0  0  0  0  0  0  0  0  0  0  0  0
   17.8677   17.0138    7.0596 H   0  0  0  0  0  0  0  0  0  0  0  0
   20.0324   15.5704    9.8044 H   0  0  0  0  0  0  0  0  0  0  0  0
   25.0703   15.3238    8.5607 H   0  0  0  0  0  0  0  0  0  0  0  0
   26.5102   16.5755   10.1396 H   0  0  0  0  0  0  0  0  0  0  0  0
   24.9138   16.7330   14.3946 H   0  0  0  0  0  0  0  0  0  0  0  0
   27.5773   17.6867   14.8953 H   0  0  0  0  0  0  0  0  0  0  0  0
   25.0222   18.1246   16.5101 H   0  0  0  0  0  0  0  0  0  0  0  0
   26.1862   16.7676   16.6913 H   0  0  0  0  0  0  0  0  0  0  0  0
   26.5472   18.5829   18.3694 H   0  0  0  0  0  0  0  0  0  0  0  0
   27.9688   18.3297   17.2779 H   0  0  0  0  0  0  0  0  0  0  0  0
   27.0382   21.3529   15.2910 H   0  0  0  0  0  0  0  0  0  0  0  0
   22.3314   15.4474    6.1643 H   0  0  0  0  0  0  0  0  0  0  0  0
  1  2  1  0
  2  3  1  0
  3  4  2  0
  4  5  1  0
  5  6  1  0
  6  7  2  0
  6  8  2  0
  6  9  1  0
  9 10  2  0
 10 11  1  0
 11 12  2  0
 12 13  1  0
 13 14  2  0
 13 15  1  0
 15 16  1  0
 16 17  1  0
 17 18  1  0
 18 19  1  0
 19 20  2  0
 19 21  1  0
 21 22  1  0
 22 23  2  0
 12 24  1  0
 24 25  1  0
 25 26  2  0
 26 27  1  0
 27 28  1  0
  5 29  1  0
 29 30  2  0
 30  3  1  0
 28  9  1  0
 22 16  1  0
 28 24  2  0
  1 31  1  0
  1 32  1  0
  1 33  1  0
  2 34  1  0
  2 35  1  0
  4 36  1  0
 10 37  1  0
 11 38  1  0
 15 39  1  0
 16 40  1  1
 17 41  1  0
 17 42  1  0
 18 43  1  0
 18 44  1  0
 21 45  1  0
 29 46  1  0
M  END
>  <meeko>  (166) 
{"is_sidechain": [true], "free_energy": -11.17, "intermolecular_energy": 0.0, "internal_energy": -11.17, "cluster_size": 15, "cluster_id": 1, "rank_in_cluster": 1}

>  <_RMSD_MCS_to_ref>  (166) 
0.9210972321699327

$$$$
ligand
     RDKit          3D

 60 64  0  0  0  0  0  0  0  0999 V2000
   18.9090   19.1540    7.5370 C   0  0  0  0  0  0  0  0  0  0  0  0
   18.7730   17.6460    7.6780 C   0  0  0  0  0  0  0  0  0  0  0  0
   20.0720   16.9450    7.4980 C   0  0  0  0  0  0  0  0  0  0  0  0
   20.5670   15.8450    8.1720 C   0  0  0  0  0  0  0  0  0  0  0  0
   21.7920   15.6300    7.6040 N   0  0  0  0  0  0  0  0  0  0  0  0
   22.9200   14.5020    8.1280 S   0  0  0  0  0  6  0  0  0  0  0  0
   23.6890   14.1790    6.9390 O   0  0  0  0  0  0  0  0  0  0  0  0
   22.2080   13.4700    8.8560 O   0  0  0  0  0  0  0  0  0  0  0  0
   23.9940   15.3580    9.2480 C   0  0  0  0  0  0  0  0  0  0  0  0
   23.4900   15.7320   10.5030 C   0  0  0  0  0  0  0  0  0  0  0  0
   24.3320   16.4430   11.3380 C   0  0  0  0  0  0  0  0  0  0  0  0
   25.6300   16.8050   10.9800 C   0  0  0  0  0  0  0  0  0  0  0  0
   26.1320   16.4560    9.7390 C   0  0  0  0  0  0  0  0  0  0  0  0
   25.2970   15.7370    8.8650 C   0  0  0  0  0  0  0  0  0  0  0  0
   25.8670   15.3230    7.5750 C   0  0  0  0  0  0  0  0  0  0  0  0
   26.2760   14.1720    7.5010 O   0  0  0  0  0  0  0  0  0  0  0  0
   25.9130   16.2460    6.5580 N   0  0  0  0  0  0  0  0  0  0  0  0
   26.4210   15.8740    5.2480 C   0  0  0  0  0  0  0  0  0  0  0  0
   26.3860   17.1680    4.4510 C   0  0  0  0  0  0  0  0  0  0  0  0
   25.1740   17.8850    5.0330 C   0  0  0  0  0  0  0  0  0  0  0  0
   25.2510   17.5430    6.5160 C   0  0  0  0  0  0  0  0  0  0  0  0
   26.2710   17.5740   12.0890 C   0  0  0  0  0  0  0  0  0  0  0  0
   25.2500   17.5410   13.1280 N   0  0  0  0  0  0  0  0  0  0  0  0
   25.2840   18.3900   14.3130 C   0  0  1  0  0  0  0  0  0  0  0  0
   26.1460   17.8050   15.4290 C   0  0  0  0  0  0  0  0  0  0  0  0
   26.0660   18.7050   16.6530 C   0  0  0  0  0  0  0  0  0  0  0  0
   26.4610   20.1240   16.3150 C   0  0  0  0  0  0  0  0  0  0  0  0
   27.0890   20.8350   17.0930 O   0  0  0  0  0  0  0  0  0  0  0  0
   26.0700   20.5930   15.0850 N   0  0  0  0  0  0  0  0  0  0  0  0
   25.7830   19.8100   13.9920 C   0  0  0  0  0  0  0  0  0  0  0  0
   25.9420   20.2470   12.8540 O   0  0  0  0  0  0  0  0  0  0  0  0
   24.0740   16.9530   12.6880 C   0  0  0  0  0  0  0  0  0  0  0  0
   23.0140   16.8600   13.2740 O   0  0  0  0  0  0  0  0  0  0  0  0
   22.0190   16.5770    6.6600 C   0  0  0  0  0  0  0  0  0  0  0  0
   20.9870   17.3930    6.5660 N   0  0  0  0  0  0  0  0  0  0  0  0
   18.9504   19.6134    8.5356 H   0  0  0  0  0  0  0  0  0  0  0  0
   19.8320   19.3891    6.9867 H   0  0  0  0  0  0  0  0  0  0  0  0
   18.0430   19.5504    6.9867 H   0  0  0  0  0  0  0  0  0  0  0  0
   18.3835   17.4178    8.6811 H   0  0  0  0  0  0  0  0  0  0  0  0
   18.0880   17.2941    6.8926 H   0  0  0  0  0  0  0  0  0  0  0  0
   20.0861   15.2737    8.9797 H   0  0  0  0  0  0  0  0  0  0  0  0
   22.4667   15.4702   10.8100 H   0  0  0  0  0  0  0  0  0  0  0  0
   27.1550   16.7329    9.4443 H   0  0  0  0  0  0  0  0  0  0  0  0
   27.4491   15.4902    5.3232 H   0  0  0  0  0  0  0  0  0  0  0  0
   25.8286   15.0748    4.7786 H   0  0  0  0  0  0  0  0  0  0  0  0
   27.3047   17.7533    4.6038 H   0  0  0  0  0  0  0  0  0  0  0  0
   26.3207   17.0105    3.3643 H   0  0  0  0  0  0  0  0  0  0  0  0
   25.2435   18.9712    4.8739 H   0  0  0  0  0  0  0  0  0  0  0  0
   24.2255   17.5798    4.5670 H   0  0  0  0  0  0  0  0  0  0  0  0
   25.8393   18.2974    7.0588 H   0  0  0  0  0  0  0  0  0  0  0  0
   24.2596   17.5219    6.9921 H   0  0  0  0  0  0  0  0  0  0  0  0
   27.1975   17.0867   12.4267 H   0  0  0  0  0  0  0  0  0  0  0  0
   26.5697   18.5926   11.8004 H   0  0  0  0  0  0  0  0  0  0  0  0
   24.2422   18.4414   14.6624 H   0  0  0  0  0  0  0  0  0  0  0  0
   25.7798   16.8004   15.6874 H   0  0  0  0  0  0  0  0  0  0  0  0
   27.1903   17.7374   15.0900 H   0  0  0  0  0  0  0  0  0  0  0  0
   25.0343   18.7010   17.0344 H   0  0  0  0  0  0  0  0  0  0  0  0
   26.7622   18.3214   17.4133 H   0  0  0  0  0  0  0  0  0  0  0  0
   25.9849   21.6133   14.9722 H   0  0  0  0  0  0  0  0  0  0  0  0
   22.9358   16.6538    6.0570 H   0  0  0  0  0  0  0  0  0  0  0  0
  1  2  1  0
  2  3  1  0
  3  4  2  0
  4  5  1  0
  5  6  1  0
  6  7  2  0
  6  8  2  0
  6  9  1  0
  9 10  2  0
 10 11  1  0
 11 12  2  0
 12 13  1  0
 13 14  2  0
 14 15  1  0
 15 16  2  0
 15 17  1  0
 17 18  1  0
 18 19  1  0
 19 20  1  0
 20 21  1  0
 12 22  1  0
 22 23  1  0
 23 24  1  0
 24 25  1  0
 25 26  1  0
 26 27  1  0
 27 28  2  0
 27 29  1  0
 29 30  1  0
 30 31  2  0
 23 32  1  0
 32 33  2  0
  5 34  1  0
 34 35  2  0
 35  3  1  0
 14  9  1  0
 21 17  1  0
 30 24  1  0
 32 11  1  0
  1 36  1  0
  1 37  1  0
  1 38  1  0
  2 39  1  0
  2 40  1  0
  4 41  1  0
 10 42  1  0
 13 43  1  0
 18 44  1  0
 18 45  1  0
 19 46  1  0
 19 47  1  0
 20 48  1  0
 20 49  1  0
 21 50  1  0
 21 51  1  0
 22 52  1  0
 22 53  1  0
 24 54  1  1
 25 55  1  0
 25 56  1  0
 26 57  1  0
 26 58  1  0
 29 59  1  0
 34 60  1  0
M  END
>  <meeko>  (167) 
{"is_sidechain": [true], "free_energy": -11.17, "intermolecular_energy": 0.0, "internal_energy": -11.17, "cluster_size": 15, "cluster_id": 1, "rank_in_cluster": 1}

>  <_RMSD_MCS_to_ref>  (167) 
0.7622051342431819

$$$$
ligand
     RDKit          3D

 50 53  0  0  0  0  0  0  0  0999 V2000
   18.9090   19.1540    7.5370 C   0  0  0  0  0  0  0  0  0  0  0  0
   18.7730   17.6460    7.6780 C   0  0  0  0  0  0  0  0  0  0  0  0
   20.0820   16.9500    7.5480 C   0  0  0  0  0  0  0  0  0  0  0  0
   21.0980   16.8290    8.4760 C   0  0  0  0  0  0  0  0  0  0  0  0
   22.0560   16.1000    7.8310 N   0  0  0  0  0  0  0  0  0  0  0  0
   23.4070   15.4090    8.5540 S   0  0  0  0  0  6  0  0  0  0  0  0
   24.4640   16.3860    8.3740 O   0  0  0  0  0  0  0  0  0  0  0  0
   23.4920   14.0550    8.0500 O   0  0  0  0  0  0  0  0  0  0  0  0
   23.0140   15.3260   10.2810 C   0  0  0  0  0  0  0  0  0  0  0  0
   23.9010   15.8190   11.2370 C   0  0  0  0  0  0  0  0  0  0  0  0
   23.5720   15.7210   12.5970 C   0  0  0  0  0  0  0  0  0  0  0  0
   24.5520   16.2440   13.5810 C   0  0  0  0  0  0  0  0  0  0  0  0
   25.1400   15.4930   14.3450 O   0  0  0  0  0  0  0  0  0  0  0  0
   24.7440   17.6070   13.5470 N   0  0  0  0  0  0  0  0  0  0  0  0
   25.7780   18.2420   14.3540 C   0  0  2  0  0  0  0  0  0  0  0  0
   25.6290   17.9150   15.8360 C   0  0  0  0  0  0  0  0  0  0  0  0
   26.7060   18.6410   16.6250 C   0  0  0  0  0  0  0  0  0  0  0  0
   26.6650   20.1310   16.3700 C   0  0  0  0  0  0  0  0  0  0  0  0
   26.9650   20.9540   17.2300 O   0  0  0  0  0  0  0  0  0  0  0  0
   26.3070   20.5290   15.1070 N   0  0  0  0  0  0  0  0  0  0  0  0
   25.6810   19.7580   14.1600 C   0  0  0  0  0  0  0  0  0  0  0  0
   25.0940   20.2690   13.2060 O   0  0  0  0  0  0  0  0  0  0  0  0
   22.3380   15.1540   13.0150 C   0  0  0  0  0  0  0  0  0  0  0  0
   21.9160   15.0130   14.3480 C   0  0  0  0  0  0  0  0  0  0  0  0
   20.7450   14.4500   14.7360 N   0  0  0  0  0  0  0  0  0  0  0  0
   19.9310   14.0090   13.7610 C   0  0  0  0  0  0  0  0  0  0  0  0
   20.2350   14.0940   12.4130 C   0  0  0  0  0  0  0  0  0  0  0  0
   21.4510   14.6680   12.0270 C   0  0  0  0  0  0  0  0  0  0  0  0
   21.7960   14.7580   10.6680 C   0  0  0  0  0  0  0  0  0  0  0  0
   21.6190   15.7950    6.5820 C   0  0  0  0  0  0  0  0  0  0  0  0
   20.4150   16.2890    6.3820 N   0  0  0  0  0  0  0  0  0  0  0  0
   18.9504   19.6134    8.5356 H   0  0  0  0  0  0  0  0  0  0  0  0
   19.8320   19.3891    6.9867 H   0  0  0  0  0  0  0  0  0  0  0  0
   18.0430   19.5504    6.9867 H   0  0  0  0  0  0  0  0  0  0  0  0
   18.3477   17.4194    8.6668 H   0  0  0  0  0  0  0  0  0  0  0  0
   18.1181   17.2885    6.8697 H   0  0  0  0  0  0  0  0  0  0  0  0
   21.1285   17.2285    9.5004 H   0  0  0  0  0  0  0  0  0  0  0  0
   24.8503   16.2807   10.9275 H   0  0  0  0  0  0  0  0  0  0  0  0
   24.1468   18.1875   12.9410 H   0  0  0  0  0  0  0  0  0  0  0  0
   26.7563   17.8602   14.0266 H   0  0  0  0  0  0  0  0  0  0  0  0
   24.6374   18.2387   16.1852 H   0  0  0  0  0  0  0  0  0  0  0  0
   25.7335   16.8301   15.9847 H   0  0  0  0  0  0  0  0  0  0  0  0
   26.5494   18.4568   17.6981 H   0  0  0  0  0  0  0  0  0  0  0  0
   27.6870   18.2610   16.3036 H   0  0  0  0  0  0  0  0  0  0  0  0
   26.5294   21.4998   14.8442 H   0  0  0  0  0  0  0  0  0  0  0  0
   22.5860   15.3875   15.1359 H   0  0  0  0  0  0  0  0  0  0  0  0
   18.9712   13.5560   14.0501 H   0  0  0  0  0  0  0  0  0  0  0  0
   19.5311   13.7159   11.6570 H   0  0  0  0  0  0  0  0  0  0  0  0
   21.1029   14.3788    9.9026 H   0  0  0  0  0  0  0  0  0  0  0  0
   22.1906   15.2165    5.8413 H   0  0  0  0  0  0  0  0  0  0  0  0
  1  2  1  0
  2  3  1  0
  3  4  2  0
  4  5  1  0
  5  6  1  0
  6  7  2  0
  6  8  2  0
  6  9  1  0
  9 10  2  0
 10 11  1  0
 11 12  1  0
 12 13  2  0
 12 14  1  0
 14 15  1  0
 15 16  1  0
 16 17  1  0
 17 18  1  0
 18 19  2  0
 18 20  1  0
 20 21  1  0
 21 22  2  0
 11 23  2  0
 23 24  1  0
 24 25  2  0
 25 26  1  0
 26 27  2  0
 27 28  1  0
 28 29  2  0
  5 30  1  0
 30 31  2  0
 31  3  1  0
 29  9  1  0
 21 15  1  0
 28 23  1  0
  1 32  1  0
  1 33  1  0
  1 34  1  0
  2 35  1  0
  2 36  1  0
  4 37  1  0
 10 38  1  0
 14 39  1  0
 15 40  1  6
 16 41  1  0
 16 42  1  0
 17 43  1  0
 17 44  1  0
 20 45  1  0
 24 46  1  0
 26 47  1  0
 27 48  1  0
 29 49  1  0
 30 50  1  0
M  END
>  <meeko>  (168) 
{"is_sidechain": [true], "free_energy": -11.17, "intermolecular_energy": 0.0, "internal_energy": -11.17, "cluster_size": 19, "cluster_id": 1, "rank_in_cluster": 1}

>  <_RMSD_MCS_to_ref>  (168) 
0.5238754092763319

$$$$
ligand
     RDKit          3D

 47 50  0  0  0  0  0  0  0  0999 V2000
   18.9090   19.1540    7.5370 C   0  0  0  0  0  0  0  0  0  0  0  0
   18.7730   17.6460    7.6780 C   0  0  0  0  0  0  0  0  0  0  0  0
   20.0410   16.9360    7.3570 C   0  0  0  0  0  0  0  0  0  0  0  0
   20.8510   16.1860    8.1850 C   0  0  0  0  0  0  0  0  0  0  0  0
   21.8670   15.7720    7.3720 N   0  0  0  0  0  0  0  0  0  0  0  0
   23.1160   14.7440    7.8160 S   0  0  0  0  0  6  0  0  0  0  0  0
   22.5110   13.5210    8.2980 O   0  0  0  0  0  0  0  0  0  0  0  0
   24.0210   14.7620    6.6820 O   0  0  0  0  0  0  0  0  0  0  0  0
   23.9180   15.5460    9.1770 C   0  0  0  0  0  0  0  0  0  0  0  0
   25.1260   16.2020    8.9250 C   0  0  0  0  0  0  0  0  0  0  0  0
   25.7670   16.8370    9.9660 C   0  0  0  0  0  0  0  0  0  0  0  0
   25.3210   16.8760   11.2300 N   0  0  0  0  0  0  0  0  0  0  0  0
   24.1510   16.2250   11.4900 C   0  0  0  0  0  0  0  0  0  0  0  0
   23.5290   16.1600   12.7850 C   0  0  0  0  0  0  0  0  0  0  0  0
   23.9990   16.7550   14.0350 C   0  0  0  0  0  0  0  0  0  0  0  0
   23.7980   16.2300   15.1260 O   0  0  0  0  0  0  0  0  0  0  0  0
   24.6750   17.9420   13.9090 N   0  0  0  0  0  0  0  0  0  0  0  0
   25.1010   18.7220   15.0570 C   0  0  1  0  0  0  0  0  0  0  0  0
   26.1530   17.9890   15.8840 C   0  0  0  0  0  0  0  0  0  0  0  0
   26.5720   18.8580   17.0590 C   0  0  0  0  0  0  0  0  0  0  0  0
   27.0630   20.2080   16.5950 C   0  0  0  0  0  0  0  0  0  0  0  0
   27.9540   20.8210   17.1770 O   0  0  0  0  0  0  0  0  0  0  0  0
   26.4410   20.7430   15.4960 N   0  0  0  0  0  0  0  0  0  0  0  0
   25.6830   20.0570   14.5790 C   0  0  0  0  0  0  0  0  0  0  0  0
   25.4850   20.5180   13.4560 O   0  0  0  0  0  0  0  0  0  0  0  0
   22.3590   15.4270   12.7260 C   0  0  0  0  0  0  0  0  0  0  0  0
   22.0230   14.8310   11.1700 S   0  0  0  0  0  0  0  0  0  0  0  0
   23.4310   15.5510   10.4970 C   0  0  0  0  0  0  0  0  0  0  0  0
   21.6720   16.2660    6.1240 C   0  0  0  0  0  0  0  0  0  0  0  0
   20.5620   16.9740    6.0780 N   0  0  0  0  0  0  0  0  0  0  0  0
   18.9504   19.6134    8.5356 H   0  0  0  0  0  0  0  0  0  0  0  0
   19.8320   19.3891    6.9867 H   0  0  0  0  0  0  0  0  0  0  0  0
   18.0430   19.5504    6.9867 H   0  0  0  0  0  0  0  0  0  0  0  0
   18.4877   17.4111    8.7141 H   0  0  0  0  0  0  0  0  0  0  0  0
   18.0061   17.3075    6.9658 H   0  0  0  0  0  0  0  0  0  0  0  0
   20.7105   15.9710    9.2546 H   0  0  0  0  0  0  0  0  0  0  0  0
   25.5574   16.2111    7.9132 H   0  0  0  0  0  0  0  0  0  0  0  0
   26.7145   17.3498    9.7440 H   0  0  0  0  0  0  0  0  0  0  0  0
   24.8884   18.2931   12.9645 H   0  0  0  0  0  0  0  0  0  0  0  0
   24.2197   18.8887   15.6938 H   0  0  0  0  0  0  0  0  0  0  0  0
   25.7317   17.0445   16.2587 H   0  0  0  0  0  0  0  0  0  0  0  0
   27.0300   17.7762   15.2551 H   0  0  0  0  0  0  0  0  0  0  0  0
   25.7084   19.0004   17.7253 H   0  0  0  0  0  0  0  0  0  0  0  0
   27.3932   18.3531   17.5889 H   0  0  0  0  0  0  0  0  0  0  0  0
   26.5530   21.7555   15.3439 H   0  0  0  0  0  0  0  0  0  0  0  0
   21.7114   15.2476   13.5969 H   0  0  0  0  0  0  0  0  0  0  0  0
   22.3457   16.0990    5.2706 H   0  0  0  0  0  0  0  0  0  0  0  0
  1  2  1  0
  2  3  1  0
  3  4  2  0
  4  5  1  0
  5  6  1  0
  6  7  2  0
  6  8  2  0
  6  9  1  0
  9 10  2  0
 10 11  1  0
 11 12  2  0
 12 13  1  0
 13 14  1  0
 14 15  1  0
 15 16  2  0
 15 17  1  0
 17 18  1  0
 18 19  1  0
 19 20  1  0
 20 21  1  0
 21 22  2  0
 21 23  1  0
 23 24  1  0
 24 25  2  0
 14 26  2  0
 26 27  1  0
 27 28  1  0
  5 29  1  0
 29 30  2  0
 30  3  1  0
 28  9  1  0
 28 13  2  0
 24 18  1  0
  1 31  1  0
  1 32  1  0
  1 33  1  0
  2 34  1  0
  2 35  1  0
  4 36  1  0
 10 37  1  0
 11 38  1  0
 17 39  1  0
 18 40  1  1
 19 41  1  0
 19 42  1  0
 20 43  1  0
 20 44  1  0
 23 45  1  0
 26 46  1  0
 29 47  1  0
M  END
>  <meeko>  (169) 
{"is_sidechain": [true], "free_energy": -11.17, "intermolecular_energy": 0.0, "internal_energy": -11.17, "cluster_size": 11, "cluster_id": 1, "rank_in_cluster": 1}

>  <_RMSD_MCS_to_ref>  (169) 
0.6050432491428468

$$$$
ligand
     RDKit          3D

 51 55  0  0  0  0  0  0  0  0999 V2000
   18.8250   19.0180    7.5350 C   0  0  0  0  0  0  0  0  0  0  0  0
   18.5200   17.5410    7.7330 C   0  0  0  0  0  0  0  0  0  0  0  0
   19.7550   16.7130    7.7780 C   0  0  0  0  0  0  0  0  0  0  0  0
   20.2290   15.9120    8.7970 C   0  0  0  0  0  0  0  0  0  0  0  0
   21.4000   15.4040    8.3090 N   0  0  0  0  0  0  0  0  0  0  0  0
   22.3490   14.2500    9.0770 S   0  0  0  0  0  6  0  0  0  0  0  0
   21.5020   13.1020    9.3250 O   0  0  0  0  0  0  0  0  0  0  0  0
   23.5430   14.1390    8.2590 O   0  0  0  0  0  0  0  0  0  0  0  0
   22.8160   15.0110   10.6220 C   0  0  0  0  0  0  0  0  0  0  0  0
   21.8140   15.0840   11.6250 C   0  0  0  0  0  0  0  0  0  0  0  0
   22.0870   15.6520   12.8700 C   0  0  0  0  0  0  0  0  0  0  0  0
   23.3630   16.1300   13.0800 C   0  0  0  0  0  0  0  0  0  0  0  0
   24.3590   16.0840   12.1040 C   0  0  0  0  0  0  0  0  0  0  0  0
   24.1030   15.5440   10.8430 C   0  0  0  0  0  0  0  0  0  0  0  0
   25.1760   15.5130    9.8610 C   0  0  0  0  0  0  0  0  0  0  0  0
   25.2440   16.2970    8.8070 N   0  0  0  0  0  0  0  0  0  0  0  0
   26.3700   16.0470    8.0480 N   0  0  0  0  0  0  0  0  0  0  0  0
   27.0960   15.0730    8.5530 C   0  0  0  0  0  0  0  0  0  0  0  0
   26.4480   14.3600    9.9710 S   0  0  0  0  0  0  0  0  0  0  0  0
   25.6170   16.6820   12.6530 C   0  0  0  0  0  0  0  0  0  0  0  0
   25.2640   16.9730   14.0350 N   0  0  0  0  0  0  0  0  0  0  0  0
   26.1350   17.7860   14.8800 C   0  0  2  0  0  0  0  0  0  0  0  0
   25.7810   17.7350   16.3650 C   0  0  0  0  0  0  0  0  0  0  0  0
   26.7840   18.5670   17.1500 C   0  0  0  0  0  0  0  0  0  0  0  0
   26.8310   19.9900   16.6450 C   0  0  0  0  0  0  0  0  0  0  0  0
   27.2120   20.9210   17.3480 O   0  0  0  0  0  0  0  0  0  0  0  0
   26.5030   20.1880   15.3270 N   0  0  0  0  0  0  0  0  0  0  0  0
   26.1770   19.2400   14.3850 C   0  0  0  0  0  0  0  0  0  0  0  0
   26.0350   19.5580   13.2040 O   0  0  0  0  0  0  0  0  0  0  0  0
   23.9210   16.7510   14.2850 C   0  0  0  0  0  0  0  0  0  0  0  0
   23.2780   17.0170   15.2800 O   0  0  0  0  0  0  0  0  0  0  0  0
   21.5900   15.8600    7.0460 C   0  0  0  0  0  0  0  0  0  0  0  0
   20.6100   16.6680    6.6960 N   0  0  0  0  0  0  0  0  0  0  0  0
   18.9258   19.5062    8.5155 H   0  0  0  0  0  0  0  0  0  0  0  0
   19.7645   19.1263    6.9731 H   0  0  0  0  0  0  0  0  0  0  0  0
   18.0053   19.4896    6.9731 H   0  0  0  0  0  0  0  0  0  0  0  0
   17.9749   17.4158    8.6802 H   0  0  0  0  0  0  0  0  0  0  0  0
   17.9179   17.2029    6.8767 H   0  0  0  0  0  0  0  0  0  0  0  0
   19.7690   15.7250    9.7785 H   0  0  0  0  0  0  0  0  0  0  0  0
   20.8090   14.6875   11.4180 H   0  0  0  0  0  0  0  0  0  0  0  0
   21.3158   15.7158   13.6518 H   0  0  0  0  0  0  0  0  0  0  0  0
   28.0431   14.7425    8.1015 H   0  0  0  0  0  0  0  0  0  0  0  0
   26.4509   15.9666   12.6000 H   0  0  0  0  0  0  0  0  0  0  0  0
   25.9554   17.5680   12.0958 H   0  0  0  0  0  0  0  0  0  0  0  0
   27.1367   17.3403   14.7905 H   0  0  0  0  0  0  0  0  0  0  0  0
   24.7696   18.1403   16.5157 H   0  0  0  0  0  0  0  0  0  0  0  0
   25.8123   16.6928   16.7156 H   0  0  0  0  0  0  0  0  0  0  0  0
   26.4927   18.5726   18.2107 H   0  0  0  0  0  0  0  0  0  0  0  0
   27.7811   18.1202   17.0227 H   0  0  0  0  0  0  0  0  0  0  0  0
   26.5007   21.1660   15.0037 H   0  0  0  0  0  0  0  0  0  0  0  0
   22.4424   15.5928    6.4041 H   0  0  0  0  0  0  0  0  0  0  0  0
  1  2  1  0
  2  3  1  0
  3  4  2  0
  4  5  1  0
  5  6  1  0
  6  7  2  0
  6  8  2  0
  6  9  1  0
  9 10  2  0
 10 11  1  0
 11 12  2  0
 12 13  1  0
 13 14  2  0
 14 15  1  0
 15 16  2  0
 16 17  1  0
 17 18  2  0
 18 19  1  0
 13 20  1  0
 20 21  1  0
 21 22  1  0
 22 23  1  0
 23 24  1  0
 24 25  1  0
 25 26  2  0
 25 27  1  0
 27 28  1  0
 28 29  2  0
 21 30  1  0
 30 31  2  0
  5 32  1  0
 32 33  2  0
 33  3  1  0
 14  9  1  0
 19 15  1  0
 28 22  1  0
 30 12  1  0
  1 34  1  0
  1 35  1  0
  1 36  1  0
  2 37  1  0
  2 38  1  0
  4 39  1  0
 10 40  1  0
 11 41  1  0
 18 42  1  0
 20 43  1  0
 20 44  1  0
 22 45  1  1
 23 46  1  0
 23 47  1  0
 24 48  1  0
 24 49  1  0
 27 50  1  0
 32 51  1  0
M  END
>  <meeko>  (170) 
{"is_sidechain": [true], "free_energy": -11.16, "intermolecular_energy": 0.0, "internal_energy": -11.16, "cluster_size": 13, "cluster_id": 1, "rank_in_cluster": 1}

>  <_RMSD_MCS_to_ref>  (170) 
0.9137005344568135

$$$$
ligand
     RDKit          3D

 54 58  0  0  0  0  0  0  0  0999 V2000
   18.8250   19.0170    7.5350 C   0  0  0  0  0  0  0  0  0  0  0  0
   18.5200   17.5420    7.7330 C   0  0  0  0  0  0  0  0  0  0  0  0
   19.7490   16.7030    7.7270 C   0  0  0  0  0  0  0  0  0  0  0  0
   20.3630   16.0550    8.7810 C   0  0  0  0  0  0  0  0  0  0  0  0
   21.4410   15.4390    8.2130 N   0  0  0  0  0  0  0  0  0  0  0  0
   22.4770   14.3620    8.9760 S   0  0  0  0  0  6  0  0  0  0  0  0
   21.7160   13.1560    9.2360 O   0  0  0  0  0  0  0  0  0  0  0  0
   23.6640   14.3520    8.1420 O   0  0  0  0  0  0  0  0  0  0  0  0
   22.9030   15.0730   10.5510 C   0  0  0  0  0  0  0  0  0  0  0  0
   21.8690   15.1690   11.5170 C   0  0  0  0  0  0  0  0  0  0  0  0
   22.1170   15.7250   12.7720 C   0  0  0  0  0  0  0  0  0  0  0  0
   23.3990   16.1660   13.0250 C   0  0  0  0  0  0  0  0  0  0  0  0
   24.4240   16.0900   12.0830 C   0  0  0  0  0  0  0  0  0  0  0  0
   24.2040   15.5600   10.8090 C   0  0  0  0  0  0  0  0  0  0  0  0
   25.3090   15.4940    9.8620 C   0  0  0  0  0  0  0  0  0  0  0  0
   26.3190   14.5350    9.9040 C   0  0  0  0  0  0  0  0  0  0  0  0
   27.3090   14.4790    8.9830 N   0  0  0  0  0  0  0  0  0  0  0  0
   27.2610   15.4210    8.0160 C   0  0  0  0  0  0  0  0  0  0  0  0
   26.2600   16.3740    7.9660 C   0  0  0  0  0  0  0  0  0  0  0  0
   25.2640   16.4280    8.8810 N   0  0  0  0  0  0  0  0  0  0  0  0
   25.6810   16.6530   12.6700 C   0  0  0  0  0  0  0  0  0  0  0  0
   25.2900   16.9680   14.0360 N   0  0  0  0  0  0  0  0  0  0  0  0
   26.1510   17.7710   14.9010 C   0  0  2  0  0  0  0  0  0  0  0  0
   25.7300   17.7670   16.3690 C   0  0  0  0  0  0  0  0  0  0  0  0
   26.7270   18.5800   17.1810 C   0  0  0  0  0  0  0  0  0  0  0  0
   26.8480   19.9880   16.6480 C   0  0  0  0  0  0  0  0  0  0  0  0
   27.2340   20.9210   17.3460 O   0  0  0  0  0  0  0  0  0  0  0  0
   26.5860   20.1680   15.3130 N   0  0  0  0  0  0  0  0  0  0  0  0
   26.2660   19.2100   14.3770 C   0  0  0  0  0  0  0  0  0  0  0  0
   26.1850   19.5060   13.1850 O   0  0  0  0  0  0  0  0  0  0  0  0
   23.9350   16.7790   14.2450 C   0  0  0  0  0  0  0  0  0  0  0  0
   23.2680   17.0670   15.2180 O   0  0  0  0  0  0  0  0  0  0  0  0
   21.4260   15.6620    6.8730 C   0  0  0  0  0  0  0  0  0  0  0  0
   20.4290   16.4600    6.5490 N   0  0  0  0  0  0  0  0  0  0  0  0
   18.9260   19.5054    8.5155 H   0  0  0  0  0  0  0  0  0  0  0  0
   19.7645   19.1250    6.9731 H   0  0  0  0  0  0  0  0  0  0  0  0
   18.0054   19.4887    6.9731 H   0  0  0  0  0  0  0  0  0  0  0  0
   18.0091   17.4134    8.6987 H   0  0  0  0  0  0  0  0  0  0  0  0
   17.8865   17.2150    6.8953 H   0  0  0  0  0  0  0  0  0  0  0  0
   20.0541   16.0389    9.8366 H   0  0  0  0  0  0  0  0  0  0  0  0
   20.8612   14.8012   11.2740 H   0  0  0  0  0  0  0  0  0  0  0  0
   21.3229   15.8083   13.5286 H   0  0  0  0  0  0  0  0  0  0  0  0
   26.3113   13.7946   10.7175 H   0  0  0  0  0  0  0  0  0  0  0  0
   28.0436   15.4304    7.2431 H   0  0  0  0  0  0  0  0  0  0  0  0
   26.2737   17.1150    7.1531 H   0  0  0  0  0  0  0  0  0  0  0  0
   26.4929   15.9111   12.6520 H   0  0  0  0  0  0  0  0  0  0  0  0
   26.0668   17.5224   12.1174 H   0  0  0  0  0  0  0  0  0  0  0  0
   27.1395   17.2897   14.8660 H   0  0  0  0  0  0  0  0  0  0  0  0
   24.7285   18.2118   16.4651 H   0  0  0  0  0  0  0  0  0  0  0  0
   25.7073   16.7327   16.7427 H   0  0  0  0  0  0  0  0  0  0  0  0
   26.3893   18.6204   18.2271 H   0  0  0  0  0  0  0  0  0  0  0  0
   27.7117   18.0950   17.1092 H   0  0  0  0  0  0  0  0  0  0  0  0
   26.6346   21.1377   14.9693 H   0  0  0  0  0  0  0  0  0  0  0  0
   22.1456   15.2359    6.1584 H   0  0  0  0  0  0  0  0  0  0  0  0
  1  2  1  0
  2  3  1  0
  3  4  2  0
  4  5  1  0
  5  6  1  0
  6  7  2  0
  6  8  2  0
  6  9  1  0
  9 10  2  0
 10 11  1  0
 11 12  2  0
 12 13  1  0
 13 14  2  0
 14 15  1  0
 15 16  2  0
 16 17  1  0
 17 18  2  0
 18 19  1  0
 19 20  2  0
 13 21  1  0
 21 22  1  0
 22 23  1  0
 23 24  1  0
 24 25  1  0
 25 26  1  0
 26 27  2  0
 26 28  1  0
 28 29  1  0
 29 30  2  0
 22 31  1  0
 31 32  2  0
  5 33  1  0
 33 34  2  0
 34  3  1  0
 14  9  1  0
 20 15  1  0
 29 23  1  0
 31 12  1  0
  1 35  1  0
  1 36  1  0
  1 37  1  0
  2 38  1  0
  2 39  1  0
  4 40  1  0
 10 41  1  0
 11 42  1  0
 16 43  1  0
 18 44  1  0
 19 45  1  0
 21 46  1  0
 21 47  1  0
 23 48  1  1
 24 49  1  0
 24 50  1  0
 25 51  1  0
 25 52  1  0
 28 53  1  0
 33 54  1  0
M  END
>  <meeko>  (171) 
{"is_sidechain": [true], "free_energy": -11.16, "intermolecular_energy": 0.0, "internal_energy": -11.16, "cluster_size": 12, "cluster_id": 1, "rank_in_cluster": 1}

>  <_RMSD_MCS_to_ref>  (171) 
0.916707574844769

$$$$
ligand
     RDKit          3D

 62 66  0  0  0  0  0  0  0  0999 V2000
   18.9090   19.1540    7.5370 C   0  0  0  0  0  0  0  0  0  0  0  0
   18.7730   17.6460    7.6780 C   0  0  0  0  0  0  0  0  0  0  0  0
   20.0960   16.9700    7.7730 C   0  0  0  0  0  0  0  0  0  0  0  0
   20.6580   16.3100    8.8470 C   0  0  0  0  0  0  0  0  0  0  0  0
   21.8790   15.9000    8.3870 N   0  0  0  0  0  0  0  0  0  0  0  0
   22.9410   14.8690    9.1860 S   0  0  0  0  0  6  0  0  0  0  0  0
   22.1870   14.4010   10.3330 O   0  0  0  0  0  0  0  0  0  0  0  0
   23.4270   13.9780    8.1480 O   0  0  0  0  0  0  0  0  0  0  0  0
   24.2950   15.8600    9.7610 C   0  0  0  0  0  0  0  0  0  0  0  0
   25.4900   15.9660    9.0410 C   0  0  0  0  0  0  0  0  0  0  0  0
   26.5110   16.7890    9.5150 C   0  0  0  0  0  0  0  0  0  0  0  0
   26.3310   17.5240   10.6860 C   0  0  0  0  0  0  0  0  0  0  0  0
   25.1360   17.4340   11.4180 C   0  0  0  0  0  0  0  0  0  0  0  0
   24.1370   16.5580   10.9690 C   0  0  0  0  0  0  0  0  0  0  0  0
   22.9720   16.4030   11.6640 O   0  0  0  0  0  0  0  0  0  0  0  0
   23.0920   15.8850   13.0160 C   0  0  0  0  0  0  0  0  0  0  0  0
   21.6730   15.3370   13.3280 C   0  0  0  0  0  0  0  0  0  0  0  0
   21.6830   14.1500   14.2850 C   0  0  0  0  0  0  0  0  0  0  0  0
   22.7710   14.2500   15.1940 O   0  0  0  0  0  0  0  0  0  0  0  0
   24.0340   14.0840   14.5490 C   0  0  0  0  0  0  0  0  0  0  0  0
   24.0820   14.7070   13.1570 C   0  0  0  0  0  0  0  0  0  0  0  0
   23.4100   17.0560   13.9960 C   0  0  0  0  0  0  0  0  0  0  0  0
   24.7910   17.5820   13.8720 N   0  0  0  0  0  0  0  0  0  0  0  0
   25.1890   18.3480   15.0820 C   0  0  1  0  0  0  0  0  0  0  0  0
   26.4150   17.6950   15.7330 C   0  0  0  0  0  0  0  0  0  0  0  0
   26.7620   18.4300   17.0180 C   0  0  0  0  0  0  0  0  0  0  0  0
   27.0140   19.8930   16.7550 C   0  0  0  0  0  0  0  0  0  0  0  0
   27.7440   20.5740   17.4690 O   0  0  0  0  0  0  0  0  0  0  0  0
   26.3330   20.4520   15.7030 N   0  0  0  0  0  0  0  0  0  0  0  0
   25.4470   19.8470   14.8390 C   0  0  0  0  0  0  0  0  0  0  0  0
   24.8870   20.5200   13.9770 O   0  0  0  0  0  0  0  0  0  0  0  0
   24.9260   18.3340   12.6150 C   0  0  0  0  0  0  0  0  0  0  0  0
   22.0160   16.2800    7.0900 C   0  0  0  0  0  0  0  0  0  0  0  0
   20.9440   16.9270    6.6830 N   0  0  0  0  0  0  0  0  0  0  0  0
   18.9504   19.6134    8.5356 H   0  0  0  0  0  0  0  0  0  0  0  0
   19.8320   19.3891    6.9867 H   0  0  0  0  0  0  0  0  0  0  0  0
   18.0430   19.5504    6.9867 H   0  0  0  0  0  0  0  0  0  0  0  0
   18.1961   17.4256    8.5883 H   0  0  0  0  0  0  0  0  0  0  0  0
   18.2630   17.2668    6.7802 H   0  0  0  0  0  0  0  0  0  0  0  0
   20.2233   16.1503    9.8448 H   0  0  0  0  0  0  0  0  0  0  0  0
   25.6234   15.4028    8.1056 H   0  0  0  0  0  0  0  0  0  0  0  0
   27.4604   16.8585    8.9639 H   0  0  0  0  0  0  0  0  0  0  0  0
   27.1363   18.1836   11.0415 H   0  0  0  0  0  0  0  0  0  0  0  0
   21.0781   16.1447   13.7794 H   0  0  0  0  0  0  0  0  0  0  0  0
   21.2424   14.9868   12.3783 H   0  0  0  0  0  0  0  0  0  0  0  0
   20.7397   14.1335   14.8505 H   0  0  0  0  0  0  0  0  0  0  0  0
   21.7925   13.2243   13.7010 H   0  0  0  0  0  0  0  0  0  0  0  0
   24.8092   14.5559   15.1706 H   0  0  0  0  0  0  0  0  0  0  0  0
   24.2021   13.0034   14.4306 H   0  0  0  0  0  0  0  0  0  0  0  0
   25.1012   15.0749   12.9675 H   0  0  0  0  0  0  0  0  0  0  0  0
   23.7964   13.9339   12.4285 H   0  0  0  0  0  0  0  0  0  0  0  0
   22.7066   17.8774   13.7947 H   0  0  0  0  0  0  0  0  0  0  0  0
   23.3098   16.6564   15.0159 H   0  0  0  0  0  0  0  0  0  0  0  0
   24.3236   18.3082   15.7599 H   0  0  0  0  0  0  0  0  0  0  0  0
   26.1910   16.6427   15.9622 H   0  0  0  0  0  0  0  0  0  0  0  0
   27.2679   17.7474   15.0403 H   0  0  0  0  0  0  0  0  0  0  0  0
   25.9257   18.3310   17.7256 H   0  0  0  0  0  0  0  0  0  0  0  0
   27.6776   17.9875   17.4374 H   0  0  0  0  0  0  0  0  0  0  0  0
   26.5068   21.4537   15.5380 H   0  0  0  0  0  0  0  0  0  0  0  0
   24.0104   18.9227   12.4567 H   0  0  0  0  0  0  0  0  0  0  0  0
   25.8125   18.9788   12.7063 H   0  0  0  0  0  0  0  0  0  0  0  0
   22.8992   16.0757    6.4669 H   0  0  0  0  0  0  0  0  0  0  0  0
  1  2  1  0
  2  3  1  0
  3  4  2  0
  4  5  1  0
  5  6  1  0
  6  7  2  0
  6  8  2  0
  6  9  1  0
  9 10  2  0
 10 11  1  0
 11 12  2  0
 12 13  1  0
 13 14  2  0
 14 15  1  0
 15 16  1  0
 16 17  1  0
 17 18  1  0
 18 19  1  0
 19 20  1  0
 20 21  1  0
 16 22  1  0
 22 23  1  0
 23 24  1  0
 24 25  1  0
 25 26  1  0
 26 27  1  0
 27 28  2  0
 27 29  1  0
 29 30  1  0
 30 31  2  0
 23 32  1  0
  5 33  1  0
 33 34  2  0
 34  3  1  0
 14  9  1  0
 21 16  1  0
 30 24  1  0
 32 13  1  0
  1 35  1  0
  1 36  1  0
  1 37  1  0
  2 38  1  0
  2 39  1  0
  4 40  1  0
 10 41  1  0
 11 42  1  0
 12 43  1  0
 17 44  1  0
 17 45  1  0
 18 46  1  0
 18 47  1  0
 20 48  1  0
 20 49  1  0
 21 50  1  0
 21 51  1  0
 22 52  1  0
 22 53  1  0
 24 54  1  1
 25 55  1  0
 25 56  1  0
 26 57  1  0
 26 58  1  0
 29 59  1  0
 32 60  1  0
 32 61  1  0
 33 62  1  0
M  END
>  <meeko>  (172) 
{"is_sidechain": [true], "free_energy": -11.16, "intermolecular_energy": 0.27, "internal_energy": -11.43, "cluster_size": 15, "cluster_id": 1, "rank_in_cluster": 1}

>  <_RMSD_MCS_to_ref>  (172) 
0.5329700846305642

$$$$
ligand
     RDKit          3D

 48 51  0  0  0  0  0  0  0  0999 V2000
   18.9090   19.1540    7.5370 C   0  0  0  0  0  0  0  0  0  0  0  0
   18.7730   17.6460    7.6780 C   0  0  0  0  0  0  0  0  0  0  0  0
   20.0480   16.9370    7.3830 C   0  0  0  0  0  0  0  0  0  0  0  0
   20.9770   16.4160    8.2620 C   0  0  0  0  0  0  0  0  0  0  0  0
   21.9500   15.9000    7.4540 N   0  0  0  0  0  0  0  0  0  0  0  0
   23.2460   14.9630    7.9600 S   0  0  0  0  0  6  0  0  0  0  0  0
   24.3500   15.3210    7.0850 O   0  0  0  0  0  0  0  0  0  0  0  0
   22.7560   13.6070    8.0870 O   0  0  0  0  0  0  0  0  0  0  0  0
   23.6280   15.5780    9.5770 C   0  0  0  0  0  0  0  0  0  0  0  0
   22.7310   15.3630   10.6330 C   0  0  0  0  0  0  0  0  0  0  0  0
   23.0080   15.8500   11.9150 C   0  0  0  0  0  0  0  0  0  0  0  0
   24.1940   16.5590   12.1890 C   0  0  0  0  0  0  0  0  0  0  0  0
   24.4450   17.0630   13.5630 C   0  0  0  0  0  0  0  0  0  0  0  0
   24.0230   16.4400   14.5330 O   0  0  0  0  0  0  0  0  0  0  0  0
   25.1490   18.2360   13.6820 N   0  0  0  0  0  0  0  0  0  0  0  0
   25.3960   18.8650   14.9680 C   0  0  1  0  0  0  0  0  0  0  0  0
   26.4910   18.1410   15.7450 C   0  0  0  0  0  0  0  0  0  0  0  0
   26.7130   18.8350   17.0790 C   0  0  0  0  0  0  0  0  0  0  0  0
   27.0360   20.2970   16.8890 C   0  0  0  0  0  0  0  0  0  0  0  0
   27.7860   20.9090   17.6440 O   0  0  0  0  0  0  0  0  0  0  0  0
   26.4200   20.9310   15.8400 N   0  0  0  0  0  0  0  0  0  0  0  0
   25.8040   20.3290   14.7680 C   0  0  0  0  0  0  0  0  0  0  0  0
   25.5880   20.9630   13.7370 O   0  0  0  0  0  0  0  0  0  0  0  0
   25.1120   16.7580   11.1390 C   0  0  0  0  0  0  0  0  0  0  0  0
   26.3370   17.3950   11.1230 N   0  0  0  0  0  0  0  0  0  0  0  0
   26.7790   17.2890    9.8920 C   0  0  0  0  0  0  0  0  0  0  0  0
   25.8980   16.6130    9.1000 N   0  0  0  0  0  0  0  0  0  0  0  0
   24.8130   16.2660    9.8710 C   0  0  0  0  0  0  0  0  0  0  0  0
   21.5910   16.0740    6.1570 C   0  0  0  0  0  0  0  0  0  0  0  0
   20.4400   16.7080    6.0790 N   0  0  0  0  0  0  0  0  0  0  0  0
   18.9504   19.6134    8.5356 H   0  0  0  0  0  0  0  0  0  0  0  0
   19.8320   19.3891    6.9867 H   0  0  0  0  0  0  0  0  0  0  0  0
   18.0430   19.5504    6.9867 H   0  0  0  0  0  0  0  0  0  0  0  0
   18.4680   17.4126    8.7088 H   0  0  0  0  0  0  0  0  0  0  0  0
   18.0208   17.3051    6.9513 H   0  0  0  0  0  0  0  0  0  0  0  0
   20.9415   16.4164    9.3614 H   0  0  0  0  0  0  0  0  0  0  0  0
   21.8001   14.8058   10.4517 H   0  0  0  0  0  0  0  0  0  0  0  0
   22.2850   15.6757   12.7255 H   0  0  0  0  0  0  0  0  0  0  0  0
   25.5145   18.6853   12.8302 H   0  0  0  0  0  0  0  0  0  0  0  0
   24.4631   18.8106   15.5483 H   0  0  0  0  0  0  0  0  0  0  0  0
   26.1871   17.0985   15.9207 H   0  0  0  0  0  0  0  0  0  0  0  0
   27.4247   18.1592   15.1637 H   0  0  0  0  0  0  0  0  0  0  0  0
   25.7999   18.7456   17.6858 H   0  0  0  0  0  0  0  0  0  0  0  0
   27.5639   18.3539   17.5835 H   0  0  0  0  0  0  0  0  0  0  0  0
   26.4187   21.9609   15.8570 H   0  0  0  0  0  0  0  0  0  0  0  0
   27.7399   17.6946    9.5425 H   0  0  0  0  0  0  0  0  0  0  0  0
   26.0232   16.3998    8.1001 H   0  0  0  0  0  0  0  0  0  0  0  0
   22.1792   15.7331    5.2922 H   0  0  0  0  0  0  0  0  0  0  0  0
  1  2  1  0
  2  3  1  0
  3  4  2  0
  4  5  1  0
  5  6  1  0
  6  7  2  0
  6  8  2  0
  6  9  1  0
  9 10  2  0
 10 11  1  0
 11 12  2  0
 12 13  1  0
 13 14  2  0
 13 15  1  0
 15 16  1  0
 16 17  1  0
 17 18  1  0
 18 19  1  0
 19 20  2  0
 19 21  1  0
 21 22  1  0
 22 23  2  0
 12 24  1  0
 24 25  1  0
 25 26  2  0
 26 27  1  0
 27 28  1  0
  5 29  1  0
 29 30  2  0
 30  3  1  0
 28  9  1  0
 22 16  1  0
 28 24  2  0
  1 31  1  0
  1 32  1  0
  1 33  1  0
  2 34  1  0
  2 35  1  0
  4 36  1  0
 10 37  1  0
 11 38  1  0
 15 39  1  0
 16 40  1  1
 17 41  1  0
 17 42  1  0
 18 43  1  0
 18 44  1  0
 21 45  1  0
 26 46  1  0
 27 47  1  0
 29 48  1  0
M  END
>  <meeko>  (173) 
{"is_sidechain": [true], "free_energy": -11.16, "intermolecular_energy": 0.0, "internal_energy": -11.16, "cluster_size": 17, "cluster_id": 1, "rank_in_cluster": 1}

>  <_RMSD_MCS_to_ref>  (173) 
0.8481994000364672

$$$$
ligand
     RDKit          3D

 53 56  0  0  0  0  0  0  0  0999 V2000
   18.9090   19.1540    7.5370 C   0  0  0  0  0  0  0  0  0  0  0  0
   18.7730   17.6460    7.6780 C   0  0  0  0  0  0  0  0  0  0  0  0
   20.0870   16.9530    7.5880 C   0  0  0  0  0  0  0  0  0  0  0  0
   21.0020   16.6930    8.5880 C   0  0  0  0  0  0  0  0  0  0  0  0
   22.0060   16.0170    7.9580 N   0  0  0  0  0  0  0  0  0  0  0  0
   23.5050   15.6350    8.6160 S   0  0  0  0  0  6  0  0  0  0  0  0
   24.3160   16.8280    8.4770 O   0  0  0  0  0  0  0  0  0  0  0  0
   23.8850   14.3650    8.0280 O   0  0  0  0  0  0  0  0  0  0  0  0
   23.1510   15.3880   10.3350 C   0  0  0  0  0  0  0  0  0  0  0  0
   24.0590   15.9100   11.2720 C   0  0  0  0  0  0  0  0  0  0  0  0
   23.8040   15.7750   12.6410 C   0  0  0  0  0  0  0  0  0  0  0  0
   24.7260   16.3180   13.6760 C   0  0  0  0  0  0  0  0  0  0  0  0
   25.2900   15.5600   14.4570 O   0  0  0  0  0  0  0  0  0  0  0  0
   24.9180   17.6810   13.6800 N   0  0  0  0  0  0  0  0  0  0  0  0
   25.9130   18.2920   14.5540 C   0  0  2  0  0  0  0  0  0  0  0  0
   25.6750   17.9530   16.0220 C   0  0  0  0  0  0  0  0  0  0  0  0
   26.7190   18.6560   16.8780 C   0  0  0  0  0  0  0  0  0  0  0  0
   26.7140   20.1470   16.6360 C   0  0  0  0  0  0  0  0  0  0  0  0
   26.9670   20.9580   17.5220 O   0  0  0  0  0  0  0  0  0  0  0  0
   26.4420   20.5620   15.3580 N   0  0  0  0  0  0  0  0  0  0  0  0
   25.8460   19.8110   14.3750 C   0  0  0  0  0  0  0  0  0  0  0  0
   25.3070   20.3400   13.4040 O   0  0  0  0  0  0  0  0  0  0  0  0
   22.6330   15.1350   13.0630 C   0  0  0  0  0  0  0  0  0  0  0  0
   21.7270   14.6090   12.1310 C   0  0  0  0  0  0  0  0  0  0  0  0
   21.9920   14.7230   10.7570 C   0  0  0  0  0  0  0  0  0  0  0  0
   21.0860   14.1340    9.8600 N   0  0  0  0  0  0  0  0  0  0  0  0
   19.8540   13.6420   10.2030 C   0  0  0  0  0  0  0  0  0  0  0  0
   19.1400   13.0900    9.3700 O   0  0  0  0  0  0  0  0  0  0  0  0
   19.3860   13.9280   11.6060 C   0  0  0  0  0  0  0  0  0  0  0  0
   20.5300   13.8260   12.5990 C   0  0  0  0  0  0  0  0  0  0  0  0
   21.7160   15.9240    6.6340 C   0  0  0  0  0  0  0  0  0  0  0  0
   20.5510   16.4790    6.3770 N   0  0  0  0  0  0  0  0  0  0  0  0
   18.9504   19.6134    8.5356 H   0  0  0  0  0  0  0  0  0  0  0  0
   19.8320   19.3891    6.9867 H   0  0  0  0  0  0  0  0  0  0  0  0
   18.0430   19.5504    6.9867 H   0  0  0  0  0  0  0  0  0  0  0  0
   18.3197   17.4208    8.6546 H   0  0  0  0  0  0  0  0  0  0  0  0
   18.1430   17.2847    6.8519 H   0  0  0  0  0  0  0  0  0  0  0  0
   20.9367   16.9681    9.6510 H   0  0  0  0  0  0  0  0  0  0  0  0
   24.9691   16.4241   10.9295 H   0  0  0  0  0  0  0  0  0  0  0  0
   24.3523   18.2765   13.0584 H   0  0  0  0  0  0  0  0  0  0  0  0
   26.9023   17.8983   14.2778 H   0  0  0  0  0  0  0  0  0  0  0  0
   24.6704   18.2892   16.3183 H   0  0  0  0  0  0  0  0  0  0  0  0
   25.7534   16.8652   16.1657 H   0  0  0  0  0  0  0  0  0  0  0  0
   26.5004   18.4645   17.9389 H   0  0  0  0  0  0  0  0  0  0  0  0
   27.7106   18.2639   16.6079 H   0  0  0  0  0  0  0  0  0  0  0  0
   26.7093   21.5259   15.1126 H   0  0  0  0  0  0  0  0  0  0  0  0
   22.4209   15.0436   14.1385 H   0  0  0  0  0  0  0  0  0  0  0  0
   21.3684   14.0669    8.8717 H   0  0  0  0  0  0  0  0  0  0  0  0
   18.9675   14.9446   11.6442 H   0  0  0  0  0  0  0  0  0  0  0  0
   18.6229   13.1834   11.8768 H   0  0  0  0  0  0  0  0  0  0  0  0
   20.1989   14.2226   13.5701 H   0  0  0  0  0  0  0  0  0  0  0  0
   20.8190   12.7686   12.6907 H   0  0  0  0  0  0  0  0  0  0  0  0
   22.3645   15.4508    5.8820 H   0  0  0  0  0  0  0  0  0  0  0  0
  1  2  1  0
  2  3  1  0
  3  4  2  0
  4  5  1  0
  5  6  1  0
  6  7  2  0
  6  8  2  0
  6  9  1  0
  9 10  2  0
 10 11  1  0
 11 12  1  0
 12 13  2  0
 12 14  1  0
 14 15  1  0
 15 16  1  0
 16 17  1  0
 17 18  1  0
 18 19  2  0
 18 20  1  0
 20 21  1  0
 21 22  2  0
 11 23  2  0
 23 24  1  0
 24 25  2  0
 25 26  1  0
 26 27  1  0
 27 28  2  0
 27 29  1  0
 29 30  1  0
  5 31  1  0
 31 32  2  0
 32  3  1  0
 25  9  1  0
 21 15  1  0
 30 24  1  0
  1 33  1  0
  1 34  1  0
  1 35  1  0
  2 36  1  0
  2 37  1  0
  4 38  1  0
 10 39  1  0
 14 40  1  0
 15 41  1  6
 16 42  1  0
 16 43  1  0
 17 44  1  0
 17 45  1  0
 20 46  1  0
 23 47  1  0
 26 48  1  0
 29 49  1  0
 29 50  1  0
 30 51  1  0
 30 52  1  0
 31 53  1  0
M  END
>  <meeko>  (174) 
{"is_sidechain": [true], "free_energy": -11.16, "intermolecular_energy": 0.0, "internal_energy": -11.16, "cluster_size": 20, "cluster_id": 1, "rank_in_cluster": 1}

>  <_RMSD_MCS_to_ref>  (174) 
0.6139689641088452

$$$$
ligand
     RDKit          3D

 53 57  0  0  0  0  0  0  0  0999 V2000
   18.9090   19.1540    7.5370 C   0  0  0  0  0  0  0  0  0  0  0  0
   18.7730   17.6460    7.6780 C   0  0  0  0  0  0  0  0  0  0  0  0
   20.0790   16.9870    7.9520 C   0  0  0  0  0  0  0  0  0  0  0  0
   21.1460   16.7890    7.0970 C   0  0  0  0  0  0  0  0  0  0  0  0
   22.0830   16.1710    7.8690 N   0  0  0  0  0  0  0  0  0  0  0  0
   23.6710   15.8440    7.4510 S   0  0  0  0  0  6  0  0  0  0  0  0
   23.6830   15.7600    6.0040 O   0  0  0  0  0  0  0  0  0  0  0  0
   24.5080   16.7630    8.1960 O   0  0  0  0  0  0  0  0  0  0  0  0
   24.1290   14.2860    7.9900 C   0  0  0  0  0  0  0  0  0  0  0  0
   24.4510   13.1980    7.2070 C   0  0  0  0  0  0  0  0  0  0  0  0
   24.7100   12.1850    8.0780 N   0  0  0  0  0  0  0  0  0  0  0  0
   24.5630   12.5380    9.3650 N   0  0  0  0  0  0  0  0  0  0  0  0
   24.2380   13.8400    9.3280 C   0  0  0  0  0  0  0  0  0  0  0  0
   24.0230   14.5760   10.5660 C   0  0  0  0  0  0  0  0  0  0  0  0
   22.8650   14.3180   11.3350 C   0  0  0  0  0  0  0  0  0  0  0  0
   22.6010   15.0470   12.4960 C   0  0  0  0  0  0  0  0  0  0  0  0
   23.5170   16.0150   12.8580 C   0  0  0  0  0  0  0  0  0  0  0  0
   24.6760   16.2690   12.1270 C   0  0  0  0  0  0  0  0  0  0  0  0
   24.9500   15.5500   10.9760 C   0  0  0  0  0  0  0  0  0  0  0  0
   25.4620   17.3630   12.7730 C   0  0  0  0  0  0  0  0  0  0  0  0
   24.6140   17.7340   13.8990 N   0  0  0  0  0  0  0  0  0  0  0  0
   25.0150   18.6600   14.9520 C   0  0  1  0  0  0  0  0  0  0  0  0
   26.0140   18.0040   15.9050 C   0  0  0  0  0  0  0  0  0  0  0  0
   26.3240   18.9490   17.0560 C   0  0  0  0  0  0  0  0  0  0  0  0
   26.8320   20.2780   16.5510 C   0  0  0  0  0  0  0  0  0  0  0  0
   27.6390   20.9550   17.1790 O   0  0  0  0  0  0  0  0  0  0  0  0
   26.3190   20.7180   15.3570 N   0  0  0  0  0  0  0  0  0  0  0  0
   25.5840   19.9940   14.4440 C   0  0  0  0  0  0  0  0  0  0  0  0
   25.3910   20.4440   13.3170 O   0  0  0  0  0  0  0  0  0  0  0  0
   23.4920   16.9280   14.0050 C   0  0  0  0  0  0  0  0  0  0  0  0
   22.6450   16.9360   14.8770 O   0  0  0  0  0  0  0  0  0  0  0  0
   21.5860   15.9890    9.1190 C   0  0  0  0  0  0  0  0  0  0  0  0
   20.3680   16.4820    9.2060 N   0  0  0  0  0  0  0  0  0  0  0  0
   18.9504   19.6134    8.5356 H   0  0  0  0  0  0  0  0  0  0  0  0
   19.8320   19.3891    6.9867 H   0  0  0  0  0  0  0  0  0  0  0  0
   18.0430   19.5504    6.9867 H   0  0  0  0  0  0  0  0  0  0  0  0
   18.0853   17.4284    8.5085 H   0  0  0  0  0  0  0  0  0  0  0  0
   18.3886   17.2511    6.7260 H   0  0  0  0  0  0  0  0  0  0  0  0
   21.2217   17.0669    6.0354 H   0  0  0  0  0  0  0  0  0  0  0  0
   24.4903   13.1572    6.1085 H   0  0  0  0  0  0  0  0  0  0  0  0
   24.9912   11.2402    7.7792 H   0  0  0  0  0  0  0  0  0  0  0  0
   22.1636   13.5335   11.0147 H   0  0  0  0  0  0  0  0  0  0  0  0
   21.6999   14.8580   13.0980 H   0  0  0  0  0  0  0  0  0  0  0  0
   25.8675   15.7357   10.3984 H   0  0  0  0  0  0  0  0  0  0  0  0
   26.4423   17.0000   13.1156 H   0  0  0  0  0  0  0  0  0  0  0  0
   25.6869   18.2011   12.0970 H   0  0  0  0  0  0  0  0  0  0  0  0
   24.0843   18.9036   15.4853 H   0  0  0  0  0  0  0  0  0  0  0  0
   25.5827   17.0734   16.3024 H   0  0  0  0  0  0  0  0  0  0  0  0
   26.9423   17.7786   15.3597 H   0  0  0  0  0  0  0  0  0  0  0  0
   25.4073   19.1143   17.6411 H   0  0  0  0  0  0  0  0  0  0  0  0
   27.1060   18.4921   17.6802 H   0  0  0  0  0  0  0  0  0  0  0  0
   26.5046   21.7020   15.1157 H   0  0  0  0  0  0  0  0  0  0  0  0
   22.1248   15.4987    9.9432 H   0  0  0  0  0  0  0  0  0  0  0  0
  1  2  1  0
  2  3  1  0
  3  4  2  0
  4  5  1  0
  5  6  1  0
  6  7  2  0
  6  8  2  0
  6  9  1  0
  9 10  2  0
 10 11  1  0
 11 12  1  0
 12 13  2  0
 13 14  1  0
 14 15  2  0
 15 16  1  0
 16 17  2  0
 17 18  1  0
 18 19  2  0
 18 20  1  0
 20 21  1  0
 21 22  1  0
 22 23  1  0
 23 24  1  0
 24 25  1  0
 25 26  2  0
 25 27  1  0
 27 28  1  0
 28 29  2  0
 21 30  1  0
 30 31  2  0
  5 32  1  0
 32 33  2  0
 33  3  1  0
 13  9  1  0
 19 14  1  0
 28 22  1  0
 30 17  1  0
  1 34  1  0
  1 35  1  0
  1 36  1  0
  2 37  1  0
  2 38  1  0
  4 39  1  0
 10 40  1  0
 11 41  1  0
 15 42  1  0
 16 43  1  0
 19 44  1  0
 20 45  1  0
 20 46  1  0
 22 47  1  1
 23 48  1  0
 23 49  1  0
 24 50  1  0
 24 51  1  0
 27 52  1  0
 32 53  1  0
M  END
>  <meeko>  (175) 
{"is_sidechain": [true], "free_energy": -11.16, "intermolecular_energy": 0.0, "internal_energy": -11.16, "cluster_size": 20, "cluster_id": 1, "rank_in_cluster": 1}

>  <_RMSD_MCS_to_ref>  (175) 
0.8833588990011052

$$$$
ligand
     RDKit          3D

 52 56  0  0  0  0  0  0  0  0999 V2000
   18.9090   19.1540    7.5370 C   0  0  0  0  0  0  0  0  0  0  0  0
   18.7730   17.6460    7.6780 C   0  0  0  0  0  0  0  0  0  0  0  0
   20.0830   16.9500    7.5460 C   0  0  0  0  0  0  0  0  0  0  0  0
   20.6650   16.0240    8.3880 C   0  0  0  0  0  0  0  0  0  0  0  0
   21.8530   15.7270    7.7860 N   0  0  0  0  0  0  0  0  0  0  0  0
   23.0750   14.7780    8.4440 S   0  0  0  0  0  6  0  0  0  0  0  0
   22.3740   13.8660    9.3250 O   0  0  0  0  0  0  0  0  0  0  0  0
   23.8820   14.3340    7.3270 O   0  0  0  0  0  0  0  0  0  0  0  0
   24.0930   15.8330    9.4530 C   0  0  0  0  0  0  0  0  0  0  0  0
   23.6030   16.1980   10.7200 C   0  0  0  0  0  0  0  0  0  0  0  0
   24.4670   16.8340   11.5900 C   0  0  0  0  0  0  0  0  0  0  0  0
   25.7840   17.1240   11.2680 C   0  0  0  0  0  0  0  0  0  0  0  0
   26.2770   16.8000   10.0170 C   0  0  0  0  0  0  0  0  0  0  0  0
   25.4220   16.1770    9.0720 C   0  0  0  0  0  0  0  0  0  0  0  0
   25.9740   15.9800    7.7710 N   0  0  0  0  0  0  0  0  0  0  0  0
   26.7310   14.9500    7.2650 C   0  0  0  0  0  0  0  0  0  0  0  0
   26.9380   15.2770    5.9470 C   0  0  0  0  0  0  0  0  0  0  0  0
   26.2780   16.4280    5.6560 N   0  0  0  0  0  0  0  0  0  0  0  0
   25.6570   16.8270    6.7560 N   0  0  0  0  0  0  0  0  0  0  0  0
   26.4540   17.8170   12.4090 C   0  0  0  0  0  0  0  0  0  0  0  0
   25.4210   17.7980   13.4370 N   0  0  0  0  0  0  0  0  0  0  0  0
   25.4870   18.5970   14.6560 C   0  0  1  0  0  0  0  0  0  0  0  0
   26.3920   17.9760   15.7160 C   0  0  0  0  0  0  0  0  0  0  0  0
   26.3430   18.8230   16.9780 C   0  0  0  0  0  0  0  0  0  0  0  0
   26.7140   20.2590   16.6890 C   0  0  0  0  0  0  0  0  0  0  0  0
   27.3440   20.9490   17.4850 O   0  0  0  0  0  0  0  0  0  0  0  0
   26.2920   20.7710   15.4880 N   0  0  0  0  0  0  0  0  0  0  0  0
   25.9570   20.0350   14.3750 C   0  0  0  0  0  0  0  0  0  0  0  0
   26.0490   20.5260   13.2520 O   0  0  0  0  0  0  0  0  0  0  0  0
   24.2190   17.3000   12.9580 C   0  0  0  0  0  0  0  0  0  0  0  0
   23.1450   17.2410   13.5220 O   0  0  0  0  0  0  0  0  0  0  0  0
   21.9730   16.4530    6.6440 C   0  0  0  0  0  0  0  0  0  0  0  0
   20.9100   17.2090    6.4700 N   0  0  0  0  0  0  0  0  0  0  0  0
   18.9504   19.6134    8.5356 H   0  0  0  0  0  0  0  0  0  0  0  0
   19.8320   19.3891    6.9867 H   0  0  0  0  0  0  0  0  0  0  0  0
   18.0430   19.5504    6.9867 H   0  0  0  0  0  0  0  0  0  0  0  0
   18.3491   17.4192    8.6674 H   0  0  0  0  0  0  0  0  0  0  0  0
   18.1169   17.2884    6.8708 H   0  0  0  0  0  0  0  0  0  0  0  0
   20.2634   15.6186    9.3284 H   0  0  0  0  0  0  0  0  0  0  0  0
   22.5636   15.9835   11.0091 H   0  0  0  0  0  0  0  0  0  0  0  0
   27.3223   17.0233    9.7573 H   0  0  0  0  0  0  0  0  0  0  0  0
   27.0921   14.0587    7.7990 H   0  0  0  0  0  0  0  0  0  0  0  0
   27.5448   14.6962    5.2367 H   0  0  0  0  0  0  0  0  0  0  0  0
   27.3506   17.2699   12.7357 H   0  0  0  0  0  0  0  0  0  0  0  0
   26.8092   18.8282   12.1615 H   0  0  0  0  0  0  0  0  0  0  0  0
   24.4587   18.6212   15.0458 H   0  0  0  0  0  0  0  0  0  0  0  0
   26.0456   16.9571   15.9437 H   0  0  0  0  0  0  0  0  0  0  0  0
   27.4249   17.9346   15.3401 H   0  0  0  0  0  0  0  0  0  0  0  0
   25.3240   18.7922   17.3911 H   0  0  0  0  0  0  0  0  0  0  0  0
   27.0671   18.4152   17.6987 H   0  0  0  0  0  0  0  0  0  0  0  0
   26.2197   21.7957   15.4132 H   0  0  0  0  0  0  0  0  0  0  0  0
   22.8354   16.4144    5.9623 H   0  0  0  0  0  0  0  0  0  0  0  0
  1  2  1  0
  2  3  1  0
  3  4  2  0
  4  5  1  0
  5  6  1  0
  6  7  2  0
  6  8  2  0
  6  9  1  0
  9 10  2  0
 10 11  1  0
 11 12  2  0
 12 13  1  0
 13 14  2  0
 14 15  1  0
 15 16  1  0
 16 17  2  0
 17 18  1  0
 18 19  2  0
 12 20  1  0
 20 21  1  0
 21 22  1  0
 22 23  1  0
 23 24  1  0
 24 25  1  0
 25 26  2  0
 25 27  1  0
 27 28  1  0
 28 29  2  0
 21 30  1  0
 30 31  2  0
  5 32  1  0
 32 33  2  0
 33  3  1  0
 14  9  1  0
 19 15  1  0
 28 22  1  0
 30 11  1  0
  1 34  1  0
  1 35  1  0
  1 36  1  0
  2 37  1  0
  2 38  1  0
  4 39  1  0
 10 40  1  0
 13 41  1  0
 16 42  1  0
 17 43  1  0
 20 44  1  0
 20 45  1  0
 22 46  1  1
 23 47  1  0
 23 48  1  0
 24 49  1  0
 24 50  1  0
 27 51  1  0
 32 52  1  0
M  END
>  <meeko>  (176) 
{"is_sidechain": [true], "free_energy": -11.16, "intermolecular_energy": 0.0, "internal_energy": -11.16, "cluster_size": 14, "cluster_id": 1, "rank_in_cluster": 1}

>  <_RMSD_MCS_to_ref>  (176) 
0.8986976070341397

$$$$
ligand
     RDKit          3D

 54 58  0  0  0  0  0  0  0  0999 V2000
   18.9090   19.1540    7.5370 C   0  0  0  0  0  0  0  0  0  0  0  0
   18.7730   17.6460    7.6780 C   0  0  0  0  0  0  0  0  0  0  0  0
   20.0850   16.9520    7.5890 C   0  0  0  0  0  0  0  0  0  0  0  0
   20.7180   16.1680    8.5320 C   0  0  0  0  0  0  0  0  0  0  0  0
   21.8980   15.8130    7.9390 N   0  0  0  0  0  0  0  0  0  0  0  0
   22.9990   14.6990    8.5410 S   0  0  0  0  0  6  0  0  0  0  0  0
   23.7380   14.2620    7.3690 O   0  0  0  0  0  0  0  0  0  0  0  0
   22.2520   13.7550    9.3500 O   0  0  0  0  0  0  0  0  0  0  0  0
   24.1160   15.5870    9.6050 C   0  0  0  0  0  0  0  0  0  0  0  0
   23.6520   15.9110   10.8930 C   0  0  0  0  0  0  0  0  0  0  0  0
   24.4890   16.6520   11.7020 C   0  0  0  0  0  0  0  0  0  0  0  0
   25.7410   17.0910   11.2900 C   0  0  0  0  0  0  0  0  0  0  0  0
   26.1990   16.7900   10.0180 C   0  0  0  0  0  0  0  0  0  0  0  0
   25.3880   16.0280    9.1440 C   0  0  0  0  0  0  0  0  0  0  0  0
   25.9210   15.6940    7.8230 C   0  0  0  0  0  0  0  0  0  0  0  0
   26.7230   14.5820    7.5730 C   0  0  0  0  0  0  0  0  0  0  0  0
   27.1560   14.2510    6.3320 N   0  0  0  0  0  0  0  0  0  0  0  0
   26.7680   15.0880    5.3440 C   0  0  0  0  0  0  0  0  0  0  0  0
   25.9750   16.1970    5.5850 C   0  0  0  0  0  0  0  0  0  0  0  0
   25.5330   16.5220    6.8230 N   0  0  0  0  0  0  0  0  0  0  0  0
   26.3930   17.8780   12.3800 C   0  0  0  0  0  0  0  0  0  0  0  0
   25.4300   17.7690   13.4670 N   0  0  0  0  0  0  0  0  0  0  0  0
   25.4800   18.5930   14.6700 C   0  0  1  0  0  0  0  0  0  0  0  0
   26.3380   17.9740   15.7680 C   0  0  0  0  0  0  0  0  0  0  0  0
   26.2730   18.8470   17.0130 C   0  0  0  0  0  0  0  0  0  0  0  0
   26.6840   20.2680   16.7030 C   0  0  0  0  0  0  0  0  0  0  0  0
   27.3210   20.9550   17.4960 O   0  0  0  0  0  0  0  0  0  0  0  0
   26.2960   20.7680   15.4870 N   0  0  0  0  0  0  0  0  0  0  0  0
   25.9940   20.0140   14.3760 C   0  0  0  0  0  0  0  0  0  0  0  0
   26.1520   20.4740   13.2480 O   0  0  0  0  0  0  0  0  0  0  0  0
   24.2680   17.1240   13.0730 C   0  0  0  0  0  0  0  0  0  0  0  0
   23.2460   16.9600   13.7090 O   0  0  0  0  0  0  0  0  0  0  0  0
   21.9080   16.2830    6.6640 C   0  0  0  0  0  0  0  0  0  0  0  0
   20.8410   17.0200    6.4330 N   0  0  0  0  0  0  0  0  0  0  0  0
   18.9504   19.6134    8.5356 H   0  0  0  0  0  0  0  0  0  0  0  0
   19.8320   19.3891    6.9867 H   0  0  0  0  0  0  0  0  0  0  0  0
   18.0430   19.5504    6.9867 H   0  0  0  0  0  0  0  0  0  0  0  0
   18.3191   17.4212    8.6544 H   0  0  0  0  0  0  0  0  0  0  0  0
   18.1439   17.2853    6.8509 H   0  0  0  0  0  0  0  0  0  0  0  0
   20.3557   15.8915    9.5331 H   0  0  0  0  0  0  0  0  0  0  0  0
   22.6605   15.5863   11.2416 H   0  0  0  0  0  0  0  0  0  0  0  0
   27.1880   17.1415    9.6889 H   0  0  0  0  0  0  0  0  0  0  0  0
   27.0175   13.9450    8.4200 H   0  0  0  0  0  0  0  0  0  0  0  0
   27.0933   14.8810    4.3138 H   0  0  0  0  0  0  0  0  0  0  0  0
   25.6930   16.8392    4.7377 H   0  0  0  0  0  0  0  0  0  0  0  0
   27.3618   17.4398   12.6618 H   0  0  0  0  0  0  0  0  0  0  0  0
   26.6183   18.9166   12.0963 H   0  0  0  0  0  0  0  0  0  0  0  0
   24.4408   18.6504   15.0260 H   0  0  0  0  0  0  0  0  0  0  0  0
   25.9612   16.9681   16.0050 H   0  0  0  0  0  0  0  0  0  0  0  0
   27.3802   17.9024   15.4235 H   0  0  0  0  0  0  0  0  0  0  0  0
   25.2428   18.8469   17.3985 H   0  0  0  0  0  0  0  0  0  0  0  0
   26.9663   18.4384   17.7629 H   0  0  0  0  0  0  0  0  0  0  0  0
   26.2247   21.7916   15.3975 H   0  0  0  0  0  0  0  0  0  0  0  0
   22.6979   16.0765    5.9268 H   0  0  0  0  0  0  0  0  0  0  0  0
  1  2  1  0
  2  3  1  0
  3  4  2  0
  4  5  1  0
  5  6  1  0
  6  7  2  0
  6  8  2  0
  6  9  1  0
  9 10  2  0
 10 11  1  0
 11 12  2  0
 12 13  1  0
 13 14  2  0
 14 15  1  0
 15 16  2  0
 16 17  1  0
 17 18  2  0
 18 19  1  0
 19 20  2  0
 12 21  1  0
 21 22  1  0
 22 23  1  0
 23 24  1  0
 24 25  1  0
 25 26  1  0
 26 27  2  0
 26 28  1  0
 28 29  1  0
 29 30  2  0
 22 31  1  0
 31 32  2  0
  5 33  1  0
 33 34  2  0
 34  3  1  0
 14  9  1  0
 20 15  1  0
 29 23  1  0
 31 11  1  0
  1 35  1  0
  1 36  1  0
  1 37  1  0
  2 38  1  0
  2 39  1  0
  4 40  1  0
 10 41  1  0
 13 42  1  0
 16 43  1  0
 18 44  1  0
 19 45  1  0
 21 46  1  0
 21 47  1  0
 23 48  1  1
 24 49  1  0
 24 50  1  0
 25 51  1  0
 25 52  1  0
 28 53  1  0
 33 54  1  0
M  END
>  <meeko>  (177) 
{"is_sidechain": [true], "free_energy": -11.16, "intermolecular_energy": 0.0, "internal_energy": -11.16, "cluster_size": 19, "cluster_id": 1, "rank_in_cluster": 1}

>  <_RMSD_MCS_to_ref>  (177) 
0.8187111822859149

$$$$
ligand
     RDKit          3D

 54 58  0  0  0  0  0  0  0  0999 V2000
   18.7970   18.8160    7.7190 C   0  0  0  0  0  0  0  0  0  0  0  0
   18.5280   17.3300    7.8810 C   0  0  0  0  0  0  0  0  0  0  0  0
   19.7760   16.5210    7.8160 C   0  0  0  0  0  0  0  0  0  0  0  0
   20.6340   16.1700    8.8390 C   0  0  0  0  0  0  0  0  0  0  0  0
   21.6180   15.4560    8.2200 N   0  0  0  0  0  0  0  0  0  0  0  0
   22.8360   14.5930    8.9770 S   0  0  0  0  0  6  0  0  0  0  0  0
   24.0420   15.3950    8.9050 O   0  0  0  0  0  0  0  0  0  0  0  0
   22.7700   13.2380    8.4660 O   0  0  0  0  0  0  0  0  0  0  0  0
   22.4550   14.4620   10.6870 C   0  0  0  0  0  0  0  0  0  0  0  0
   23.2130   14.8690   11.6880 N   0  0  0  0  0  0  0  0  0  0  0  0
   22.4930   14.6060   12.8370 C   0  0  0  0  0  0  0  0  0  0  0  0
   22.8170   14.8500   14.1860 C   0  0  0  0  0  0  0  0  0  0  0  0
   24.1050   15.4730   14.5820 C   0  0  0  0  0  0  0  0  0  0  0  0
   25.0580   14.7740   14.9120 O   0  0  0  0  0  0  0  0  0  0  0  0
   24.1660   16.8450   14.5470 N   0  0  0  0  0  0  0  0  0  0  0  0
   25.3680   17.5870   14.8800 C   0  0  2  0  0  0  0  0  0  0  0  0
   25.6560   17.5280   16.3760 C   0  0  0  0  0  0  0  0  0  0  0  0
   26.9150   18.3230   16.6830 C   0  0  0  0  0  0  0  0  0  0  0  0
   26.8070   19.7440   16.1840 C   0  0  0  0  0  0  0  0  0  0  0  0
   27.3810   20.6800   16.7330 O   0  0  0  0  0  0  0  0  0  0  0  0
   26.0690   19.9440   15.0450 N   0  0  0  0  0  0  0  0  0  0  0  0
   25.2100   19.0510   14.4500 C   0  0  0  0  0  0  0  0  0  0  0  0
   24.4010   19.4280   13.6030 O   0  0  0  0  0  0  0  0  0  0  0  0
   21.8830   14.4980   15.1790 C   0  0  0  0  0  0  0  0  0  0  0  0
   20.6530   13.9050   14.8520 C   0  0  0  0  0  0  0  0  0  0  0  0
   19.7260   13.5510   15.8440 C   0  0  0  0  0  0  0  0  0  0  0  0
   18.5050   12.9620   15.5040 C   0  0  0  0  0  0  0  0  0  0  0  0
   18.1880   12.7150   14.1690 C   0  0  0  0  0  0  0  0  0  0  0  0
   19.0890   13.0550   13.1610 C   0  0  0  0  0  0  0  0  0  0  0  0
   20.3210   13.6500   13.4990 C   0  0  0  0  0  0  0  0  0  0  0  0
   21.2690   14.0180   12.5190 C   0  0  0  0  0  0  0  0  0  0  0  0
   21.2790   13.9300   11.1480 N   0  0  0  0  0  0  0  0  0  0  0  0
   21.3140   15.3320    6.9020 C   0  0  0  0  0  0  0  0  0  0  0  0
   20.2080   15.9860    6.6180 N   0  0  0  0  0  0  0  0  0  0  0  0
   18.8816   19.2836    8.7111 H   0  0  0  0  0  0  0  0  0  0  0  0
   19.7359   18.9603    7.1643 H   0  0  0  0  0  0  0  0  0  0  0  0
   17.9683   19.2803    7.1643 H   0  0  0  0  0  0  0  0  0  0  0  0
   18.0472   17.1615    8.8559 H   0  0  0  0  0  0  0  0  0  0  0  0
   17.8772   17.0129    7.0528 H   0  0  0  0  0  0  0  0  0  0  0  0
   20.5447   16.4109    9.9086 H   0  0  0  0  0  0  0  0  0  0  0  0
   23.3229   17.3693   14.2728 H   0  0  0  0  0  0  0  0  0  0  0  0
   26.2116   17.1274   14.3442 H   0  0  0  0  0  0  0  0  0  0  0  0
   24.8077   17.9569   16.9296 H   0  0  0  0  0  0  0  0  0  0  0  0
   25.8012   16.4808   16.6798 H   0  0  0  0  0  0  0  0  0  0  0  0
   27.0722   18.3373   17.7716 H   0  0  0  0  0  0  0  0  0  0  0  0
   27.7612   17.8408   16.1717 H   0  0  0  0  0  0  0  0  0  0  0  0
   26.1693   20.8610   14.5869 H   0  0  0  0  0  0  0  0  0  0  0  0
   22.1223   14.6920   16.2350 H   0  0  0  0  0  0  0  0  0  0  0  0
   19.9630   13.7392   16.9015 H   0  0  0  0  0  0  0  0  0  0  0  0
   17.7896   12.6916   16.2947 H   0  0  0  0  0  0  0  0  0  0  0  0
   17.2248   12.2508   13.9105 H   0  0  0  0  0  0  0  0  0  0  0  0
   18.8397   12.8599   12.1075 H   0  0  0  0  0  0  0  0  0  0  0  0
   20.5292   13.5315   10.5650 H   0  0  0  0  0  0  0  0  0  0  0  0
   21.9099   14.7635    6.1728 H   0  0  0  0  0  0  0  0  0  0  0  0
  1  2  1  0
  2  3  1  0
  3  4  2  0
  4  5  1  0
  5  6  1  0
  6  7  2  0
  6  8  2  0
  6  9  1  0
  9 10  2  0
 10 11  1  0
 11 12  2  0
 12 13  1  0
 13 14  2  0
 13 15  1  0
 15 16  1  0
 16 17  1  0
 17 18  1  0
 18 19  1  0
 19 20  2  0
 19 21  1  0
 21 22  1  0
 22 23  2  0
 12 24  1  0
 24 25  2  0
 25 26  1  0
 26 27  2  0
 27 28  1  0
 28 29  2  0
 29 30  1  0
 30 31  2  0
 31 32  1  0
  5 33  1  0
 33 34  2  0
 34  3  1  0
 32  9  1  0
 31 11  1  0
 22 16  1  0
 30 25  1  0
  1 35  1  0
  1 36  1  0
  1 37  1  0
  2 38  1  0
  2 39  1  0
  4 40  1  0
 15 41  1  0
 16 42  1  6
 17 43  1  0
 17 44  1  0
 18 45  1  0
 18 46  1  0
 21 47  1  0
 24 48  1  0
 26 49  1  0
 27 50  1  0
 28 51  1  0
 29 52  1  0
 32 53  1  0
 33 54  1  0
M  END
>  <meeko>  (178) 
{"is_sidechain": [true], "free_energy": -11.15, "intermolecular_energy": 0.0, "internal_energy": -11.15, "cluster_size": 14, "cluster_id": 1, "rank_in_cluster": 1}

>  <_RMSD_MCS_to_ref>  (178) 
0.7221725709428617

$$$$
ligand
     RDKit          3D

 50 53  0  0  0  0  0  0  0  0999 V2000
   18.9090   19.1540    7.5370 C   0  0  0  0  0  0  0  0  0  0  0  0
   18.7730   17.6460    7.6780 C   0  0  0  0  0  0  0  0  0  0  0  0
   20.0320   16.9340    7.3290 C   0  0  0  0  0  0  0  0  0  0  0  0
   21.1000   16.6070    8.1430 C   0  0  0  0  0  0  0  0  0  0  0  0
   21.9600   15.9450    7.3160 N   0  0  0  0  0  0  0  0  0  0  0  0
   23.5320   15.4820    7.6920 S   0  0  0  0  0  6  0  0  0  0  0  0
   24.3860   16.5130    7.1350 O   0  0  0  0  0  0  0  0  0  0  0  0
   23.6430   14.0890    7.3080 O   0  0  0  0  0  0  0  0  0  0  0  0
   23.5900   15.5850    9.4570 C   0  0  0  0  0  0  0  0  0  0  0  0
   24.6940   16.1500   10.0860 C   0  0  0  0  0  0  0  0  0  0  0  0
   24.7150   16.2130   11.4770 C   0  0  0  0  0  0  0  0  0  0  0  0
   23.6380   15.7130   12.2560 C   0  0  0  0  0  0  0  0  0  0  0  0
   23.5770   15.7300   13.6700 C   0  0  0  0  0  0  0  0  0  0  0  0
   24.6640   16.3290   14.4830 C   0  0  0  0  0  0  0  0  0  0  0  0
   25.4420   15.6260   15.1150 O   0  0  0  0  0  0  0  0  0  0  0  0
   24.7290   17.7030   14.4660 N   0  0  0  0  0  0  0  0  0  0  0  0
   25.8110   18.4270   15.1170 C   0  0  2  0  0  0  0  0  0  0  0  0
   25.8550   18.1680   16.6190 C   0  0  0  0  0  0  0  0  0  0  0  0
   26.9820   18.9800   17.2390 C   0  0  0  0  0  0  0  0  0  0  0  0
   26.8380   20.4490   16.9200 C   0  0  0  0  0  0  0  0  0  0  0  0
   27.1700   21.3300   17.7090 O   0  0  0  0  0  0  0  0  0  0  0  0
   26.3400   20.7650   15.6820 N   0  0  0  0  0  0  0  0  0  0  0  0
   25.6110   19.9260   14.8760 C   0  0  0  0  0  0  0  0  0  0  0  0
   24.8520   20.3680   14.0140 O   0  0  0  0  0  0  0  0  0  0  0  0
   22.4720   15.2080   14.3450 C   0  0  0  0  0  0  0  0  0  0  0  0
   21.4590   14.6670   13.5880 C   0  0  0  0  0  0  0  0  0  0  0  0
   21.4810   14.6180   12.2400 N   0  0  0  0  0  0  0  0  0  0  0  0
   22.5380   15.1290   11.5920 C   0  0  0  0  0  0  0  0  0  0  0  0
   22.5320   15.0700   10.2090 C   0  0  0  0  0  0  0  0  0  0  0  0
   21.4450   15.9260    6.0590 C   0  0  0  0  0  0  0  0  0  0  0  0
   20.2660   16.5110    6.0350 N   0  0  0  0  0  0  0  0  0  0  0  0
   18.9504   19.6134    8.5356 H   0  0  0  0  0  0  0  0  0  0  0  0
   19.8320   19.3891    6.9867 H   0  0  0  0  0  0  0  0  0  0  0  0
   18.0430   19.5504    6.9867 H   0  0  0  0  0  0  0  0  0  0  0  0
   18.5092   17.4098    8.7195 H   0  0  0  0  0  0  0  0  0  0  0  0
   17.9906   17.3105    6.9814 H   0  0  0  0  0  0  0  0  0  0  0  0
   21.2275   16.8295    9.2127 H   0  0  0  0  0  0  0  0  0  0  0  0
   25.5358   16.5403    9.4953 H   0  0  0  0  0  0  0  0  0  0  0  0
   25.5839   16.6593   11.9829 H   0  0  0  0  0  0  0  0  0  0  0  0
   23.9923   18.2337   13.9796 H   0  0  0  0  0  0  0  0  0  0  0  0
   26.7618   18.0764   14.6890 H   0  0  0  0  0  0  0  0  0  0  0  0
   24.8971   18.4651   17.0708 H   0  0  0  0  0  0  0  0  0  0  0  0
   26.0296   17.0975   16.8023 H   0  0  0  0  0  0  0  0  0  0  0  0
   26.9616   18.8465   18.3307 H   0  0  0  0  0  0  0  0  0  0  0  0
   27.9362   18.6255   16.8220 H   0  0  0  0  0  0  0  0  0  0  0  0
   26.5290   21.7130   15.3263 H   0  0  0  0  0  0  0  0  0  0  0  0
   22.4136   15.2286   15.4433 H   0  0  0  0  0  0  0  0  0  0  0  0
   20.5840   14.2520   14.1097 H   0  0  0  0  0  0  0  0  0  0  0  0
   21.6774   14.6086    9.6925 H   0  0  0  0  0  0  0  0  0  0  0  0
   21.9434   15.4837    5.1838 H   0  0  0  0  0  0  0  0  0  0  0  0
  1  2  1  0
  2  3  1  0
  3  4  2  0
  4  5  1  0
  5  6  1  0
  6  7  2  0
  6  8  2  0
  6  9  1  0
  9 10  2  0
 10 11  1  0
 11 12  2  0
 12 13  1  0
 13 14  1  0
 14 15  2  0
 14 16  1  0
 16 17  1  0
 17 18  1  0
 18 19  1  0
 19 20  1  0
 20 21  2  0
 20 22  1  0
 22 23  1  0
 23 24  2  0
 13 25  2  0
 25 26  1  0
 26 27  2  0
 27 28  1  0
 28 29  2  0
  5 30  1  0
 30 31  2  0
 31  3  1  0
 29  9  1  0
 28 12  1  0
 23 17  1  0
  1 32  1  0
  1 33  1  0
  1 34  1  0
  2 35  1  0
  2 36  1  0
  4 37  1  0
 10 38  1  0
 11 39  1  0
 16 40  1  0
 17 41  1  6
 18 42  1  0
 18 43  1  0
 19 44  1  0
 19 45  1  0
 22 46  1  0
 25 47  1  0
 26 48  1  0
 29 49  1  0
 30 50  1  0
M  END
>  <meeko>  (179) 
{"is_sidechain": [true], "free_energy": -11.15, "intermolecular_energy": 0.0, "internal_energy": -11.15, "cluster_size": 20, "cluster_id": 1, "rank_in_cluster": 1}

>  <_RMSD_MCS_to_ref>  (179) 
0.85132726440019

$$$$
ligand
     RDKit          3D

 47 51  0  0  0  0  0  0  0  0999 V2000
   18.9090   19.1540    7.5370 C   0  0  0  0  0  0  0  0  0  0  0  0
   18.7730   17.6460    7.6780 C   0  0  0  0  0  0  0  0  0  0  0  0
   20.0660   16.9420    7.4550 C   0  0  0  0  0  0  0  0  0  0  0  0
   20.6000   15.8670    8.1390 C   0  0  0  0  0  0  0  0  0  0  0  0
   21.8110   15.6600    7.5430 N   0  0  0  0  0  0  0  0  0  0  0  0
   22.8130   14.3280    7.7900 S   0  0  0  0  0  6  0  0  0  0  0  0
   21.9970   13.3820    8.5290 O   0  0  0  0  0  0  0  0  0  0  0  0
   23.3400   14.0130    6.4750 O   0  0  0  0  0  0  0  0  0  0  0  0
   24.0280   14.8490    8.7440 O   0  0  0  0  0  0  0  0  0  0  0  0
   23.8190   15.3410   10.0090 C   0  0  0  0  0  0  0  0  0  0  0  0
   22.7280   15.0100   10.8410 C   0  0  0  0  0  0  0  0  0  0  0  0
   22.6070   15.5610   12.1240 C   0  0  0  0  0  0  0  0  0  0  0  0
   23.5890   16.4380   12.5350 C   0  0  0  0  0  0  0  0  0  0  0  0
   24.6570   16.7620   11.7240 C   0  0  0  0  0  0  0  0  0  0  0  0
   24.8050   16.2300   10.4580 C   0  0  0  0  0  0  0  0  0  0  0  0
   25.5070   17.6900   12.4640 C   0  0  0  0  0  0  0  0  0  0  0  0
   26.5620   18.1300   12.0490 O   0  0  0  0  0  0  0  0  0  0  0  0
   24.8880   17.9240   13.6650 N   0  0  0  0  0  0  0  0  0  0  0  0
   25.5030   18.6690   14.7720 C   0  0  1  0  0  0  0  0  0  0  0  0
   24.8040   18.4910   16.1710 C   0  0  0  0  0  0  0  0  0  0  0  0
   26.2420   18.7590   16.7290 C   0  0  1  0  0  0  0  0  0  0  0  0
   26.7120   17.9470   15.4770 C   0  0  0  0  0  0  0  0  0  0  0  0
   26.6630   20.2830   16.6930 C   0  0  0  0  0  0  0  0  0  0  0  0
   27.1750   20.9260   17.6050 O   0  0  0  0  0  0  0  0  0  0  0  0
   26.3920   20.8770   15.4740 N   0  0  0  0  0  0  0  0  0  0  0  0
   25.8110   20.2010   14.4160 C   0  0  0  0  0  0  0  0  0  0  0  0
   25.5840   20.7810   13.3550 O   0  0  0  0  0  0  0  0  0  0  0  0
   23.7580   17.1580   13.7950 C   0  0  0  0  0  0  0  0  0  0  0  0
   23.0130   17.0500   14.7500 O   0  0  0  0  0  0  0  0  0  0  0  0
   21.9460   16.5190    6.5000 C   0  0  0  0  0  0  0  0  0  0  0  0
   20.9120   17.3300    6.4340 N   0  0  0  0  0  0  0  0  0  0  0  0
   18.9504   19.6134    8.5356 H   0  0  0  0  0  0  0  0  0  0  0  0
   19.8320   19.3891    6.9867 H   0  0  0  0  0  0  0  0  0  0  0  0
   18.0430   19.5504    6.9867 H   0  0  0  0  0  0  0  0  0  0  0  0
   18.4145   17.4158    8.6921 H   0  0  0  0  0  0  0  0  0  0  0  0
   18.0624   17.2978    6.9139 H   0  0  0  0  0  0  0  0  0  0  0  0
   20.1522   15.3063    8.9727 H   0  0  0  0  0  0  0  0  0  0  0  0
   21.9618   14.3096   10.4773 H   0  0  0  0  0  0  0  0  0  0  0  0
   21.7610   15.3038   12.7783 H   0  0  0  0  0  0  0  0  0  0  0  0
   25.6652   16.4944    9.8254 H   0  0  0  0  0  0  0  0  0  0  0  0
   24.0494   19.2506   16.4231 H   0  0  0  0  0  0  0  0  0  0  0  0
   24.1963   17.6155   16.4434 H   0  0  0  0  0  0  0  0  0  0  0  0
   26.5490   18.5204   17.7580 H   0  0  0  0  0  0  0  0  0  0  0  0
   27.7087   18.2071   15.0911 H   0  0  0  0  0  0  0  0  0  0  0  0
   26.8575   16.8567   15.4754 H   0  0  0  0  0  0  0  0  0  0  0  0
   26.6343   21.8701   15.3477 H   0  0  0  0  0  0  0  0  0  0  0  0
   22.8003   16.5346    5.8072 H   0  0  0  0  0  0  0  0  0  0  0  0
  1  2  1  0
  2  3  1  0
  3  4  2  0
  4  5  1  0
  5  6  1  0
  6  7  2  0
  6  8  2  0
  6  9  1  0
  9 10  1  0
 10 11  1  0
 11 12  2  0
 12 13  1  0
 13 14  2  0
 14 15  1  0
 14 16  1  0
 16 17  2  0
 16 18  1  0
 19 18  1  6
 19 20  1  0
 20 21  1  0
 21 22  1  0
 21 23  1  0
 23 24  2  0
 23 25  1  0
 25 26  1  0
 26 27  2  0
 18 28  1  0
 28 29  2  0
  5 30  1  0
 30 31  2  0
 31  3  1  0
 15 10  2  0
 22 19  1  0
 28 13  1  0
 26 19  1  0
  1 32  1  0
  1 33  1  0
  1 34  1  0
  2 35  1  0
  2 36  1  0
  4 37  1  0
 11 38  1  0
 12 39  1  0
 15 40  1  0
 20 41  1  0
 20 42  1  0
 21 43  1  1
 22 44  1  0
 22 45  1  0
 25 46  1  0
 30 47  1  0
M  END
>  <meeko>  (180) 
{"is_sidechain": [true], "free_energy": -11.15, "intermolecular_energy": 0.0, "internal_energy": -11.15, "cluster_size": 20, "cluster_id": 1, "rank_in_cluster": 1}

>  <_RMSD_MCS_to_ref>  (180) 
0.8519039975564338

$$$$
ligand
     RDKit          3D

 52 56  0  0  0  0  0  0  0  0999 V2000
   18.9090   19.1540    7.5370 C   0  0  0  0  0  0  0  0  0  0  0  0
   18.7730   17.6460    7.6780 C   0  0  0  0  0  0  0  0  0  0  0  0
   20.0770   16.9500    7.5130 C   0  0  0  0  0  0  0  0  0  0  0  0
   21.0110   16.6230    8.4760 C   0  0  0  0  0  0  0  0  0  0  0  0
   22.0400   16.0740    7.7700 N   0  0  0  0  0  0  0  0  0  0  0  0
   23.4720   15.4570    8.3840 S   0  0  0  0  0  6  0  0  0  0  0  0
   23.5470   14.0490    8.0620 O   0  0  0  0  0  0  0  0  0  0  0  0
   24.4700   16.3910    7.8860 O   0  0  0  0  0  0  0  0  0  0  0  0
   23.4300   15.6450   10.1710 C   0  0  0  0  0  0  0  0  0  0  0  0
   24.4650   16.4710   10.6810 C   0  0  0  0  0  0  0  0  0  0  0  0
   24.4530   16.8240   12.0160 C   0  0  0  0  0  0  0  0  0  0  0  0
   23.4310   16.3770   12.8390 C   0  0  0  0  0  0  0  0  0  0  0  0
   22.4100   15.5600   12.3920 C   0  0  0  0  0  0  0  0  0  0  0  0
   22.4110   15.1560   11.0380 C   0  0  0  0  0  0  0  0  0  0  0  0
   21.4150   14.2230   10.6490 N   0  0  0  0  0  0  0  0  0  0  0  0
   21.5730   12.9240   10.2150 C   0  0  0  0  0  0  0  0  0  0  0  0
   20.3030   12.4920    9.9260 C   0  0  0  0  0  0  0  0  0  0  0  0
   19.4240   13.5010   10.1570 N   0  0  0  0  0  0  0  0  0  0  0  0
   20.1130   14.5500   10.5830 N   0  0  0  0  0  0  0  0  0  0  0  0
   23.6590   16.9120   14.1850 C   0  0  0  0  0  0  0  0  0  0  0  0
   22.9090   16.7500   15.1270 O   0  0  0  0  0  0  0  0  0  0  0  0
   24.8540   17.6130   14.1400 N   0  0  0  0  0  0  0  0  0  0  0  0
   25.2510   18.5140   15.2170 C   0  0  1  0  0  0  0  0  0  0  0  0
   26.3400   17.9200   16.1060 C   0  0  0  0  0  0  0  0  0  0  0  0
   26.6400   18.8830   17.2460 C   0  0  0  0  0  0  0  0  0  0  0  0
   27.0200   20.2490   16.7210 C   0  0  0  0  0  0  0  0  0  0  0  0
   27.8580   20.9540   17.2740 O   0  0  0  0  0  0  0  0  0  0  0  0
   26.3650   20.6780   15.5960 N   0  0  0  0  0  0  0  0  0  0  0  0
   25.7310   19.8720   14.6780 C   0  0  0  0  0  0  0  0  0  0  0  0
   25.5860   20.2460   13.5150 O   0  0  0  0  0  0  0  0  0  0  0  0
   25.3910   17.6950   12.7880 C   0  0  0  0  0  0  0  0  0  0  0  0
   21.6740   15.9650    6.4650 C   0  0  0  0  0  0  0  0  0  0  0  0
   20.5050   16.5350    6.2650 N   0  0  0  0  0  0  0  0  0  0  0  0
   18.9504   19.6134    8.5356 H   0  0  0  0  0  0  0  0  0  0  0  0
   19.8320   19.3891    6.9867 H   0  0  0  0  0  0  0  0  0  0  0  0
   18.0430   19.5504    6.9867 H   0  0  0  0  0  0  0  0  0  0  0  0
   18.3727   17.4176    8.6768 H   0  0  0  0  0  0  0  0  0  0  0  0
   18.0964   17.2909    6.8867 H   0  0  0  0  0  0  0  0  0  0  0  0
   20.9409   16.7715    9.5637 H   0  0  0  0  0  0  0  0  0  0  0  0
   25.2688   16.8265   10.0196 H   0  0  0  0  0  0  0  0  0  0  0  0
   21.6135   15.2312   13.0757 H   0  0  0  0  0  0  0  0  0  0  0  0
   22.5115   12.3579   10.1210 H   0  0  0  0  0  0  0  0  0  0  0  0
   20.0388   11.4873    9.5644 H   0  0  0  0  0  0  0  0  0  0  0  0
   24.3461   18.6625   15.8246 H   0  0  0  0  0  0  0  0  0  0  0  0
   25.9954   16.9598   16.5173 H   0  0  0  0  0  0  0  0  0  0  0  0
   27.2516   17.7564   15.5124 H   0  0  0  0  0  0  0  0  0  0  0  0
   25.7463   18.9781   17.8802 H   0  0  0  0  0  0  0  0  0  0  0  0
   27.4858   18.4845   17.8256 H   0  0  0  0  0  0  0  0  0  0  0  0
   26.3455   21.6931   15.4223 H   0  0  0  0  0  0  0  0  0  0  0  0
   25.3719   18.7294   12.4144 H   0  0  0  0  0  0  0  0  0  0  0  0
   26.4429   17.3821   12.7134 H   0  0  0  0  0  0  0  0  0  0  0  0
   22.2715   15.4696    5.6855 H   0  0  0  0  0  0  0  0  0  0  0  0
  1  2  1  0
  2  3  1  0
  3  4  2  0
  4  5  1  0
  5  6  1  0
  6  7  2  0
  6  8  2  0
  6  9  1  0
  9 10  2  0
 10 11  1  0
 11 12  2  0
 12 13  1  0
 13 14  2  0
 14 15  1  0
 15 16  1  0
 16 17  2  0
 17 18  1  0
 18 19  2  0
 12 20  1  0
 20 21  2  0
 20 22  1  0
 22 23  1  0
 23 24  1  0
 24 25  1  0
 25 26  1  0
 26 27  2  0
 26 28  1  0
 28 29  1  0
 29 30  2  0
 22 31  1  0
  5 32  1  0
 32 33  2  0
 33  3  1  0
 14  9  1  0
 19 15  1  0
 29 23  1  0
 31 11  1  0
  1 34  1  0
  1 35  1  0
  1 36  1  0
  2 37  1  0
  2 38  1  0
  4 39  1  0
 10 40  1  0
 13 41  1  0
 16 42  1  0
 17 43  1  0
 23 44  1  1
 24 45  1  0
 24 46  1  0
 25 47  1  0
 25 48  1  0
 28 49  1  0
 31 50  1  0
 31 51  1  0
 32 52  1  0
M  END
>  <meeko>  (181) 
{"is_sidechain": [true], "free_energy": -11.15, "intermolecular_energy": 0.0, "internal_energy": -11.15, "cluster_size": 19, "cluster_id": 1, "rank_in_cluster": 1}

>  <_RMSD_MCS_to_ref>  (181) 
0.9980338448948292

$$$$
ligand
     RDKit          3D

 61 65  0  0  0  0  0  0  0  0999 V2000
   18.8250   19.0170    7.5350 C   0  0  0  0  0  0  0  0  0  0  0  0
   18.5200   17.5420    7.7330 C   0  0  0  0  0  0  0  0  0  0  0  0
   19.7540   16.7090    7.7440 C   0  0  0  0  0  0  0  0  0  0  0  0
   20.1660   15.7770    8.6760 C   0  0  0  0  0  0  0  0  0  0  0  0
   21.3520   15.3140    8.1830 N   0  0  0  0  0  0  0  0  0  0  0  0
   22.4080   14.2690    8.9670 S   0  0  0  0  0  6  0  0  0  0  0  0
   23.1580   13.6280    7.9030 O   0  0  0  0  0  0  0  0  0  0  0  0
   21.5830   13.5260    9.9010 O   0  0  0  0  0  0  0  0  0  0  0  0
   23.5560   15.2440    9.9250 C   0  0  0  0  0  0  0  0  0  0  0  0
   23.2170   15.6160   11.2360 C   0  0  0  0  0  0  0  0  0  0  0  0
   24.1310   16.3750   11.9410 C   0  0  0  0  0  0  0  0  0  0  0  0
   25.3460   16.7850   11.4090 C   0  0  0  0  0  0  0  0  0  0  0  0
   25.6930   16.4270   10.1210 C   0  0  0  0  0  0  0  0  0  0  0  0
   24.8070   15.6370    9.3500 C   0  0  0  0  0  0  0  0  0  0  0  0
   25.2340   15.2530    7.9310 C   0  0  0  0  0  0  0  0  0  0  0  0
   26.6720   14.7080    7.8760 C   0  0  0  0  0  0  0  0  0  0  0  0
   27.0720   14.3820    6.4380 C   0  0  0  0  0  0  0  0  0  0  0  0
   26.9240   15.5520    5.5720 N   0  0  0  0  0  0  0  0  0  0  0  0
   25.5400   16.0310    5.5500 C   0  0  0  0  0  0  0  0  0  0  0  0
   25.0700   16.4250    6.9490 C   0  0  0  0  0  0  0  0  0  0  0  0
   26.0890   17.6140   12.4040 C   0  0  0  0  0  0  0  0  0  0  0  0
   25.2270   17.5450   13.5780 N   0  0  0  0  0  0  0  0  0  0  0  0
   25.3830   18.4110   14.7410 C   0  0  1  0  0  0  0  0  0  0  0  0
   26.2220   17.7670   15.8410 C   0  0  0  0  0  0  0  0  0  0  0  0
   26.2670   18.6920   17.0480 C   0  0  0  0  0  0  0  0  0  0  0  0
   26.7850   20.0600   16.6690 C   0  0  0  0  0  0  0  0  0  0  0  0
   27.4910   20.7270   17.4190 O   0  0  0  0  0  0  0  0  0  0  0  0
   26.4140   20.5370   15.4370 N   0  0  0  0  0  0  0  0  0  0  0  0
   26.0020   19.7710   14.3710 C   0  0  0  0  0  0  0  0  0  0  0  0
   26.1470   20.1770   13.2200 O   0  0  0  0  0  0  0  0  0  0  0  0
   24.0330   16.8930   13.3090 C   0  0  0  0  0  0  0  0  0  0  0  0
   23.0700   16.7530   14.0360 O   0  0  0  0  0  0  0  0  0  0  0  0
   21.6410   15.9630    7.0260 C   0  0  0  0  0  0  0  0  0  0  0  0
   20.6860   16.8190    6.7290 N   0  0  0  0  0  0  0  0  0  0  0  0
   18.9260   19.5054    8.5155 H   0  0  0  0  0  0  0  0  0  0  0  0
   19.7645   19.1250    6.9731 H   0  0  0  0  0  0  0  0  0  0  0  0
   18.0054   19.4887    6.9731 H   0  0  0  0  0  0  0  0  0  0  0  0
   17.9976   17.4140    8.6926 H   0  0  0  0  0  0  0  0  0  0  0  0
   17.8961   17.2101    6.8901 H   0  0  0  0  0  0  0  0  0  0  0  0
   19.6557   15.4766    9.6030 H   0  0  0  0  0  0  0  0  0  0  0  0
   22.2592   15.3142   11.6849 H   0  0  0  0  0  0  0  0  0  0  0  0
   26.6535   16.7543    9.6963 H   0  0  0  0  0  0  0  0  0  0  0  0
   24.5586   14.4423    7.6201 H   0  0  0  0  0  0  0  0  0  0  0  0
   27.3606   15.4650    8.2794 H   0  0  0  0  0  0  0  0  0  0  0  0
   26.7239   13.7867    8.4747 H   0  0  0  0  0  0  0  0  0  0  0  0
   28.1219   14.0542    6.4227 H   0  0  0  0  0  0  0  0  0  0  0  0
   26.4126   13.5849    6.0641 H   0  0  0  0  0  0  0  0  0  0  0  0
   27.5336   16.3056    5.9203 H   0  0  0  0  0  0  0  0  0  0  0  0
   25.4742   16.9078    4.8891 H   0  0  0  0  0  0  0  0  0  0  0  0
   24.8959   15.2188    5.1818 H   0  0  0  0  0  0  0  0  0  0  0  0
   25.6672   17.2782    7.3030 H   0  0  0  0  0  0  0  0  0  0  0  0
   24.0053   16.6968    6.8995 H   0  0  0  0  0  0  0  0  0  0  0  0
   27.0815   17.1887   12.6139 H   0  0  0  0  0  0  0  0  0  0  0  0
   26.2827   18.6413   12.0617 H   0  0  0  0  0  0  0  0  0  0  0  0
   24.3640   18.5706   15.1233 H   0  0  0  0  0  0  0  0  0  0  0  0
   25.7718   16.8063   16.1313 H   0  0  0  0  0  0  0  0  0  0  0  0
   27.2436   17.5949   15.4713 H   0  0  0  0  0  0  0  0  0  0  0  0
   25.2521   18.7940   17.4599 H   0  0  0  0  0  0  0  0  0  0  0  0
   26.9469   18.2568   17.7952 H   0  0  0  0  0  0  0  0  0  0  0  0
   26.4468   21.5571   15.2983 H   0  0  0  0  0  0  0  0  0  0  0  0
   22.5453   15.7970    6.4221 H   0  0  0  0  0  0  0  0  0  0  0  0
  1  2  1  0
  2  3  1  0
  3  4  2  0
  4  5  1  0
  5  6  1  0
  6  7  2  0
  6  8  2  0
  6  9  1  0
  9 10  2  0
 10 11  1  0
 11 12  2  0
 12 13  1  0
 13 14  2  0
 14 15  1  0
 15 16  1  0
 16 17  1  0
 17 18  1  0
 18 19  1  0
 19 20  1  0
 12 21  1  0
 21 22  1  0
 22 23  1  0
 23 24  1  0
 24 25  1  0
 25 26  1  0
 26 27  2  0
 26 28  1  0
 28 29  1  0
 29 30  2  0
 22 31  1  0
 31 32  2  0
  5 33  1  0
 33 34  2  0
 34  3  1  0
 14  9  1  0
 20 15  1  0
 29 23  1  0
 31 11  1  0
  1 35  1  0
  1 36  1  0
  1 37  1  0
  2 38  1  0
  2 39  1  0
  4 40  1  0
 10 41  1  0
 13 42  1  0
 15 43  1  0
 16 44  1  0
 16 45  1  0
 17 46  1  0
 17 47  1  0
 18 48  1  0
 19 49  1  0
 19 50  1  0
 20 51  1  0
 20 52  1  0
 21 53  1  0
 21 54  1  0
 23 55  1  1
 24 56  1  0
 24 57  1  0
 25 58  1  0
 25 59  1  0
 28 60  1  0
 33 61  1  0
M  END
>  <meeko>  (182) 
{"is_sidechain": [true], "free_energy": -11.14, "intermolecular_energy": 0.0, "internal_energy": -11.14, "cluster_size": 11, "cluster_id": 1, "rank_in_cluster": 1}

>  <_RMSD_MCS_to_ref>  (182) 
0.9820637001290244

$$$$
ligand
     RDKit          3D

 51 54  0  0  0  0  0  0  0  0999 V2000
   18.7970   18.8170    7.7190 C   0  0  0  0  0  0  0  0  0  0  0  0
   18.5280   17.3290    7.8810 C   0  0  0  0  0  0  0  0  0  0  0  0
   19.7130   16.5020    7.5280 C   0  0  0  0  0  0  0  0  0  0  0  0
   20.8210   16.1990    8.2950 C   0  0  0  0  0  0  0  0  0  0  0  0
   21.5750   15.3940    7.4890 N   0  0  0  0  0  0  0  0  0  0  0  0
   23.1420   14.8750    7.8060 S   0  0  0  0  0  6  0  0  0  0  0  0
   23.1820   13.4770    7.4200 O   0  0  0  0  0  0  0  0  0  0  0  0
   24.0150   15.8690    7.2110 O   0  0  0  0  0  0  0  0  0  0  0  0
   23.2680   14.9840    9.5680 C   0  0  0  0  0  0  0  0  0  0  0  0
   24.3710   15.6090   10.1410 C   0  0  0  0  0  0  0  0  0  0  0  0
   24.4630   15.6920   11.5310 C   0  0  0  0  0  0  0  0  0  0  0  0
   23.4620   15.1570   12.3810 C   0  0  0  0  0  0  0  0  0  0  0  0
   23.4970   15.2120   13.8010 C   0  0  0  0  0  0  0  0  0  0  0  0
   24.6430   15.8190   14.5320 C   0  0  0  0  0  0  0  0  0  0  0  0
   25.5440   15.1320   14.9950 O   0  0  0  0  0  0  0  0  0  0  0  0
   24.6140   17.1940   14.6310 N   0  0  0  0  0  0  0  0  0  0  0  0
   25.7410   17.9350   15.1770 C   0  0  2  0  0  0  0  0  0  0  0  0
   25.8040   17.8540   16.6990 C   0  0  0  0  0  0  0  0  0  0  0  0
   26.9780   18.6790   17.2030 C   0  0  0  0  0  0  0  0  0  0  0  0
   26.8940   20.1070   16.7180 C   0  0  0  0  0  0  0  0  0  0  0  0
   27.2860   21.0560   17.3900 O   0  0  0  0  0  0  0  0  0  0  0  0
   26.3790   20.2990   15.4610 N   0  0  0  0  0  0  0  0  0  0  0  0
   25.6080   19.4040   14.7620 C   0  0  0  0  0  0  0  0  0  0  0  0
   24.8690   19.7740   13.8500 O   0  0  0  0  0  0  0  0  0  0  0  0
   22.4550   14.6720   14.5730 C   0  0  0  0  0  0  0  0  0  0  0  0
   21.3620   14.0800   13.9540 C   0  0  0  0  0  0  0  0  0  0  0  0
   21.3040   14.0190   12.5620 C   0  0  0  0  0  0  0  0  0  0  0  0
   22.3360   14.5460   11.7690 C   0  0  0  0  0  0  0  0  0  0  0  0
   22.2490   14.4670   10.3700 C   0  0  0  0  0  0  0  0  0  0  0  0
   20.9620   15.2700    6.2840 C   0  0  0  0  0  0  0  0  0  0  0  0
   19.8190   15.9220    6.2780 N   0  0  0  0  0  0  0  0  0  0  0  0
   18.8815   19.2845    8.7111 H   0  0  0  0  0  0  0  0  0  0  0  0
   19.7359   18.9616    7.1643 H   0  0  0  0  0  0  0  0  0  0  0  0
   17.9682   19.2812    7.1643 H   0  0  0  0  0  0  0  0  0  0  0  0
   18.2565   17.1301    8.9282 H   0  0  0  0  0  0  0  0  0  0  0  0
   17.7106   17.0572    7.1969 H   0  0  0  0  0  0  0  0  0  0  0  0
   21.0449   16.5300    9.3198 H   0  0  0  0  0  0  0  0  0  0  0  0
   25.1621   16.0332    9.5052 H   0  0  0  0  0  0  0  0  0  0  0  0
   25.3369   16.1865   11.9801 H   0  0  0  0  0  0  0  0  0  0  0  0
   23.7790   17.7061   14.3125 H   0  0  0  0  0  0  0  0  0  0  0  0
   26.6649   17.4884   14.7808 H   0  0  0  0  0  0  0  0  0  0  0  0
   24.8696   18.2471   17.1260 H   0  0  0  0  0  0  0  0  0  0  0  0
   25.9347   16.8055   17.0050 H   0  0  0  0  0  0  0  0  0  0  0  0
   26.9738   18.6734   18.3030 H   0  0  0  0  0  0  0  0  0  0  0  0
   27.9064   18.2347   16.8149 H   0  0  0  0  0  0  0  0  0  0  0  0
   26.5899   21.1957   15.0002 H   0  0  0  0  0  0  0  0  0  0  0  0
   22.5050   14.7182   15.6709 H   0  0  0  0  0  0  0  0  0  0  0  0
   20.5449   13.6607   14.5594 H   0  0  0  0  0  0  0  0  0  0  0  0
   20.4351   13.5501   12.0771 H   0  0  0  0  0  0  0  0  0  0  0  0
   21.3723   13.9947    9.9028 H   0  0  0  0  0  0  0  0  0  0  0  0
   21.3647   14.7034    5.4315 H   0  0  0  0  0  0  0  0  0  0  0  0
  1  2  1  0
  2  3  1  0
  3  4  2  0
  4  5  1  0
  5  6  1  0
  6  7  2  0
  6  8  2  0
  6  9  1  0
  9 10  2  0
 10 11  1  0
 11 12  2  0
 12 13  1  0
 13 14  1  0
 14 15  2  0
 14 16  1  0
 16 17  1  0
 17 18  1  0
 18 19  1  0
 19 20  1  0
 20 21  2  0
 20 22  1  0
 22 23  1  0
 23 24  2  0
 13 25  2  0
 25 26  1  0
 26 27  2  0
 27 28  1  0
 28 29  2  0
  5 30  1  0
 30 31  2  0
 31  3  1  0
 29  9  1  0
 28 12  1  0
 23 17  1  0
  1 32  1  0
  1 33  1  0
  1 34  1  0
  2 35  1  0
  2 36  1  0
  4 37  1  0
 10 38  1  0
 11 39  1  0
 16 40  1  0
 17 41  1  6
 18 42  1  0
 18 43  1  0
 19 44  1  0
 19 45  1  0
 22 46  1  0
 25 47  1  0
 26 48  1  0
 27 49  1  0
 29 50  1  0
 30 51  1  0
M  END
>  <meeko>  (183) 
{"is_sidechain": [true], "free_energy": -11.14, "intermolecular_energy": 0.0, "internal_energy": -11.14, "cluster_size": 19, "cluster_id": 1, "rank_in_cluster": 1}

>  <_RMSD_MCS_to_ref>  (183) 
0.5762164909514867

$$$$
ligand
     RDKit          3D

 51 54  0  0  0  0  0  0  0  0999 V2000
   18.9090   19.1540    7.5370 C   0  0  0  0  0  0  0  0  0  0  0  0
   18.7730   17.6460    7.6780 C   0  0  0  0  0  0  0  0  0  0  0  0
   20.0890   16.9540    7.6060 C   0  0  0  0  0  0  0  0  0  0  0  0
   20.9920   16.6980    8.6180 C   0  0  0  0  0  0  0  0  0  0  0  0
   22.0070   16.0270    7.9990 N   0  0  0  0  0  0  0  0  0  0  0  0
   23.4950   15.6380    8.6790 S   0  0  0  0  0  6  0  0  0  0  0  0
   24.3160   16.8220    8.5090 O   0  0  0  0  0  0  0  0  0  0  0  0
   23.8640   14.3480    8.1320 O   0  0  0  0  0  0  0  0  0  0  0  0
   23.1380   15.4380   10.4010 C   0  0  0  0  0  0  0  0  0  0  0  0
   21.9840   14.7450   10.7800 C   0  0  0  0  0  0  0  0  0  0  0  0
   21.7130   14.6300   12.1290 C   0  0  0  0  0  0  0  0  0  0  0  0
   22.5910   15.1350   13.0910 C   0  0  0  0  0  0  0  0  0  0  0  0
   23.7650   15.7860   12.7270 C   0  0  0  0  0  0  0  0  0  0  0  0
   24.7030   16.3030   13.7580 C   0  0  0  0  0  0  0  0  0  0  0  0
   25.2800   15.5420   14.5240 O   0  0  0  0  0  0  0  0  0  0  0  0
   24.8870   17.6680   13.7730 N   0  0  0  0  0  0  0  0  0  0  0  0
   25.8940   18.2770   14.6320 C   0  0  2  0  0  0  0  0  0  0  0  0
   25.6520   17.9750   16.1070 C   0  0  0  0  0  0  0  0  0  0  0  0
   26.7130   18.6700   16.9470 C   0  0  0  0  0  0  0  0  0  0  0  0
   26.7420   20.1560   16.6760 C   0  0  0  0  0  0  0  0  0  0  0  0
   27.0190   20.9790   17.5430 O   0  0  0  0  0  0  0  0  0  0  0  0
   26.4730   20.5510   15.3900 N   0  0  0  0  0  0  0  0  0  0  0  0
   25.8610   19.7950   14.4210 C   0  0  0  0  0  0  0  0  0  0  0  0
   25.3360   20.3180   13.4390 O   0  0  0  0  0  0  0  0  0  0  0  0
   24.0310   15.9540   11.3600 C   0  0  0  0  0  0  0  0  0  0  0  0
   22.0730   14.7760   14.4460 C   0  0  0  0  0  0  0  0  0  0  0  0
   20.6440   14.3250   14.0960 C   0  0  0  0  0  0  0  0  0  0  0  0
   20.6380   13.9020   12.6860 N   0  0  0  0  0  0  0  0  0  0  0  0
   21.7350   15.9320    6.6730 C   0  0  0  0  0  0  0  0  0  0  0  0
   20.5690   16.4810    6.4010 N   0  0  0  0  0  0  0  0  0  0  0  0
   18.9504   19.6134    8.5356 H   0  0  0  0  0  0  0  0  0  0  0  0
   19.8320   19.3891    6.9867 H   0  0  0  0  0  0  0  0  0  0  0  0
   18.0430   19.5504    6.9867 H   0  0  0  0  0  0  0  0  0  0  0  0
   18.3073   17.4215    8.6489 H   0  0  0  0  0  0  0  0  0  0  0  0
   18.1543   17.2831    6.8440 H   0  0  0  0  0  0  0  0  0  0  0  0
   20.9121   16.9720    9.6803 H   0  0  0  0  0  0  0  0  0  0  0  0
   21.3133   14.3053   10.0271 H   0  0  0  0  0  0  0  0  0  0  0  0
   24.3051   18.2660   13.1691 H   0  0  0  0  0  0  0  0  0  0  0  0
   26.8738   17.8562   14.3621 H   0  0  0  0  0  0  0  0  0  0  0  0
   24.6562   18.3409   16.3977 H   0  0  0  0  0  0  0  0  0  0  0  0
   25.7060   16.8889   16.2728 H   0  0  0  0  0  0  0  0  0  0  0  0
   26.4922   18.5043   18.0118 H   0  0  0  0  0  0  0  0  0  0  0  0
   27.6947   18.2499   16.6829 H   0  0  0  0  0  0  0  0  0  0  0  0
   26.7571   21.5053   15.1264 H   0  0  0  0  0  0  0  0  0  0  0  0
   24.9366   16.4885   11.0372 H   0  0  0  0  0  0  0  0  0  0  0  0
   22.6556   13.9605   14.8995 H   0  0  0  0  0  0  0  0  0  0  0  0
   22.1266   15.5890   15.1850 H   0  0  0  0  0  0  0  0  0  0  0  0
   20.3488   13.4837   14.7403 H   0  0  0  0  0  0  0  0  0  0  0  0
   19.9320   15.1486   14.2530 H   0  0  0  0  0  0  0  0  0  0  0  0
   20.0045   13.2373   12.2193 H   0  0  0  0  0  0  0  0  0  0  0  0
   22.3957   15.4623    5.9294 H   0  0  0  0  0  0  0  0  0  0  0  0
  1  2  1  0
  2  3  1  0
  3  4  2  0
  4  5  1  0
  5  6  1  0
  6  7  2  0
  6  8  2  0
  6  9  1  0
  9 10  2  0
 10 11  1  0
 11 12  2  0
 12 13  1  0
 13 14  1  0
 14 15  2  0
 14 16  1  0
 16 17  1  0
 17 18  1  0
 18 19  1  0
 19 20  1  0
 20 21  2  0
 20 22  1  0
 22 23  1  0
 23 24  2  0
 13 25  2  0
 12 26  1  0
 26 27  1  0
 27 28  1  0
  5 29  1  0
 29 30  2  0
 30  3  1  0
 25  9  1  0
 28 11  1  0
 23 17  1  0
  1 31  1  0
  1 32  1  0
  1 33  1  0
  2 34  1  0
  2 35  1  0
  4 36  1  0
 10 37  1  0
 16 38  1  0
 17 39  1  6
 18 40  1  0
 18 41  1  0
 19 42  1  0
 19 43  1  0
 22 44  1  0
 25 45  1  0
 26 46  1  0
 26 47  1  0
 27 48  1  0
 27 49  1  0
 28 50  1  0
 29 51  1  0
M  END
>  <meeko>  (184) 
{"is_sidechain": [true], "free_energy": -11.14, "intermolecular_energy": 0.0, "internal_energy": -11.14, "cluster_size": 20, "cluster_id": 1, "rank_in_cluster": 1}

>  <_RMSD_MCS_to_ref>  (184) 
0.657937877006636

$$$$
ligand
     RDKit          3D

 46 49  0  0  0  0  0  0  0  0999 V2000
   18.9090   19.1540    7.5370 C   0  0  0  0  0  0  0  0  0  0  0  0
   18.7730   17.6460    7.6780 C   0  0  0  0  0  0  0  0  0  0  0  0
   20.0880   16.9540    7.5980 C   0  0  0  0  0  0  0  0  0  0  0  0
   20.9740   16.6540    8.6140 C   0  0  0  0  0  0  0  0  0  0  0  0
   22.0060   16.0230    7.9820 N   0  0  0  0  0  0  0  0  0  0  0  0
   23.4390   15.5130    8.6880 S   0  0  0  0  0  6  0  0  0  0  0  0
   23.6340   14.1410    8.2560 O   0  0  0  0  0  0  0  0  0  0  0  0
   24.4120   16.5550    8.4180 O   0  0  0  0  0  0  0  0  0  0  0  0
   23.1570   15.4870   10.4410 C   0  0  0  0  0  0  0  0  0  0  0  0
   24.1470   16.0040   11.2760 C   0  0  0  0  0  0  0  0  0  0  0  0
   23.9240   15.9840   12.6530 C   0  0  0  0  0  0  0  0  0  0  0  0
   24.8570   16.4930   13.6850 C   0  0  0  0  0  0  0  0  0  0  0  0
   25.4360   15.6880   14.4100 O   0  0  0  0  0  0  0  0  0  0  0  0
   25.0450   17.8500   13.7640 N   0  0  0  0  0  0  0  0  0  0  0  0
   26.0410   18.4250   14.6640 C   0  0  2  0  0  0  0  0  0  0  0  0
   25.7880   18.0560   16.1210 C   0  0  0  0  0  0  0  0  0  0  0  0
   26.8310   18.7280   17.0010 C   0  0  0  0  0  0  0  0  0  0  0  0
   26.8470   20.2240   16.7920 C   0  0  0  0  0  0  0  0  0  0  0  0
   27.0920   21.0130   17.6980 O   0  0  0  0  0  0  0  0  0  0  0  0
   26.6010   20.6680   15.5180 N   0  0  0  0  0  0  0  0  0  0  0  0
   25.9930   19.9480   14.5200 C   0  0  0  0  0  0  0  0  0  0  0  0
   25.4510   20.5040   13.5640 O   0  0  0  0  0  0  0  0  0  0  0  0
   22.6980   15.4510   13.0480 C   0  0  0  0  0  0  0  0  0  0  0  0
   22.0880   15.2670   14.2570 N   0  0  0  0  0  0  0  0  0  0  0  0
   20.8810   14.6910   14.1190 N   0  0  0  0  0  0  0  0  0  0  0  0
   20.6770   14.4980   12.8180 N   0  0  0  0  0  0  0  0  0  0  0  0
   21.7710   14.9590   12.1480 C   0  0  0  0  0  0  0  0  0  0  0  0
   21.9670   14.9560   10.8110 N   0  0  0  0  0  0  0  0  0  0  0  0
   21.7560   15.9850    6.6480 C   0  0  0  0  0  0  0  0  0  0  0  0
   20.5840   16.5250    6.3830 N   0  0  0  0  0  0  0  0  0  0  0  0
   18.9504   19.6134    8.5356 H   0  0  0  0  0  0  0  0  0  0  0  0
   19.8320   19.3891    6.9867 H   0  0  0  0  0  0  0  0  0  0  0  0
   18.0430   19.5504    6.9867 H   0  0  0  0  0  0  0  0  0  0  0  0
   18.3128   17.4211    8.6515 H   0  0  0  0  0  0  0  0  0  0  0  0
   18.1492   17.2837    6.8476 H   0  0  0  0  0  0  0  0  0  0  0  0
   20.8714   16.8734    9.6870 H   0  0  0  0  0  0  0  0  0  0  0  0
   25.0782   16.4163   10.8603 H   0  0  0  0  0  0  0  0  0  0  0  0
   24.4731   18.4745   13.1777 H   0  0  0  0  0  0  0  0  0  0  0  0
   27.0269   18.0223   14.3887 H   0  0  0  0  0  0  0  0  0  0  0  0
   24.7844   18.3958   16.4167 H   0  0  0  0  0  0  0  0  0  0  0  0
   25.8547   16.9645   16.2404 H   0  0  0  0  0  0  0  0  0  0  0  0
   26.5998   18.5164   18.0554 H   0  0  0  0  0  0  0  0  0  0  0  0
   27.8203   18.3300   16.7309 H   0  0  0  0  0  0  0  0  0  0  0  0
   26.8990   21.6272   15.2897 H   0  0  0  0  0  0  0  0  0  0  0  0
   22.5014   15.5361   15.1612 H   0  0  0  0  0  0  0  0  0  0  0  0
   22.4367   15.5625    5.8942 H   0  0  0  0  0  0  0  0  0  0  0  0
  1  2  1  0
  2  3  1  0
  3  4  2  0
  4  5  1  0
  5  6  1  0
  6  7  2  0
  6  8  2  0
  6  9  1  0
  9 10  2  0
 10 11  1  0
 11 12  1  0
 12 13  2  0
 12 14  1  0
 14 15  1  0
 15 16  1  0
 16 17  1  0
 17 18  1  0
 18 19  2  0
 18 20  1  0
 20 21  1  0
 21 22  2  0
 11 23  2  0
 23 24  1  0
 24 25  1  0
 25 26  2  0
 26 27  1  0
 27 28  2  0
  5 29  1  0
 29 30  2  0
 30  3  1  0
 28  9  1  0
 21 15  1  0
 27 23  1  0
  1 31  1  0
  1 32  1  0
  1 33  1  0
  2 34  1  0
  2 35  1  0
  4 36  1  0
 10 37  1  0
 14 38  1  0
 15 39  1  6
 16 40  1  0
 16 41  1  0
 17 42  1  0
 17 43  1  0
 20 44  1  0
 24 45  1  0
 29 46  1  0
M  END
>  <meeko>  (185) 
{"is_sidechain": [true], "free_energy": -11.14, "intermolecular_energy": 0.0, "internal_energy": -11.14, "cluster_size": 20, "cluster_id": 1, "rank_in_cluster": 1}

>  <_RMSD_MCS_to_ref>  (185) 
0.7623842717277018

$$$$
ligand
     RDKit          3D

 50 53  0  0  0  0  0  0  0  0999 V2000
   18.9090   19.1540    7.5370 C   0  0  0  0  0  0  0  0  0  0  0  0
   18.7730   17.6460    7.6780 C   0  0  0  0  0  0  0  0  0  0  0  0
   20.0900   16.9560    7.6260 C   0  0  0  0  0  0  0  0  0  0  0  0
   21.0350   16.8140    8.6220 C   0  0  0  0  0  0  0  0  0  0  0  0
   22.0320   16.0880    8.0360 N   0  0  0  0  0  0  0  0  0  0  0  0
   23.5060   15.6840    8.7290 S   0  0  0  0  0  6  0  0  0  0  0  0
   23.8350   14.3640    8.2200 O   0  0  0  0  0  0  0  0  0  0  0  0
   24.3730   16.8290    8.5210 O   0  0  0  0  0  0  0  0  0  0  0  0
   23.2050   15.5360   10.4680 C   0  0  0  0  0  0  0  0  0  0  0  0
   24.1520   16.0240   11.3640 C   0  0  0  0  0  0  0  0  0  0  0  0
   23.8740   15.8990   12.7250 C   0  0  0  0  0  0  0  0  0  0  0  0
   24.8160   16.4050   13.7550 C   0  0  0  0  0  0  0  0  0  0  0  0
   25.4180   15.6300   14.4880 O   0  0  0  0  0  0  0  0  0  0  0  0
   24.9770   17.7700   13.8110 N   0  0  0  0  0  0  0  0  0  0  0  0
   25.9820   18.3710   14.6800 C   0  0  2  0  0  0  0  0  0  0  0  0
   25.7630   18.0190   16.1470 C   0  0  0  0  0  0  0  0  0  0  0  0
   26.8190   18.7090   16.9970 C   0  0  0  0  0  0  0  0  0  0  0  0
   26.8150   20.2020   16.7710 C   0  0  0  0  0  0  0  0  0  0  0  0
   27.0830   21.0040   17.6610 O   0  0  0  0  0  0  0  0  0  0  0  0
   26.5290   20.6310   15.5000 N   0  0  0  0  0  0  0  0  0  0  0  0
   25.9180   19.8920   14.5170 C   0  0  0  0  0  0  0  0  0  0  0  0
   25.3670   20.4330   13.5600 O   0  0  0  0  0  0  0  0  0  0  0  0
   22.6710   15.3140   13.0900 C   0  0  0  0  0  0  0  0  0  0  0  0
   21.8160   14.8300   12.1080 C   0  0  0  0  0  0  0  0  0  0  0  0
   22.0370   14.9350   10.7980 N   0  0  0  0  0  0  0  0  0  0  0  0
   20.6910   14.1750   12.6530 N   0  0  0  0  0  0  0  0  0  0  0  0
   20.6130   14.7190   14.0050 C   0  0  0  0  0  0  0  0  0  0  0  0
   22.0590   15.0550   14.4270 C   0  0  0  0  0  0  0  0  0  0  0  0
   21.7060   15.8500    6.7390 C   0  0  0  0  0  0  0  0  0  0  0  0
   20.5190   16.3490    6.4610 N   0  0  0  0  0  0  0  0  0  0  0  0
   18.9504   19.6134    8.5356 H   0  0  0  0  0  0  0  0  0  0  0  0
   19.8320   19.3891    6.9867 H   0  0  0  0  0  0  0  0  0  0  0  0
   18.0430   19.5504    6.9867 H   0  0  0  0  0  0  0  0  0  0  0  0
   18.2936   17.4221    8.6424 H   0  0  0  0  0  0  0  0  0  0  0  0
   18.1670   17.2812    6.8356 H   0  0  0  0  0  0  0  0  0  0  0  0
   20.9943   17.1978    9.6521 H   0  0  0  0  0  0  0  0  0  0  0  0
   25.0840   16.4904   11.0121 H   0  0  0  0  0  0  0  0  0  0  0  0
   24.3793   18.3760   13.2310 H   0  0  0  0  0  0  0  0  0  0  0  0
   26.9663   17.9767   14.3875 H   0  0  0  0  0  0  0  0  0  0  0  0
   24.7634   18.3554   16.4595 H   0  0  0  0  0  0  0  0  0  0  0  0
   25.8409   16.9296   16.2783 H   0  0  0  0  0  0  0  0  0  0  0  0
   26.6131   18.5066   18.0584 H   0  0  0  0  0  0  0  0  0  0  0  0
   27.8061   18.3169   16.7106 H   0  0  0  0  0  0  0  0  0  0  0  0
   26.7972   21.5963   15.2608 H   0  0  0  0  0  0  0  0  0  0  0  0
   20.0748   13.4816   12.2054 H   0  0  0  0  0  0  0  0  0  0  0  0
   19.9938   15.6281   14.0136 H   0  0  0  0  0  0  0  0  0  0  0  0
   20.1541   13.9982   14.6977 H   0  0  0  0  0  0  0  0  0  0  0  0
   22.0987   15.9448   15.0725 H   0  0  0  0  0  0  0  0  0  0  0  0
   22.5594   14.2756   15.0203 H   0  0  0  0  0  0  0  0  0  0  0  0
   22.3445   15.3149    6.0206 H   0  0  0  0  0  0  0  0  0  0  0  0
  1  2  1  0
  2  3  1  0
  3  4  2  0
  4  5  1  0
  5  6  1  0
  6  7  2  0
  6  8  2  0
  6  9  1  0
  9 10  2  0
 10 11  1  0
 11 12  1  0
 12 13  2  0
 12 14  1  0
 14 15  1  0
 15 16  1  0
 16 17  1  0
 17 18  1  0
 18 19  2  0
 18 20  1  0
 20 21  1  0
 21 22  2  0
 11 23  2  0
 23 24  1  0
 24 25  2  0
 24 26  1  0
 26 27  1  0
 27 28  1  0
  5 29  1  0
 29 30  2  0
 30  3  1  0
 25  9  1  0
 21 15  1  0
 28 23  1  0
  1 31  1  0
  1 32  1  0
  1 33  1  0
  2 34  1  0
  2 35  1  0
  4 36  1  0
 10 37  1  0
 14 38  1  0
 15 39  1  6
 16 40  1  0
 16 41  1  0
 17 42  1  0
 17 43  1  0
 20 44  1  0
 26 45  1  0
 27 46  1  0
 27 47  1  0
 28 48  1  0
 28 49  1  0
 29 50  1  0
M  END
>  <meeko>  (186) 
{"is_sidechain": [true], "free_energy": -11.14, "intermolecular_energy": 0.0, "internal_energy": -11.14, "cluster_size": 20, "cluster_id": 1, "rank_in_cluster": 1}

>  <_RMSD_MCS_to_ref>  (186) 
0.7079010445598232

$$$$
ligand
     RDKit          3D

 49 52  0  0  0  0  0  0  0  0999 V2000
   18.9090   19.1540    7.5370 C   0  0  0  0  0  0  0  0  0  0  0  0
   18.7730   17.6460    7.6780 C   0  0  0  0  0  0  0  0  0  0  0  0
   20.0460   16.9360    7.3790 C   0  0  0  0  0  0  0  0  0  0  0  0
   20.6690   15.9310    8.0920 C   0  0  0  0  0  0  0  0  0  0  0  0
   21.8100   15.6760    7.3860 N   0  0  0  0  0  0  0  0  0  0  0  0
   22.8560   14.3790    7.6380 S   0  0  0  0  0  6  0  0  0  0  0  0
   22.8990   13.6860    6.3640 O   0  0  0  0  0  0  0  0  0  0  0  0
   22.3570   13.7300    8.8370 O   0  0  0  0  0  0  0  0  0  0  0  0
   24.3150   15.0330    7.9460 O   0  0  0  0  0  0  0  0  0  0  0  0
   24.6040   15.6810    9.1200 C   0  0  0  0  0  0  0  0  0  0  0  0
   25.8080   16.3950    9.1170 C   0  0  0  0  0  0  0  0  0  0  0  0
   26.2220   17.0930   10.2520 C   0  0  0  0  0  0  0  0  0  0  0  0
   25.4240   17.0870   11.3990 C   0  0  0  0  0  0  0  0  0  0  0  0
   24.2120   16.3830   11.4110 C   0  0  0  0  0  0  0  0  0  0  0  0
   23.8100   15.6710   10.2690 C   0  0  0  0  0  0  0  0  0  0  0  0
   23.4000   16.3570   12.6760 C   0  0  0  0  0  0  0  0  0  0  0  0
   23.5520   17.6070   13.4250 N   0  0  0  0  0  0  0  0  0  0  0  0
   24.9270   17.9190   13.6560 N   0  0  0  0  0  0  0  0  0  0  0  0
   25.2390   18.6530   14.8880 C   0  0  1  0  0  0  0  0  0  0  0  0
   26.3220   17.9890   15.7390 C   0  0  0  0  0  0  0  0  0  0  0  0
   26.5450   18.8090   16.9990 C   0  0  0  0  0  0  0  0  0  0  0  0
   26.9040   20.2390   16.6690 C   0  0  0  0  0  0  0  0  0  0  0  0
   27.5420   20.9480   17.4420 O   0  0  0  0  0  0  0  0  0  0  0  0
   26.4100   20.7410   15.4910 N   0  0  0  0  0  0  0  0  0  0  0  0
   25.5990   20.1120   14.5730 C   0  0  0  0  0  0  0  0  0  0  0  0
   25.1310   20.7440   13.6260 O   0  0  0  0  0  0  0  0  0  0  0  0
   25.8650   17.8140   12.6200 C   0  0  0  0  0  0  0  0  0  0  0  0
   27.0020   18.2750   12.6800 O   0  0  0  0  0  0  0  0  0  0  0  0
   21.8150   16.4370    6.2610 C   0  0  0  0  0  0  0  0  0  0  0  0
   20.7680   17.2350    6.2400 N   0  0  0  0  0  0  0  0  0  0  0  0
   18.9504   19.6134    8.5356 H   0  0  0  0  0  0  0  0  0  0  0  0
   19.8320   19.3891    6.9867 H   0  0  0  0  0  0  0  0  0  0  0  0
   18.0430   19.5504    6.9867 H   0  0  0  0  0  0  0  0  0  0  0  0
   18.4712   17.4126    8.7097 H   0  0  0  0  0  0  0  0  0  0  0  0
   18.0186   17.3059    6.9532 H   0  0  0  0  0  0  0  0  0  0  0  0
   20.3248   15.4463    9.0175 H   0  0  0  0  0  0  0  0  0  0  0  0
   26.4332   16.4059    8.2120 H   0  0  0  0  0  0  0  0  0  0  0  0
   27.1729   17.6459   10.2439 H   0  0  0  0  0  0  0  0  0  0  0  0
   22.8674   15.1041   10.2796 H   0  0  0  0  0  0  0  0  0  0  0  0
   22.3393   16.2184   12.4195 H   0  0  0  0  0  0  0  0  0  0  0  0
   23.7571   15.5274   13.3039 H   0  0  0  0  0  0  0  0  0  0  0  0
   23.1213   18.3729   12.8876 H   0  0  0  0  0  0  0  0  0  0  0  0
   24.3246   18.6332   15.4992 H   0  0  0  0  0  0  0  0  0  0  0  0
   26.0018   16.9731   16.0138 H   0  0  0  0  0  0  0  0  0  0  0  0
   27.2588   17.9337   15.1651 H   0  0  0  0  0  0  0  0  0  0  0  0
   25.6233   18.8007   17.5994 H   0  0  0  0  0  0  0  0  0  0  0  0
   27.3797   18.3628   17.5596 H   0  0  0  0  0  0  0  0  0  0  0  0
   26.6796   21.7092   15.2655 H   0  0  0  0  0  0  0  0  0  0  0  0
   22.5857   16.3928    5.4774 H   0  0  0  0  0  0  0  0  0  0  0  0
  1  2  1  0
  2  3  1  0
  3  4  2  0
  4  5  1  0
  5  6  1  0
  6  7  2  0
  6  8  2  0
  6  9  1  0
  9 10  1  0
 10 11  2  0
 11 12  1  0
 12 13  2  0
 13 14  1  0
 14 15  2  0
 14 16  1  0
 16 17  1  0
 17 18  1  0
 18 19  1  0
 19 20  1  0
 20 21  1  0
 21 22  1  0
 22 23  2  0
 22 24  1  0
 24 25  1  0
 25 26  2  0
 18 27  1  0
 27 28  2  0
  5 29  1  0
 29 30  2  0
 30  3  1  0
 15 10  1  0
 25 19  1  0
 27 13  1  0
  1 31  1  0
  1 32  1  0
  1 33  1  0
  2 34  1  0
  2 35  1  0
  4 36  1  0
 11 37  1  0
 12 38  1  0
 15 39  1  0
 16 40  1  0
 16 41  1  0
 17 42  1  0
 19 43  1  1
 20 44  1  0
 20 45  1  0
 21 46  1  0
 21 47  1  0
 24 48  1  0
 29 49  1  0
M  END
>  <meeko>  (187) 
{"is_sidechain": [true], "free_energy": -11.14, "intermolecular_energy": 0.0, "internal_energy": -11.14, "cluster_size": 20, "cluster_id": 1, "rank_in_cluster": 1}

>  <_RMSD_MCS_to_ref>  (187) 
0.5348863846130734

$$$$
ligand
     RDKit          3D

 51 54  0  0  0  0  0  0  0  0999 V2000
   18.9090   19.1540    7.5370 C   0  0  0  0  0  0  0  0  0  0  0  0
   18.7730   17.6460    7.6780 C   0  0  0  0  0  0  0  0  0  0  0  0
   20.0880   16.9530    7.6010 C   0  0  0  0  0  0  0  0  0  0  0  0
   21.0100   16.7270    8.6030 C   0  0  0  0  0  0  0  0  0  0  0  0
   22.0120   16.0360    7.9870 N   0  0  0  0  0  0  0  0  0  0  0  0
   23.5100   15.6670    8.6520 S   0  0  0  0  0  6  0  0  0  0  0  0
   23.8560   14.3480    8.1600 O   0  0  0  0  0  0  0  0  0  0  0  0
   24.3450   16.8280    8.4120 O   0  0  0  0  0  0  0  0  0  0  0  0
   23.1820   15.5500   10.3880 C   0  0  0  0  0  0  0  0  0  0  0  0
   23.9450   16.2970   11.2790 C   0  0  0  0  0  0  0  0  0  0  0  0
   23.6770   16.2120   12.6530 C   0  0  0  0  0  0  0  0  0  0  0  0
   24.5220   17.0710   13.5170 C   0  0  0  0  0  0  0  0  0  0  0  0
   25.7390   17.0630   13.3850 O   0  0  0  0  0  0  0  0  0  0  0  0
   23.8490   17.8890   14.3910 N   0  0  0  0  0  0  0  0  0  0  0  0
   24.5550   18.7320   15.3430 C   0  0  1  0  0  0  0  0  0  0  0  0
   25.6160   17.9550   16.1160 C   0  0  0  0  0  0  0  0  0  0  0  0
   26.3340   18.8950   17.0730 C   0  0  0  0  0  0  0  0  0  0  0  0
   26.9210   20.0800   16.3420 C   0  0  0  0  0  0  0  0  0  0  0  0
   27.9710   20.6140   16.6870 O   0  0  0  0  0  0  0  0  0  0  0  0
   26.2040   20.5600   15.2750 N   0  0  0  0  0  0  0  0  0  0  0  0
   25.2260   19.8840   14.5890 C   0  0  0  0  0  0  0  0  0  0  0  0
   24.9130   20.2050   13.4430 O   0  0  0  0  0  0  0  0  0  0  0  0
   22.6630   15.3550   13.1590 C   0  0  0  0  0  0  0  0  0  0  0  0
   22.3870   15.1580   14.5350 C   0  0  0  0  0  0  0  0  0  0  0  0
   21.3620   14.3130   14.9630 C   0  0  0  0  0  0  0  0  0  0  0  0
   20.5930   13.6310   14.0320 C   0  0  0  0  0  0  0  0  0  0  0  0
   20.8540   13.7830   12.6720 C   0  0  0  0  0  0  0  0  0  0  0  0
   21.8840   14.6260   12.2230 C   0  0  0  0  0  0  0  0  0  0  0  0
   22.1440   14.7370   10.8480 C   0  0  0  0  0  0  0  0  0  0  0  0
   21.7160   15.9050    6.6680 C   0  0  0  0  0  0  0  0  0  0  0  0
   20.5440   16.4400    6.4030 N   0  0  0  0  0  0  0  0  0  0  0  0
   18.9504   19.6134    8.5356 H   0  0  0  0  0  0  0  0  0  0  0  0
   19.8320   19.3891    6.9867 H   0  0  0  0  0  0  0  0  0  0  0  0
   18.0430   19.5504    6.9867 H   0  0  0  0  0  0  0  0  0  0  0  0
   18.3107   17.4215    8.6506 H   0  0  0  0  0  0  0  0  0  0  0  0
   18.1513   17.2838    6.8459 H   0  0  0  0  0  0  0  0  0  0  0  0
   20.9504   17.0340    9.6576 H   0  0  0  0  0  0  0  0  0  0  0  0
   24.7509   16.9482   10.9097 H   0  0  0  0  0  0  0  0  0  0  0  0
   22.8193   17.9059   14.3719 H   0  0  0  0  0  0  0  0  0  0  0  0
   23.8209   19.1135   16.0679 H   0  0  0  0  0  0  0  0  0  0  0  0
   25.1357   17.1467   16.6869 H   0  0  0  0  0  0  0  0  0  0  0  0
   26.3419   17.5237   15.4110 H   0  0  0  0  0  0  0  0  0  0  0  0
   25.6172   19.2570   17.8248 H   0  0  0  0  0  0  0  0  0  0  0  0
   27.1549   18.3416   17.5525 H   0  0  0  0  0  0  0  0  0  0  0  0
   26.4198   21.5165   14.9595 H   0  0  0  0  0  0  0  0  0  0  0  0
   22.9960   15.6844   15.2847 H   0  0  0  0  0  0  0  0  0  0  0  0
   21.1643   14.1881   16.0378 H   0  0  0  0  0  0  0  0  0  0  0  0
   19.7787   12.9715   14.3667 H   0  0  0  0  0  0  0  0  0  0  0  0
   20.2443   13.2346   11.9388 H   0  0  0  0  0  0  0  0  0  0  0  0
   21.5261   14.1800   10.1283 H   0  0  0  0  0  0  0  0  0  0  0  0
   22.3657   15.4193    5.9251 H   0  0  0  0  0  0  0  0  0  0  0  0
  1  2  1  0
  2  3  1  0
  3  4  2  0
  4  5  1  0
  5  6  1  0
  6  7  2  0
  6  8  2  0
  6  9  1  0
  9 10  2  0
 10 11  1  0
 11 12  1  0
 12 13  2  0
 12 14  1  0
 14 15  1  0
 15 16  1  0
 16 17  1  0
 17 18  1  0
 18 19  2  0
 18 20  1  0
 20 21  1  0
 21 22  2  0
 11 23  2  0
 23 24  1  0
 24 25  2  0
 25 26  1  0
 26 27  2  0
 27 28  1  0
 28 29  2  0
  5 30  1  0
 30 31  2  0
 31  3  1  0
 29  9  1  0
 21 15  1  0
 28 23  1  0
  1 32  1  0
  1 33  1  0
  1 34  1  0
  2 35  1  0
  2 36  1  0
  4 37  1  0
 10 38  1  0
 14 39  1  0
 15 40  1  1
 16 41  1  0
 16 42  1  0
 17 43  1  0
 17 44  1  0
 20 45  1  0
 24 46  1  0
 25 47  1  0
 26 48  1  0
 27 49  1  0
 29 50  1  0
 30 51  1  0
M  END
>  <meeko>  (188) 
{"is_sidechain": [true], "free_energy": -11.14, "intermolecular_energy": 0.0, "internal_energy": -11.14, "cluster_size": 20, "cluster_id": 1, "rank_in_cluster": 1}

>  <_RMSD_MCS_to_ref>  (188) 
0.629931830527011

$$$$
ligand
     RDKit          3D

 51 54  0  0  0  0  0  0  0  0999 V2000
   18.9090   19.1540    7.5370 C   0  0  0  0  0  0  0  0  0  0  0  0
   18.7730   17.6460    7.6780 C   0  0  0  0  0  0  0  0  0  0  0  0
   20.0920   16.9570    7.6340 C   0  0  0  0  0  0  0  0  0  0  0  0
   21.0520   16.8580    8.6200 C   0  0  0  0  0  0  0  0  0  0  0  0
   22.0520   16.1290    8.0420 N   0  0  0  0  0  0  0  0  0  0  0  0
   23.3580   15.4450    8.8510 S   0  0  0  0  0  6  0  0  0  0  0  0
   23.5420   14.1340    8.2620 O   0  0  0  0  0  0  0  0  0  0  0  0
   24.3990   16.4550    8.8600 O   0  0  0  0  0  0  0  0  0  0  0  0
   22.7590   15.2580   10.5090 C   0  0  0  0  0  0  0  0  0  0  0  0
   21.6190   14.4910   10.7520 C   0  0  0  0  0  0  0  0  0  0  0  0
   21.1570   14.3450   12.0600 C   0  0  0  0  0  0  0  0  0  0  0  0
   21.8340   14.9520   13.1260 C   0  0  0  0  0  0  0  0  0  0  0  0
   22.9810   15.7320   12.8770 C   0  0  0  0  0  0  0  0  0  0  0  0
   23.7020   16.4040   14.0010 C   0  0  0  0  0  0  0  0  0  0  0  0
   23.9560   15.7920   15.0320 O   0  0  0  0  0  0  0  0  0  0  0  0
   24.0140   17.7340   13.8290 N   0  0  0  0  0  0  0  0  0  0  0  0
   24.5740   18.5260   14.9190 C   0  0  1  0  0  0  0  0  0  0  0  0
   25.7090   17.8090   15.6400 C   0  0  0  0  0  0  0  0  0  0  0  0
   26.2760   18.7160   16.7210 C   0  0  0  0  0  0  0  0  0  0  0  0
   26.7190   20.0420   16.1480 C   0  0  0  0  0  0  0  0  0  0  0  0
   27.6880   20.6580   16.5830 O   0  0  0  0  0  0  0  0  0  0  0  0
   25.9650   20.5520   15.1200 N   0  0  0  0  0  0  0  0  0  0  0  0
   25.1090   19.8330   14.3240 C   0  0  0  0  0  0  0  0  0  0  0  0
   24.7900   20.2280   13.2030 O   0  0  0  0  0  0  0  0  0  0  0  0
   23.4530   15.8640   11.5610 C   0  0  0  0  0  0  0  0  0  0  0  0
   21.3650   14.7460   14.4300 N   0  0  0  0  0  0  0  0  0  0  0  0
   20.2310   14.0390   14.7040 C   0  0  0  0  0  0  0  0  0  0  0  0
   19.8580   13.8310   15.8550 O   0  0  0  0  0  0  0  0  0  0  0  0
   19.4340   13.5950   13.4820 C   0  0  0  0  0  0  0  0  0  0  0  0
   20.0540   13.5500   12.2050 O   0  0  0  0  0  0  0  0  0  0  0  0
   21.6800   15.7810    6.7840 C   0  0  0  0  0  0  0  0  0  0  0  0
   20.4920   16.2750    6.5020 N   0  0  0  0  0  0  0  0  0  0  0  0
   18.9504   19.6134    8.5356 H   0  0  0  0  0  0  0  0  0  0  0  0
   19.8320   19.3891    6.9867 H   0  0  0  0  0  0  0  0  0  0  0  0
   18.0430   19.5504    6.9867 H   0  0  0  0  0  0  0  0  0  0  0  0
   18.2881   17.4222    8.6397 H   0  0  0  0  0  0  0  0  0  0  0  0
   18.1719   17.2801    6.8325 H   0  0  0  0  0  0  0  0  0  0  0  0
   21.0195   17.2716    9.6387 H   0  0  0  0  0  0  0  0  0  0  0  0
   21.0891   14.0056    9.9192 H   0  0  0  0  0  0  0  0  0  0  0  0
   23.8491   18.1779   12.9143 H   0  0  0  0  0  0  0  0  0  0  0  0
   23.7802   18.7053   15.6591 H   0  0  0  0  0  0  0  0  0  0  0  0
   25.3262   16.8858   16.0996 H   0  0  0  0  0  0  0  0  0  0  0  0
   26.5011   17.5585   14.9189 H   0  0  0  0  0  0  0  0  0  0  0  0
   25.5014   18.8950   17.4813 H   0  0  0  0  0  0  0  0  0  0  0  0
   27.1512   18.2204   17.1664 H   0  0  0  0  0  0  0  0  0  0  0  0
   26.0491   21.5608   14.9300 H   0  0  0  0  0  0  0  0  0  0  0  0
   24.3663   16.4426   11.3582 H   0  0  0  0  0  0  0  0  0  0  0  0
   21.8990   15.1453   15.2150 H   0  0  0  0  0  0  0  0  0  0  0  0
   19.0693   12.5790   13.6934 H   0  0  0  0  0  0  0  0  0  0  0  0
   18.6825   14.3903   13.3691 H   0  0  0  0  0  0  0  0  0  0  0  0
   22.2855   15.1720    6.0966 H   0  0  0  0  0  0  0  0  0  0  0  0
  1  2  1  0
  2  3  1  0
  3  4  2  0
  4  5  1  0
  5  6  1  0
  6  7  2  0
  6  8  2  0
  6  9  1  0
  9 10  2  0
 10 11  1  0
 11 12  2  0
 12 13  1  0
 13 14  1  0
 14 15  2  0
 14 16  1  0
 16 17  1  0
 17 18  1  0
 18 19  1  0
 19 20  1  0
 20 21  2  0
 20 22  1  0
 22 23  1  0
 23 24  2  0
 13 25  2  0
 12 26  1  0
 26 27  1  0
 27 28  2  0
 27 29  1  0
 29 30  1  0
  5 31  1  0
 31 32  2  0
 32  3  1  0
 25  9  1  0
 30 11  1  0
 23 17  1  0
  1 33  1  0
  1 34  1  0
  1 35  1  0
  2 36  1  0
  2 37  1  0
  4 38  1  0
 10 39  1  0
 16 40  1  0
 17 41  1  1
 18 42  1  0
 18 43  1  0
 19 44  1  0
 19 45  1  0
 22 46  1  0
 25 47  1  0
 26 48  1  0
 29 49  1  0
 29 50  1  0
 31 51  1  0
M  END
>  <meeko>  (189) 
{"is_sidechain": [true], "free_energy": -11.14, "intermolecular_energy": 0.0, "internal_energy": -11.14, "cluster_size": 20, "cluster_id": 1, "rank_in_cluster": 1}

>  <_RMSD_MCS_to_ref>  (189) 
0.4015525425700165

$$$$
ligand
     RDKit          3D

 56 60  0  0  0  0  0  0  0  0999 V2000
   18.7970   18.8170    7.7190 C   0  0  0  0  0  0  0  0  0  0  0  0
   18.5280   17.3290    7.8810 C   0  0  0  0  0  0  0  0  0  0  0  0
   19.7690   16.5170    7.7480 C   0  0  0  0  0  0  0  0  0  0  0  0
   20.1570   15.4000    8.4610 C   0  0  0  0  0  0  0  0  0  0  0  0
   21.3590   15.0550    7.9150 N   0  0  0  0  0  0  0  0  0  0  0  0
   22.4180   13.8950    8.5100 S   0  0  0  0  0  6  0  0  0  0  0  0
   23.5720   13.9290    7.6310 O   0  0  0  0  0  0  0  0  0  0  0  0
   21.6320   12.6950    8.7170 O   0  0  0  0  0  0  0  0  0  0  0  0
   22.8950   14.5310   10.0970 C   0  0  0  0  0  0  0  0  0  0  0  0
   24.0180   15.3560   10.2010 C   0  0  0  0  0  0  0  0  0  0  0  0
   24.3550   15.8200   11.4630 C   0  0  0  0  0  0  0  0  0  0  0  0
   23.5980   15.4740   12.5900 C   0  0  0  0  0  0  0  0  0  0  0  0
   22.4780   14.6440   12.5160 C   0  0  0  0  0  0  0  0  0  0  0  0
   21.6610   14.2550   13.6700 C   0  0  0  0  0  0  0  0  0  0  0  0
   21.2720   15.2070   14.6270 C   0  0  0  0  0  0  0  0  0  0  0  0
   20.5240   14.8360   15.7470 C   0  0  0  0  0  0  0  0  0  0  0  0
   20.1550   13.5050   15.9290 C   0  0  0  0  0  0  0  0  0  0  0  0
   20.5330   12.5470   14.9930 C   0  0  0  0  0  0  0  0  0  0  0  0
   21.2820   12.9180   13.8730 C   0  0  0  0  0  0  0  0  0  0  0  0
   22.1430   14.1670   11.2320 C   0  0  0  0  0  0  0  0  0  0  0  0
   24.2340   16.1290   13.7530 C   0  0  0  0  0  0  0  0  0  0  0  0
   23.8110   16.1380   14.8910 O   0  0  0  0  0  0  0  0  0  0  0  0
   25.3850   16.7540   13.2910 N   0  0  0  0  0  0  0  0  0  0  0  0
   26.1680   17.7040   14.0770 C   0  0  2  0  0  0  0  0  0  0  0  0
   26.0100   17.5370   15.5880 C   0  0  0  0  0  0  0  0  0  0  0  0
   26.9090   18.5340   16.3010 C   0  0  0  0  0  0  0  0  0  0  0  0
   26.6080   19.9510   15.8700 C   0  0  0  0  0  0  0  0  0  0  0  0
   26.8820   20.9200   16.5720 O   0  0  0  0  0  0  0  0  0  0  0  0
   26.0910   20.1150   14.6100 N   0  0  0  0  0  0  0  0  0  0  0  0
   25.8650   19.1490   13.6560 C   0  0  0  0  0  0  0  0  0  0  0  0
   25.5400   19.4680   12.5120 O   0  0  0  0  0  0  0  0  0  0  0  0
   25.4840   16.7170   11.8450 C   0  0  0  0  0  0  0  0  0  0  0  0
   21.6870   15.9570    6.9550 C   0  0  0  0  0  0  0  0  0  0  0  0
   20.7350   16.8550    6.8200 N   0  0  0  0  0  0  0  0  0  0  0  0
   18.8815   19.2845    8.7111 H   0  0  0  0  0  0  0  0  0  0  0  0
   19.7359   18.9616    7.1643 H   0  0  0  0  0  0  0  0  0  0  0  0
   17.9682   19.2812    7.1643 H   0  0  0  0  0  0  0  0  0  0  0  0
   18.0944   17.1534    8.8766 H   0  0  0  0  0  0  0  0  0  0  0  0
   17.8353   17.0215    7.0837 H   0  0  0  0  0  0  0  0  0  0  0  0
   19.6198   14.9020    9.2817 H   0  0  0  0  0  0  0  0  0  0  0  0
   24.6118   15.6268    9.3155 H   0  0  0  0  0  0  0  0  0  0  0  0
   21.5606   16.2599   14.4925 H   0  0  0  0  0  0  0  0  0  0  0  0
   20.2263   15.5950   16.4854 H   0  0  0  0  0  0  0  0  0  0  0  0
   19.5661   13.2119   16.8107 H   0  0  0  0  0  0  0  0  0  0  0  0
   20.2417   11.4958   15.1350 H   0  0  0  0  0  0  0  0  0  0  0  0
   21.5786   12.1527   13.1407 H   0  0  0  0  0  0  0  0  0  0  0  0
   21.2780   13.4978   11.1140 H   0  0  0  0  0  0  0  0  0  0  0  0
   27.2209   17.4756   13.8552 H   0  0  0  0  0  0  0  0  0  0  0  0
   24.9626   17.7196   15.8702 H   0  0  0  0  0  0  0  0  0  0  0  0
   26.2928   16.5140   15.8770 H   0  0  0  0  0  0  0  0  0  0  0  0
   26.7497   18.4480   17.3860 H   0  0  0  0  0  0  0  0  0  0  0  0
   27.9536   18.3068   16.0418 H   0  0  0  0  0  0  0  0  0  0  0  0
   25.8415   21.0787   14.3456 H   0  0  0  0  0  0  0  0  0  0  0  0
   25.3573   17.7205   11.4127 H   0  0  0  0  0  0  0  0  0  0  0  0
   26.4619   16.3670   11.4828 H   0  0  0  0  0  0  0  0  0  0  0  0
   22.6191   15.9395    6.3712 H   0  0  0  0  0  0  0  0  0  0  0  0
  1  2  1  0
  2  3  1  0
  3  4  2  0
  4  5  1  0
  5  6  1  0
  6  7  2  0
  6  8  2  0
  6  9  1  0
  9 10  2  0
 10 11  1  0
 11 12  2  0
 12 13  1  0
 13 14  1  0
 14 15  2  0
 15 16  1  0
 16 17  2  0
 17 18  1  0
 18 19  2  0
 13 20  2  0
 12 21  1  0
 21 22  2  0
 21 23  1  0
 23 24  1  0
 24 25  1  0
 25 26  1  0
 26 27  1  0
 27 28  2  0
 27 29  1  0
 29 30  1  0
 30 31  2  0
 23 32  1  0
  5 33  1  0
 33 34  2  0
 34  3  1  0
 20  9  1  0
 30 24  1  0
 32 11  1  0
 19 14  1  0
  1 35  1  0
  1 36  1  0
  1 37  1  0
  2 38  1  0
  2 39  1  0
  4 40  1  0
 10 41  1  0
 15 42  1  0
 16 43  1  0
 17 44  1  0
 18 45  1  0
 19 46  1  0
 20 47  1  0
 24 48  1  1
 25 49  1  0
 25 50  1  0
 26 51  1  0
 26 52  1  0
 29 53  1  0
 32 54  1  0
 32 55  1  0
 33 56  1  0
M  END
>  <meeko>  (190) 
{"is_sidechain": [true], "free_energy": -11.13, "intermolecular_energy": 0.0, "internal_energy": -11.13, "cluster_size": 14, "cluster_id": 1, "rank_in_cluster": 1}

>  <_RMSD_MCS_to_ref>  (190) 
1.1549189245233717

$$$$
ligand
     RDKit          3D

 50 53  0  0  0  0  0  0  0  0999 V2000
   18.8250   19.0170    7.5350 C   0  0  0  0  0  0  0  0  0  0  0  0
   18.5200   17.5420    7.7330 C   0  0  0  0  0  0  0  0  0  0  0  0
   19.6990   16.6800    7.4470 C   0  0  0  0  0  0  0  0  0  0  0  0
   20.3790   15.8270    8.2950 C   0  0  0  0  0  0  0  0  0  0  0  0
   21.3640   15.2960    7.5140 N   0  0  0  0  0  0  0  0  0  0  0  0
   22.5560   14.2310    8.0280 S   0  0  0  0  0  6  0  0  0  0  0  0
   23.6120   14.2670    7.0360 O   0  0  0  0  0  0  0  0  0  0  0  0
   21.8370   13.0100    8.3370 O   0  0  0  0  0  0  0  0  0  0  0  0
   23.1670   14.9380    9.5470 C   0  0  0  0  0  0  0  0  0  0  0  0
   22.3030   14.8830   10.6450 C   0  0  0  0  0  0  0  0  0  0  0  0
   22.6870   15.4580   11.8450 C   0  0  0  0  0  0  0  0  0  0  0  0
   23.9340   16.0900   11.9670 C   0  0  0  0  0  0  0  0  0  0  0  0
   24.2300   16.6880   13.3120 C   0  0  0  0  0  0  0  0  0  0  0  0
   23.8250   16.1390   14.3340 O   0  0  0  0  0  0  0  0  0  0  0  0
   24.9580   17.8510   13.3560 N   0  0  0  0  0  0  0  0  0  0  0  0
   25.1740   18.5950   14.5840 C   0  0  1  0  0  0  0  0  0  0  0  0
   26.1360   17.8750   15.5240 C   0  0  0  0  0  0  0  0  0  0  0  0
   26.3300   18.7010   16.7850 C   0  0  0  0  0  0  0  0  0  0  0  0
   26.8090   20.0950   16.4580 C   0  0  0  0  0  0  0  0  0  0  0  0
   27.5650   20.7220   17.1920 O   0  0  0  0  0  0  0  0  0  0  0  0
   26.3290   20.6530   15.3000 N   0  0  0  0  0  0  0  0  0  0  0  0
   25.7460   19.9800   14.2530 C   0  0  0  0  0  0  0  0  0  0  0  0
   25.6810   20.4940   13.1360 O   0  0  0  0  0  0  0  0  0  0  0  0
   24.8290   16.1460   10.8830 C   0  0  0  0  0  0  0  0  0  0  0  0
   26.0260   16.7660   11.0210 N   0  0  0  0  0  0  0  0  0  0  0  0
   26.8900   16.8190    9.9890 C   0  0  0  0  0  0  0  0  0  0  0  0
   26.6310   16.2520    8.7690 C   0  0  0  0  0  0  0  0  0  0  0  0
   25.4100   15.6110    8.6040 C   0  0  0  0  0  0  0  0  0  0  0  0
   24.4510   15.5490    9.6490 C   0  0  0  0  0  0  0  0  0  0  0  0
   21.2500   15.7870    6.2540 C   0  0  0  0  0  0  0  0  0  0  0  0
   20.2600   16.6510    6.1850 N   0  0  0  0  0  0  0  0  0  0  0  0
   18.9260   19.5054    8.5155 H   0  0  0  0  0  0  0  0  0  0  0  0
   19.7645   19.1250    6.9731 H   0  0  0  0  0  0  0  0  0  0  0  0
   18.0054   19.4887    6.9731 H   0  0  0  0  0  0  0  0  0  0  0  0
   18.2087   17.3816    8.7758 H   0  0  0  0  0  0  0  0  0  0  0  0
   17.7211   17.2653    7.0293 H   0  0  0  0  0  0  0  0  0  0  0  0
   20.1735   15.6228    9.3562 H   0  0  0  0  0  0  0  0  0  0  0  0
   21.3254   14.3866   10.5563 H   0  0  0  0  0  0  0  0  0  0  0  0
   22.0086   15.4190   12.7100 H   0  0  0  0  0  0  0  0  0  0  0  0
   25.3678   18.2105   12.4821 H   0  0  0  0  0  0  0  0  0  0  0  0
   24.2020   18.6881   15.0905 H   0  0  0  0  0  0  0  0  0  0  0  0
   25.7205   16.8920   15.7905 H   0  0  0  0  0  0  0  0  0  0  0  0
   27.1056   17.7409   15.0221 H   0  0  0  0  0  0  0  0  0  0  0  0
   25.3717   18.7677   17.3209 H   0  0  0  0  0  0  0  0  0  0  0  0
   27.0908   18.2094   17.4091 H   0  0  0  0  0  0  0  0  0  0  0  0
   26.4138   21.6752   15.2063 H   0  0  0  0  0  0  0  0  0  0  0  0
   27.8473   17.3414   10.1323 H   0  0  0  0  0  0  0  0  0  0  0  0
   27.3635   16.3026    7.9499 H   0  0  0  0  0  0  0  0  0  0  0  0
   25.1798   15.1386    7.6376 H   0  0  0  0  0  0  0  0  0  0  0  0
   21.8946   15.5027    5.4092 H   0  0  0  0  0  0  0  0  0  0  0  0
  1  2  1  0
  2  3  1  0
  3  4  2  0
  4  5  1  0
  5  6  1  0
  6  7  2  0
  6  8  2  0
  6  9  1  0
  9 10  2  0
 10 11  1  0
 11 12  2  0
 12 13  1  0
 13 14  2  0
 13 15  1  0
 15 16  1  0
 16 17  1  0
 17 18  1  0
 18 19  1  0
 19 20  2  0
 19 21  1  0
 21 22  1  0
 22 23  2  0
 12 24  1  0
 24 25  2  0
 25 26  1  0
 26 27  2  0
 27 28  1  0
 28 29  2  0
  5 30  1  0
 30 31  2  0
 31  3  1  0
 29  9  1  0
 22 16  1  0
 29 24  1  0
  1 32  1  0
  1 33  1  0
  1 34  1  0
  2 35  1  0
  2 36  1  0
  4 37  1  0
 10 38  1  0
 11 39  1  0
 15 40  1  0
 16 41  1  1
 17 42  1  0
 17 43  1  0
 18 44  1  0
 18 45  1  0
 21 46  1  0
 26 47  1  0
 27 48  1  0
 28 49  1  0
 30 50  1  0
M  END
>  <meeko>  (191) 
{"is_sidechain": [true], "free_energy": -11.12, "intermolecular_energy": 0.0, "internal_energy": -11.12, "cluster_size": 20, "cluster_id": 1, "rank_in_cluster": 1}

>  <_RMSD_MCS_to_ref>  (191) 
0.5729972852369273

$$$$
ligand
     RDKit          3D

 54 58  0  0  0  0  0  0  0  0999 V2000
   18.8250   19.0170    7.5350 C   0  0  0  0  0  0  0  0  0  0  0  0
   18.5200   17.5420    7.7330 C   0  0  0  0  0  0  0  0  0  0  0  0
   19.7550   16.7120    7.7770 C   0  0  0  0  0  0  0  0  0  0  0  0
   20.1940   15.8590    8.7690 C   0  0  0  0  0  0  0  0  0  0  0  0
   21.3740   15.3680    8.2890 N   0  0  0  0  0  0  0  0  0  0  0  0
   22.3430   14.2330    9.0560 S   0  0  0  0  0  6  0  0  0  0  0  0
   21.4510   13.1190    9.3180 O   0  0  0  0  0  0  0  0  0  0  0  0
   23.5470   14.0720    8.2620 O   0  0  0  0  0  0  0  0  0  0  0  0
   22.8040   14.9630   10.6120 C   0  0  0  0  0  0  0  0  0  0  0  0
   21.7860   15.0740   11.5950 C   0  0  0  0  0  0  0  0  0  0  0  0
   22.0520   15.6530   12.8340 C   0  0  0  0  0  0  0  0  0  0  0  0
   23.3380   16.1000   13.0590 C   0  0  0  0  0  0  0  0  0  0  0  0
   24.3550   15.9930   12.1090 C   0  0  0  0  0  0  0  0  0  0  0  0
   24.1160   15.4150   10.8620 C   0  0  0  0  0  0  0  0  0  0  0  0
   25.2210   15.3130    9.9170 C   0  0  0  0  0  0  0  0  0  0  0  0
   26.0720   16.2920    9.4330 C   0  0  0  0  0  0  0  0  0  0  0  0
   27.0040   15.6720    8.5680 C   0  0  0  0  0  0  0  0  0  0  0  0
   26.7100   14.3290    8.5470 C   0  0  0  0  0  0  0  0  0  0  0  0
   25.6360   14.1170    9.3700 N   0  0  0  0  0  0  0  0  0  0  0  0
   25.6150   16.5800   12.6670 C   0  0  0  0  0  0  0  0  0  0  0  0
   25.2400   16.9200   14.0330 N   0  0  0  0  0  0  0  0  0  0  0  0
   26.1090   17.7440   14.8690 C   0  0  2  0  0  0  0  0  0  0  0  0
   25.7320   17.7320   16.3500 C   0  0  0  0  0  0  0  0  0  0  0  0
   26.7350   18.5670   17.1300 C   0  0  0  0  0  0  0  0  0  0  0  0
   26.8090   19.9770   16.5950 C   0  0  0  0  0  0  0  0  0  0  0  0
   27.1890   20.9200   17.2840 O   0  0  0  0  0  0  0  0  0  0  0  0
   26.5060   20.1510   15.2680 N   0  0  0  0  0  0  0  0  0  0  0  0
   26.1760   19.1870   14.3420 C   0  0  0  0  0  0  0  0  0  0  0  0
   26.0470   19.4830   13.1550 O   0  0  0  0  0  0  0  0  0  0  0  0
   23.8860   16.7410   14.2580 C   0  0  0  0  0  0  0  0  0  0  0  0
   23.2290   17.0540   15.2320 O   0  0  0  0  0  0  0  0  0  0  0  0
   21.6020   15.8810    7.0540 C   0  0  0  0  0  0  0  0  0  0  0  0
   20.6410   16.7150    6.7170 N   0  0  0  0  0  0  0  0  0  0  0  0
   18.9260   19.5054    8.5155 H   0  0  0  0  0  0  0  0  0  0  0  0
   19.7645   19.1250    6.9731 H   0  0  0  0  0  0  0  0  0  0  0  0
   18.0054   19.4887    6.9731 H   0  0  0  0  0  0  0  0  0  0  0  0
   17.9757   17.4172    8.6807 H   0  0  0  0  0  0  0  0  0  0  0  0
   17.9174   17.2045    6.8769 H   0  0  0  0  0  0  0  0  0  0  0  0
   19.7052   15.6277    9.7269 H   0  0  0  0  0  0  0  0  0  0  0  0
   20.7755   14.6986   11.3760 H   0  0  0  0  0  0  0  0  0  0  0  0
   21.2694   15.7498   13.6010 H   0  0  0  0  0  0  0  0  0  0  0  0
   26.0307   17.3636    9.6780 H   0  0  0  0  0  0  0  0  0  0  0  0
   27.8133   16.1714    8.0151 H   0  0  0  0  0  0  0  0  0  0  0  0
   27.2440   13.5595    7.9701 H   0  0  0  0  0  0  0  0  0  0  0  0
   25.2027   13.2007    9.5531 H   0  0  0  0  0  0  0  0  0  0  0  0
   26.4337   15.8455   12.6528 H   0  0  0  0  0  0  0  0  0  0  0  0
   25.9844   17.4414   12.0913 H   0  0  0  0  0  0  0  0  0  0  0  0
   27.1068   17.2859   14.8016 H   0  0  0  0  0  0  0  0  0  0  0  0
   24.7245   18.1550   16.4762 H   0  0  0  0  0  0  0  0  0  0  0  0
   25.7425   16.6979   16.7248 H   0  0  0  0  0  0  0  0  0  0  0  0
   26.4293   18.6001   18.1861 H   0  0  0  0  0  0  0  0  0  0  0  0
   27.7274   18.1039   17.0264 H   0  0  0  0  0  0  0  0  0  0  0  0
   26.5281   21.1211   14.9225 H   0  0  0  0  0  0  0  0  0  0  0  0
   22.4685   15.6346    6.4227 H   0  0  0  0  0  0  0  0  0  0  0  0
  1  2  1  0
  2  3  1  0
  3  4  2  0
  4  5  1  0
  5  6  1  0
  6  7  2  0
  6  8  2  0
  6  9  1  0
  9 10  2  0
 10 11  1  0
 11 12  2  0
 12 13  1  0
 13 14  2  0
 14 15  1  0
 15 16  2  0
 16 17  1  0
 17 18  2  0
 18 19  1  0
 13 20  1  0
 20 21  1  0
 21 22  1  0
 22 23  1  0
 23 24  1  0
 24 25  1  0
 25 26  2  0
 25 27  1  0
 27 28  1  0
 28 29  2  0
 21 30  1  0
 30 31  2  0
  5 32  1  0
 32 33  2  0
 33  3  1  0
 14  9  1  0
 19 15  1  0
 28 22  1  0
 30 12  1  0
  1 34  1  0
  1 35  1  0
  1 36  1  0
  2 37  1  0
  2 38  1  0
  4 39  1  0
 10 40  1  0
 11 41  1  0
 16 42  1  0
 17 43  1  0
 18 44  1  0
 19 45  1  0
 20 46  1  0
 20 47  1  0
 22 48  1  1
 23 49  1  0
 23 50  1  0
 24 51  1  0
 24 52  1  0
 27 53  1  0
 32 54  1  0
M  END
>  <meeko>  (192) 
{"is_sidechain": [true], "free_energy": -11.12, "intermolecular_energy": 0.0, "internal_energy": -11.12, "cluster_size": 16, "cluster_id": 1, "rank_in_cluster": 1}

>  <_RMSD_MCS_to_ref>  (192) 
0.9134705493032846

$$$$
ligand
     RDKit          3D

 54 58  0  0  0  0  0  0  0  0999 V2000
   18.8250   19.0180    7.5350 C   0  0  0  0  0  0  0  0  0  0  0  0
   18.5200   17.5410    7.7330 C   0  0  0  0  0  0  0  0  0  0  0  0
   19.6290   16.6700    7.2570 C   0  0  0  0  0  0  0  0  0  0  0  0
   20.3840   15.7590    7.9680 C   0  0  0  0  0  0  0  0  0  0  0  0
   21.2550   15.2550    7.0460 N   0  0  0  0  0  0  0  0  0  0  0  0
   22.3050   13.9680    7.2890 S   0  0  0  0  0  6  0  0  0  0  0  0
   22.3190   13.2640    6.0190 O   0  0  0  0  0  0  0  0  0  0  0  0
   21.8630   13.3180    8.5070 O   0  0  0  0  0  0  0  0  0  0  0  0
   23.9290   14.6220    7.5840 C   0  0  0  0  0  0  0  0  0  0  0  0
   24.8840   14.5360    6.5570 C   0  0  0  0  0  0  0  0  0  0  0  0
   26.1460   15.0940    6.7240 C   0  0  0  0  0  0  0  0  0  0  0  0
   26.4630   15.7580    7.9020 C   0  0  0  0  0  0  0  0  0  0  0  0
   25.5380   15.8740    8.9460 C   0  0  0  0  0  0  0  0  0  0  0  0
   25.9240   16.5790   10.0940 C   0  0  0  0  0  0  0  0  0  0  0  0
   25.0630   16.7490   11.1850 C   0  0  0  0  0  0  0  0  0  0  0  0
   25.5300   17.5130   12.3690 C   0  0  0  0  0  0  0  0  0  0  0  0
   26.7210   17.7820   12.5000 O   0  0  0  0  0  0  0  0  0  0  0  0
   24.5820   17.8890   13.2890 N   0  0  0  0  0  0  0  0  0  0  0  0
   24.9220   18.5860   14.5160 C   0  0  1  0  0  0  0  0  0  0  0  0
   25.9300   17.7970   15.3470 C   0  0  0  0  0  0  0  0  0  0  0  0
   26.2500   18.5640   16.6210 C   0  0  0  0  0  0  0  0  0  0  0  0
   26.7480   19.9550   16.3130 C   0  0  0  0  0  0  0  0  0  0  0  0
   27.5690   20.5320   17.0190 O   0  0  0  0  0  0  0  0  0  0  0  0
   26.2070   20.5710   15.2130 N   0  0  0  0  0  0  0  0  0  0  0  0
   25.5040   19.9680   14.1970 C   0  0  0  0  0  0  0  0  0  0  0  0
   25.3490   20.5440   13.1210 O   0  0  0  0  0  0  0  0  0  0  0  0
   23.7860   16.1750   11.1160 C   0  0  0  0  0  0  0  0  0  0  0  0
   22.7740   16.1930   12.0570 N   0  0  0  0  0  0  0  0  0  0  0  0
   21.8070   15.4770   11.5430 C   0  0  0  0  0  0  0  0  0  0  0  0
   22.1390   15.0100   10.3070 N   0  0  0  0  0  0  0  0  0  0  0  0
   23.4040   15.4600    9.9750 C   0  0  0  0  0  0  0  0  0  0  0  0
   24.2400   15.2880    8.8170 C   0  0  0  0  0  0  0  0  0  0  0  0
   21.0130   15.8290    5.8400 C   0  0  0  0  0  0  0  0  0  0  0  0
   20.0220   16.6910    5.9340 N   0  0  0  0  0  0  0  0  0  0  0  0
   18.9258   19.5062    8.5155 H   0  0  0  0  0  0  0  0  0  0  0  0
   19.7645   19.1263    6.9731 H   0  0  0  0  0  0  0  0  0  0  0  0
   18.0053   19.4896    6.9731 H   0  0  0  0  0  0  0  0  0  0  0  0
   18.3569   17.3533    8.8045 H   0  0  0  0  0  0  0  0  0  0  0  0
   17.6233   17.2990    7.1436 H   0  0  0  0  0  0  0  0  0  0  0  0
   20.3023   15.4988    9.0337 H   0  0  0  0  0  0  0  0  0  0  0  0
   24.6317   14.0246    5.6163 H   0  0  0  0  0  0  0  0  0  0  0  0
   26.8945   15.0096    5.9224 H   0  0  0  0  0  0  0  0  0  0  0  0
   27.4627   16.2023    8.0170 H   0  0  0  0  0  0  0  0  0  0  0  0
   26.9342   17.0120   10.1394 H   0  0  0  0  0  0  0  0  0  0  0  0
   23.5936   17.6683   13.1014 H   0  0  0  0  0  0  0  0  0  0  0  0
   23.9966   18.6959   15.1004 H   0  0  0  0  0  0  0  0  0  0  0  0
   25.5035   16.8169   15.6067 H   0  0  0  0  0  0  0  0  0  0  0  0
   26.8521   17.6537   14.7646 H   0  0  0  0  0  0  0  0  0  0  0  0
   25.3394   18.6369   17.2337 H   0  0  0  0  0  0  0  0  0  0  0  0
   27.0409   18.0239   17.1621 H   0  0  0  0  0  0  0  0  0  0  0  0
   26.3413   21.5897   15.1409 H   0  0  0  0  0  0  0  0  0  0  0  0
   20.8486   15.2776   12.0447 H   0  0  0  0  0  0  0  0  0  0  0  0
   21.5424   14.4159    9.7137 H   0  0  0  0  0  0  0  0  0  0  0  0
   21.5660   15.6058    4.9157 H   0  0  0  0  0  0  0  0  0  0  0  0
  1  2  1  0
  2  3  1  0
  3  4  2  0
  4  5  1  0
  5  6  1  0
  6  7  2  0
  6  8  2  0
  6  9  1  0
  9 10  2  0
 10 11  1  0
 11 12  2  0
 12 13  1  0
 13 14  2  0
 14 15  1  0
 15 16  1  0
 16 17  2  0
 16 18  1  0
 18 19  1  0
 19 20  1  0
 20 21  1  0
 21 22  1  0
 22 23  2  0
 22 24  1  0
 24 25  1  0
 25 26  2  0
 15 27  2  0
 27 28  1  0
 28 29  2  0
 29 30  1  0
 30 31  1  0
 31 32  2  0
  5 33  1  0
 33 34  2  0
 34  3  1  0
 32  9  1  0
 32 13  1  0
 25 19  1  0
 31 27  1  0
  1 35  1  0
  1 36  1  0
  1 37  1  0
  2 38  1  0
  2 39  1  0
  4 40  1  0
 10 41  1  0
 11 42  1  0
 12 43  1  0
 14 44  1  0
 18 45  1  0
 19 46  1  1
 20 47  1  0
 20 48  1  0
 21 49  1  0
 21 50  1  0
 24 51  1  0
 29 52  1  0
 30 53  1  0
 33 54  1  0
M  END
>  <meeko>  (193) 
{"is_sidechain": [true], "free_energy": -11.12, "intermolecular_energy": 0.0, "internal_energy": -11.12, "cluster_size": 20, "cluster_id": 1, "rank_in_cluster": 1}

>  <_RMSD_MCS_to_ref>  (193) 
0.4740773495257218

$$$$
ligand
     RDKit          3D

 45 49  0  0  0  0  0  0  0  0999 V2000
   18.9090   19.1540    7.5370 C   0  0  0  0  0  0  0  0  0  0  0  0
   18.7730   17.6460    7.6780 C   0  0  0  0  0  0  0  0  0  0  0  0
   20.0710   16.9950    8.0030 C   0  0  0  0  0  0  0  0  0  0  0  0
   20.4340   16.3090    9.1450 C   0  0  0  0  0  0  0  0  0  0  0  0
   21.7140   15.9070    8.9010 N   0  0  0  0  0  0  0  0  0  0  0  0
   22.6290   14.8550    9.8380 S   0  0  0  0  0  6  0  0  0  0  0  0
   21.7370   14.4390   10.9040 O   0  0  0  0  0  0  0  0  0  0  0  0
   23.2390   13.9060    8.9300 O   0  0  0  0  0  0  0  0  0  0  0  0
   23.9020   15.8450   10.5440 C   0  0  0  0  0  0  0  0  0  0  0  0
   25.1010   16.0520    9.8480 C   0  0  0  0  0  0  0  0  0  0  0  0
   26.1200   16.8380   10.4160 C   0  0  0  0  0  0  0  0  0  0  0  0
   25.9500   17.4330   11.6700 C   0  0  0  0  0  0  0  0  0  0  0  0
   24.7470   17.2280   12.3160 C   0  0  0  0  0  0  0  0  0  0  0  0
   23.7450   16.4450   11.7750 C   0  0  0  0  0  0  0  0  0  0  0  0
   22.6490   16.3450   12.6110 O   0  0  0  0  0  0  0  0  0  0  0  0
   23.0420   17.0810   13.7360 C   0  0  0  0  0  0  0  0  0  0  0  0
   22.3540   17.1670   14.7430 O   0  0  0  0  0  0  0  0  0  0  0  0
   24.2790   17.6720   13.5360 N   0  0  0  0  0  0  0  0  0  0  0  0
   25.0460   18.4060   14.5490 C   0  0  1  0  0  0  0  0  0  0  0  0
   24.5620   18.2190   16.0390 C   0  0  0  0  0  0  0  0  0  0  0  0
   26.0710   18.4580   16.3810 C   0  0  1  0  0  0  0  0  0  0  0  0
   26.3380   17.6580   15.0690 C   0  0  0  0  0  0  0  0  0  0  0  0
   26.5080   19.9730   16.3020 C   0  0  0  0  0  0  0  0  0  0  0  0
   27.0880   20.6160   17.1730 O   0  0  0  0  0  0  0  0  0  0  0  0
   26.1370   20.5690   15.1130 N   0  0  0  0  0  0  0  0  0  0  0  0
   25.3320   19.9450   14.1760 C   0  0  0  0  0  0  0  0  0  0  0  0
   24.8900   20.5780   13.2200 O   0  0  0  0  0  0  0  0  0  0  0  0
   22.0900   16.3350    7.6680 C   0  0  0  0  0  0  0  0  0  0  0  0
   21.1120   17.0040    7.0950 N   0  0  0  0  0  0  0  0  0  0  0  0
   18.9504   19.6134    8.5356 H   0  0  0  0  0  0  0  0  0  0  0  0
   19.8320   19.3891    6.9867 H   0  0  0  0  0  0  0  0  0  0  0  0
   18.0430   19.5504    6.9867 H   0  0  0  0  0  0  0  0  0  0  0  0
   18.0556   17.4283    8.4829 H   0  0  0  0  0  0  0  0  0  0  0  0
   18.4251   17.2456    6.7143 H   0  0  0  0  0  0  0  0  0  0  0  0
   19.8290   16.1281   10.0457 H   0  0  0  0  0  0  0  0  0  0  0  0
   25.2453   15.5991    8.8560 H   0  0  0  0  0  0  0  0  0  0  0  0
   27.0617   16.9863    9.8672 H   0  0  0  0  0  0  0  0  0  0  0  0
   26.7452   18.0418   12.1250 H   0  0  0  0  0  0  0  0  0  0  0  0
   23.8662   18.9861   16.4097 H   0  0  0  0  0  0  0  0  0  0  0  0
   23.9883   17.3481   16.3888 H   0  0  0  0  0  0  0  0  0  0  0  0
   26.5219   18.2010   17.3509 H   0  0  0  0  0  0  0  0  0  0  0  0
   27.2720   17.9087   14.5448 H   0  0  0  0  0  0  0  0  0  0  0  0
   26.4634   16.5656   15.0369 H   0  0  0  0  0  0  0  0  0  0  0  0
   26.4748   21.5215   14.9143 H   0  0  0  0  0  0  0  0  0  0  0  0
   23.0737   16.1487    7.2123 H   0  0  0  0  0  0  0  0  0  0  0  0
  1  2  1  0
  2  3  1  0
  3  4  2  0
  4  5  1  0
  5  6  1  0
  6  7  2  0
  6  8  2  0
  6  9  1  0
  9 10  2  0
 10 11  1  0
 11 12  2  0
 12 13  1  0
 13 14  2  0
 14 15  1  0
 15 16  1  0
 16 17  2  0
 16 18  1  0
 19 18  1  6
 19 20  1  0
 20 21  1  0
 21 22  1  0
 21 23  1  0
 23 24  2  0
 23 25  1  0
 25 26  1  0
 26 27  2  0
  5 28  1  0
 28 29  2  0
 29  3  1  0
 14  9  1  0
 22 19  1  0
 18 13  1  0
 26 19  1  0
  1 30  1  0
  1 31  1  0
  1 32  1  0
  2 33  1  0
  2 34  1  0
  4 35  1  0
 10 36  1  0
 11 37  1  0
 12 38  1  0
 20 39  1  0
 20 40  1  0
 21 41  1  1
 22 42  1  0
 22 43  1  0
 25 44  1  0
 28 45  1  0
M  END
>  <meeko>  (194) 
{"is_sidechain": [true], "free_energy": -11.12, "intermolecular_energy": 0.0, "internal_energy": -11.12, "cluster_size": 20, "cluster_id": 1, "rank_in_cluster": 1}

>  <_RMSD_MCS_to_ref>  (194) 
0.6082918707331213

$$$$
ligand
     RDKit          3D

 50 53  0  0  0  0  0  0  0  0999 V2000
   18.9090   19.1540    7.5370 C   0  0  0  0  0  0  0  0  0  0  0  0
   18.7730   17.6460    7.6780 C   0  0  0  0  0  0  0  0  0  0  0  0
   20.0570   16.9400    7.4200 C   0  0  0  0  0  0  0  0  0  0  0  0
   20.5100   15.7420    7.9360 C   0  0  0  0  0  0  0  0  0  0  0  0
   21.7330   15.5670    7.3550 N   0  0  0  0  0  0  0  0  0  0  0  0
   22.8520   14.3790    7.7490 S   0  0  0  0  0  6  0  0  0  0  0  0
   23.6030   14.1450    6.5320 O   0  0  0  0  0  0  0  0  0  0  0  0
   22.0860   13.3390    8.4060 O   0  0  0  0  0  0  0  0  0  0  0  0
   23.9780   15.0510    8.9520 C   0  0  0  0  0  0  0  0  0  0  0  0
   25.2660   15.4430    8.5660 C   0  0  0  0  0  0  0  0  0  0  0  0
   26.1360   15.9680    9.5120 C   0  0  0  0  0  0  0  0  0  0  0  0
   25.7270   16.1010   10.8370 C   0  0  0  0  0  0  0  0  0  0  0  0
   24.4370   15.7110   11.2680 C   0  0  0  0  0  0  0  0  0  0  0  0
   23.9970   15.8410   12.6080 C   0  0  0  0  0  0  0  0  0  0  0  0
   24.8550   16.3650   13.6950 C   0  0  0  0  0  0  0  0  0  0  0  0
   25.3210   15.6190   14.5460 O   0  0  0  0  0  0  0  0  0  0  0  0
   25.0920   17.7210   13.6650 N   0  0  0  0  0  0  0  0  0  0  0  0
   26.0340   18.3420   14.5890 C   0  0  2  0  0  0  0  0  0  0  0  0
   25.7290   17.9900   16.0420 C   0  0  0  0  0  0  0  0  0  0  0  0
   26.7220   18.6960   16.9520 C   0  0  0  0  0  0  0  0  0  0  0  0
   26.7150   20.1890   16.7200 C   0  0  0  0  0  0  0  0  0  0  0  0
   26.9170   20.9970   17.6220 O   0  0  0  0  0  0  0  0  0  0  0  0
   26.5000   20.6100   15.4320 N   0  0  0  0  0  0  0  0  0  0  0  0
   25.9590   19.8610   14.4170 C   0  0  0  0  0  0  0  0  0  0  0  0
   25.4610   20.3940   13.4270 O   0  0  0  0  0  0  0  0  0  0  0  0
   22.7140   15.4350   12.9470 C   0  0  0  0  0  0  0  0  0  0  0  0
   21.8320   14.9360   12.0620 N   0  0  0  0  0  0  0  0  0  0  0  0
   22.2600   14.8190   10.7830 C   0  0  0  0  0  0  0  0  0  0  0  0
   23.5390   15.1790   10.3060 C   0  0  0  0  0  0  0  0  0  0  0  0
   22.0010   16.6280    6.5490 C   0  0  0  0  0  0  0  0  0  0  0  0
   21.0030   17.4870    6.5740 N   0  0  0  0  0  0  0  0  0  0  0  0
   18.9504   19.6134    8.5356 H   0  0  0  0  0  0  0  0  0  0  0  0
   19.8320   19.3891    6.9867 H   0  0  0  0  0  0  0  0  0  0  0  0
   18.0430   19.5504    6.9867 H   0  0  0  0  0  0  0  0  0  0  0  0
   18.4404   17.4143    8.7006 H   0  0  0  0  0  0  0  0  0  0  0  0
   18.0419   17.3013    6.9318 H   0  0  0  0  0  0  0  0  0  0  0  0
   20.0014   15.0796    8.6520 H   0  0  0  0  0  0  0  0  0  0  0  0
   25.5865   15.3355    7.5192 H   0  0  0  0  0  0  0  0  0  0  0  0
   27.1485   16.2790    9.2152 H   0  0  0  0  0  0  0  0  0  0  0  0
   26.4291   16.5225   11.5714 H   0  0  0  0  0  0  0  0  0  0  0  0
   24.5956   18.3067   12.9784 H   0  0  0  0  0  0  0  0  0  0  0  0
   27.0406   17.9641   14.3569 H   0  0  0  0  0  0  0  0  0  0  0  0
   24.7079   18.3141   16.2915 H   0  0  0  0  0  0  0  0  0  0  0  0
   25.8119   16.9021   16.1816 H   0  0  0  0  0  0  0  0  0  0  0  0
   26.4534   18.4950   17.9996 H   0  0  0  0  0  0  0  0  0  0  0  0
   27.7293   18.3149   16.7281 H   0  0  0  0  0  0  0  0  0  0  0  0
   26.7696   21.5780   15.2057 H   0  0  0  0  0  0  0  0  0  0  0  0
   22.4008   15.5262   13.9975 H   0  0  0  0  0  0  0  0  0  0  0  0
   21.5490   14.4074   10.0515 H   0  0  0  0  0  0  0  0  0  0  0  0
   22.9212   16.7518    5.9592 H   0  0  0  0  0  0  0  0  0  0  0  0
  1  2  1  0
  2  3  1  0
  3  4  2  0
  4  5  1  0
  5  6  1  0
  6  7  2  0
  6  8  2  0
  6  9  1  0
  9 10  2  0
 10 11  1  0
 11 12  2  0
 12 13  1  0
 13 14  2  0
 14 15  1  0
 15 16  2  0
 15 17  1  0
 17 18  1  0
 18 19  1  0
 19 20  1  0
 20 21  1  0
 21 22  2  0
 21 23  1  0
 23 24  1  0
 24 25  2  0
 14 26  1  0
 26 27  2  0
 27 28  1  0
 28 29  2  0
  5 30  1  0
 30 31  2  0
 31  3  1  0
 29  9  1  0
 29 13  1  0
 24 18  1  0
  1 32  1  0
  1 33  1  0
  1 34  1  0
  2 35  1  0
  2 36  1  0
  4 37  1  0
 10 38  1  0
 11 39  1  0
 12 40  1  0
 17 41  1  0
 18 42  1  6
 19 43  1  0
 19 44  1  0
 20 45  1  0
 20 46  1  0
 23 47  1  0
 26 48  1  0
 28 49  1  0
 30 50  1  0
M  END
>  <meeko>  (195) 
{"is_sidechain": [true], "free_energy": -11.12, "intermolecular_energy": 0.0, "internal_energy": -11.12, "cluster_size": 12, "cluster_id": 1, "rank_in_cluster": 1}

>  <_RMSD_MCS_to_ref>  (195) 
0.7079830506445752

$$$$
ligand
     RDKit          3D

 47 50  0  0  0  0  0  0  0  0999 V2000
   18.9090   19.1540    7.5370 C   0  0  0  0  0  0  0  0  0  0  0  0
   18.7730   17.6460    7.6780 C   0  0  0  0  0  0  0  0  0  0  0  0
   20.0920   16.9570    7.6410 C   0  0  0  0  0  0  0  0  0  0  0  0
   20.9500   16.6690    8.6820 C   0  0  0  0  0  0  0  0  0  0  0  0
   21.9970   16.0250    8.0860 N   0  0  0  0  0  0  0  0  0  0  0  0
   23.4610   15.6420    8.8140 S   0  0  0  0  0  6  0  0  0  0  0  0
   24.2830   16.8290    8.6880 O   0  0  0  0  0  0  0  0  0  0  0  0
   23.8600   14.3570    8.2710 O   0  0  0  0  0  0  0  0  0  0  0  0
   23.0370   15.4150   10.5190 C   0  0  0  0  0  0  0  0  0  0  0  0
   23.8840   15.9070   11.5070 C   0  0  0  0  0  0  0  0  0  0  0  0
   23.5730   15.7470   12.8710 C   0  0  0  0  0  0  0  0  0  0  0  0
   24.5450   16.2880   13.8550 C   0  0  0  0  0  0  0  0  0  0  0  0
   25.1470   15.5190   14.5960 O   0  0  0  0  0  0  0  0  0  0  0  0
   24.7610   17.6430   13.8600 N   0  0  0  0  0  0  0  0  0  0  0  0
   25.7980   18.2540   14.6790 C   0  0  2  0  0  0  0  0  0  0  0  0
   25.6190   17.9440   16.1620 C   0  0  0  0  0  0  0  0  0  0  0  0
   26.7090   18.6430   16.9600 C   0  0  0  0  0  0  0  0  0  0  0  0
   26.7160   20.1300   16.6910 C   0  0  0  0  0  0  0  0  0  0  0  0
   26.9980   20.9550   17.5540 O   0  0  0  0  0  0  0  0  0  0  0  0
   26.4160   20.5240   15.4120 N   0  0  0  0  0  0  0  0  0  0  0  0
   25.7440   19.7720   14.4810 C   0  0  0  0  0  0  0  0  0  0  0  0
   25.1430   20.3010   13.5450 O   0  0  0  0  0  0  0  0  0  0  0  0
   22.3820   15.0680   13.2090 C   0  0  0  0  0  0  0  0  0  0  0  0
   21.7010   14.6400   14.7460 S   0  0  0  0  0  0  0  0  0  0  0  0
   20.3680   13.9140   13.9690 C   0  0  0  0  0  0  0  0  0  0  0  0
   20.3780   13.9420   12.6590 N   0  0  0  0  0  0  0  0  0  0  0  0
   21.5180   14.5850   12.2120 C   0  0  0  0  0  0  0  0  0  0  0  0
   21.8470   14.7690   10.8540 C   0  0  0  0  0  0  0  0  0  0  0  0
   21.7830   15.9740    6.7460 C   0  0  0  0  0  0  0  0  0  0  0  0
   20.6270   16.5250    6.4420 N   0  0  0  0  0  0  0  0  0  0  0  0
   18.9504   19.6134    8.5356 H   0  0  0  0  0  0  0  0  0  0  0  0
   19.8320   19.3891    6.9867 H   0  0  0  0  0  0  0  0  0  0  0  0
   18.0430   19.5504    6.9867 H   0  0  0  0  0  0  0  0  0  0  0  0
   18.2833   17.4226    8.6373 H   0  0  0  0  0  0  0  0  0  0  0  0
   18.1765   17.2797    6.8294 H   0  0  0  0  0  0  0  0  0  0  0  0
   20.8206   16.9042    9.7487 H   0  0  0  0  0  0  0  0  0  0  0  0
   24.8090   16.4279   11.2188 H   0  0  0  0  0  0  0  0  0  0  0  0
   24.1724   18.2454   13.2671 H   0  0  0  0  0  0  0  0  0  0  0  0
   26.7680   17.8412   14.3647 H   0  0  0  0  0  0  0  0  0  0  0  0
   24.6336   18.3017   16.4953 H   0  0  0  0  0  0  0  0  0  0  0  0
   25.6870   16.8577   16.3208 H   0  0  0  0  0  0  0  0  0  0  0  0
   26.5331   18.4734   18.0325 H   0  0  0  0  0  0  0  0  0  0  0  0
   27.6821   18.2298   16.6561 H   0  0  0  0  0  0  0  0  0  0  0  0
   26.7212   21.4651   15.1255 H   0  0  0  0  0  0  0  0  0  0  0  0
   19.5472   13.4491   14.5348 H   0  0  0  0  0  0  0  0  0  0  0  0
   21.1714   14.4064   10.0653 H   0  0  0  0  0  0  0  0  0  0  0  0
   22.4786   15.5337    6.0165 H   0  0  0  0  0  0  0  0  0  0  0  0
  1  2  1  0
  2  3  1  0
  3  4  2  0
  4  5  1  0
  5  6  1  0
  6  7  2  0
  6  8  2  0
  6  9  1  0
  9 10  2  0
 10 11  1  0
 11 12  1  0
 12 13  2  0
 12 14  1  0
 14 15  1  0
 15 16  1  0
 16 17  1  0
 17 18  1  0
 18 19  2  0
 18 20  1  0
 20 21  1  0
 21 22  2  0
 11 23  2  0
 23 24  1  0
 24 25  1  0
 25 26  2  0
 26 27  1  0
 27 28  2  0
  5 29  1  0
 29 30  2  0
 30  3  1  0
 28  9  1  0
 21 15  1  0
 27 23  1  0
  1 31  1  0
  1 32  1  0
  1 33  1  0
  2 34  1  0
  2 35  1  0
  4 36  1  0
 10 37  1  0
 14 38  1  0
 15 39  1  6
 16 40  1  0
 16 41  1  0
 17 42  1  0
 17 43  1  0
 20 44  1  0
 25 45  1  0
 28 46  1  0
 29 47  1  0
M  END
>  <meeko>  (196) 
{"is_sidechain": [true], "free_energy": -11.12, "intermolecular_energy": 0.0, "internal_energy": -11.12, "cluster_size": 19, "cluster_id": 1, "rank_in_cluster": 1}

>  <_RMSD_MCS_to_ref>  (196) 
0.5766806356689591

$$$$
ligand
     RDKit          3D

 52 56  0  0  0  0  0  0  0  0999 V2000
   18.9090   19.1540    7.5370 C   0  0  0  0  0  0  0  0  0  0  0  0
   18.7730   17.6460    7.6780 C   0  0  0  0  0  0  0  0  0  0  0  0
   19.9250   16.9210    7.0770 C   0  0  0  0  0  0  0  0  0  0  0  0
   20.8970   17.3970    6.2190 C   0  0  0  0  0  0  0  0  0  0  0  0
   21.6970   16.3140    5.9850 N   0  0  0  0  0  0  0  0  0  0  0  0
   23.1420   16.3160    5.1290 S   0  0  0  0  0  6  0  0  0  0  0  0
   23.0260   15.2470    4.1530 O   0  0  0  0  0  0  0  0  0  0  0  0
   23.3600   17.6990    4.7390 O   0  0  0  0  0  0  0  0  0  0  0  0
   24.3870   15.8680    6.3070 C   0  0  0  0  0  0  0  0  0  0  0  0
   25.4810   15.1260    5.9020 C   0  0  0  0  0  0  0  0  0  0  0  0
   26.4240   14.8140    6.8740 C   0  0  0  0  0  0  0  0  0  0  0  0
   26.2400   15.2540    8.1960 C   0  0  0  0  0  0  0  0  0  0  0  0
   27.1660   14.9630    9.2060 C   0  0  0  0  0  0  0  0  0  0  0  0
   26.9520   15.4180   10.5080 C   0  0  0  0  0  0  0  0  0  0  0  0
   25.8130   16.1680   10.8210 C   0  0  0  0  0  0  0  0  0  0  0  0
   25.6110   16.6310   12.1840 C   0  0  0  0  0  0  0  0  0  0  0  0
   25.1300   17.8570   12.5920 C   0  0  0  0  0  0  0  0  0  0  0  0
   25.1460   17.7830   13.9540 N   0  0  0  0  0  0  0  0  0  0  0  0
   24.7140   18.7900   14.9030 C   0  0  1  0  0  0  0  0  0  0  0  0
   24.9890   18.4330   16.3660 C   0  0  0  0  0  0  0  0  0  0  0  0
   26.4460   18.6360   16.7530 C   0  0  0  0  0  0  0  0  0  0  0  0
   26.9430   20.0090   16.3710 C   0  0  0  0  0  0  0  0  0  0  0  0
   27.8330   20.5810   16.9910 O   0  0  0  0  0  0  0  0  0  0  0  0
   26.3660   20.5880   15.2700 N   0  0  0  0  0  0  0  0  0  0  0  0
   25.2890   20.1430   14.5410 C   0  0  0  0  0  0  0  0  0  0  0  0
   24.8220   20.8330   13.6350 O   0  0  0  0  0  0  0  0  0  0  0  0
   25.5950   16.5870   14.3720 N   0  0  0  0  0  0  0  0  0  0  0  0
   25.8850   15.8730   13.2950 N   0  0  0  0  0  0  0  0  0  0  0  0
   24.8950   16.4500    9.7990 C   0  0  0  0  0  0  0  0  0  0  0  0
   25.0850   16.0090    8.4970 C   0  0  0  0  0  0  0  0  0  0  0  0
   24.1670   16.3140    7.5680 N   0  0  0  0  0  0  0  0  0  0  0  0
   21.2370   15.2580    6.7070 C   0  0  0  0  0  0  0  0  0  0  0  0
   20.1490   15.5900    7.3720 N   0  0  0  0  0  0  0  0  0  0  0  0
   18.9504   19.6134    8.5356 H   0  0  0  0  0  0  0  0  0  0  0  0
   19.8320   19.3891    6.9867 H   0  0  0  0  0  0  0  0  0  0  0  0
   18.0430   19.5504    6.9867 H   0  0  0  0  0  0  0  0  0  0  0  0
   18.7139   17.3937    8.7470 H   0  0  0  0  0  0  0  0  0  0  0  0
   17.8625   17.3368    7.1438 H   0  0  0  0  0  0  0  0  0  0  0  0
   21.0030   18.4151    5.8161 H   0  0  0  0  0  0  0  0  0  0  0  0
   25.5995   14.7978    4.8588 H   0  0  0  0  0  0  0  0  0  0  0  0
   27.3133   14.2234    6.6089 H   0  0  0  0  0  0  0  0  0  0  0  0
   28.0650   14.3738    8.9722 H   0  0  0  0  0  0  0  0  0  0  0  0
   27.6848   15.1851   11.2946 H   0  0  0  0  0  0  0  0  0  0  0  0
   24.8076   18.7005   11.9639 H   0  0  0  0  0  0  0  0  0  0  0  0
   23.6177   18.8338   14.8238 H   0  0  0  0  0  0  0  0  0  0  0  0
   24.3619   19.0692   17.0079 H   0  0  0  0  0  0  0  0  0  0  0  0
   24.7541   17.3666   16.4989 H   0  0  0  0  0  0  0  0  0  0  0  0
   26.5456   18.5117   17.8414 H   0  0  0  0  0  0  0  0  0  0  0  0
   27.0495   17.8920   16.2124 H   0  0  0  0  0  0  0  0  0  0  0  0
   26.7939   21.4680   14.9485 H   0  0  0  0  0  0  0  0  0  0  0  0
   23.9968   17.0388   10.0367 H   0  0  0  0  0  0  0  0  0  0  0  0
   21.7078   14.2642    6.7325 H   0  0  0  0  0  0  0  0  0  0  0  0
  1  2  1  0
  2  3  1  0
  3  4  2  0
  4  5  1  0
  5  6  1  0
  6  7  2  0
  6  8  2  0
  6  9  1  0
  9 10  2  0
 10 11  1  0
 11 12  2  0
 12 13  1  0
 13 14  2  0
 14 15  1  0
 15 16  1  0
 16 17  2  0
 17 18  1  0
 18 19  1  0
 19 20  1  0
 20 21  1  0
 21 22  1  0
 22 23  2  0
 22 24  1  0
 24 25  1  0
 25 26  2  0
 18 27  1  0
 27 28  2  0
 15 29  2  0
 29 30  1  0
 30 31  2  0
  5 32  1  0
 32 33  2  0
 33  3  1  0
 31  9  1  0
 30 12  1  0
 28 16  1  0
 25 19  1  0
  1 34  1  0
  1 35  1  0
  1 36  1  0
  2 37  1  0
  2 38  1  0
  4 39  1  0
 10 40  1  0
 11 41  1  0
 13 42  1  0
 14 43  1  0
 17 44  1  0
 19 45  1  1
 20 46  1  0
 20 47  1  0
 21 48  1  0
 21 49  1  0
 24 50  1  0
 29 51  1  0
 32 52  1  0
M  END
>  <meeko>  (197) 
{"is_sidechain": [true], "free_energy": -11.12, "intermolecular_energy": 0.0, "internal_energy": -11.12, "cluster_size": 20, "cluster_id": 1, "rank_in_cluster": 1}

>  <_RMSD_MCS_to_ref>  (197) 
0.6504208039586546

$$$$
ligand
     RDKit          3D

 53 57  0  0  0  0  0  0  0  0999 V2000
   18.9090   19.1540    7.5370 C   0  0  0  0  0  0  0  0  0  0  0  0
   18.7730   17.6460    7.6780 C   0  0  0  0  0  0  0  0  0  0  0  0
   20.0900   16.9560    7.6250 C   0  0  0  0  0  0  0  0  0  0  0  0
   20.5850   15.9700    8.4580 C   0  0  0  0  0  0  0  0  0  0  0  0
   21.8330   15.7190    7.9730 N   0  0  0  0  0  0  0  0  0  0  0  0
   22.9730   14.6660    8.6100 S   0  0  0  0  0  6  0  0  0  0  0  0
   22.2790   13.7610    9.5060 O   0  0  0  0  0  0  0  0  0  0  0  0
   23.7080   14.1900    7.4540 O   0  0  0  0  0  0  0  0  0  0  0  0
   24.0580   15.6740    9.5950 C   0  0  0  0  0  0  0  0  0  0  0  0
   23.6430   15.9460   10.9100 C   0  0  0  0  0  0  0  0  0  0  0  0
   24.4820   16.7040   11.7010 C   0  0  0  0  0  0  0  0  0  0  0  0
   25.6950   17.2030   11.2460 C   0  0  0  0  0  0  0  0  0  0  0  0
   26.1060   16.9520    9.9480 C   0  0  0  0  0  0  0  0  0  0  0  0
   25.2840   16.1840    9.0930 C   0  0  0  0  0  0  0  0  0  0  0  0
   25.7790   15.9760    7.7350 C   0  0  0  0  0  0  0  0  0  0  0  0
   26.0090   16.8790    6.7140 C   0  0  0  0  0  0  0  0  0  0  0  0
   26.4290   16.1040    5.6190 C   0  0  0  0  0  0  0  0  0  0  0  0
   26.4580   14.8030    5.9050 N   0  0  0  0  0  0  0  0  0  0  0  0
   26.0440   14.7430    7.1820 N   0  0  0  0  0  0  0  0  0  0  0  0
   26.3580   18.0010   12.3210 C   0  0  0  0  0  0  0  0  0  0  0  0
   25.4540   17.8210   13.4490 N   0  0  0  0  0  0  0  0  0  0  0  0
   25.5190   18.6230   14.6660 C   0  0  1  0  0  0  0  0  0  0  0  0
   26.4080   17.9950   15.7340 C   0  0  0  0  0  0  0  0  0  0  0  0
   26.3570   18.8430   16.9960 C   0  0  0  0  0  0  0  0  0  0  0  0
   26.7460   20.2750   16.7050 C   0  0  0  0  0  0  0  0  0  0  0  0
   27.3890   20.9550   17.4990 O   0  0  0  0  0  0  0  0  0  0  0  0
   26.3290   20.7920   15.5060 N   0  0  0  0  0  0  0  0  0  0  0  0
   26.0080   20.0560   14.3880 C   0  0  0  0  0  0  0  0  0  0  0  0
   26.1310   20.5400   13.2660 O   0  0  0  0  0  0  0  0  0  0  0  0
   24.3030   17.1340   13.0920 C   0  0  0  0  0  0  0  0  0  0  0  0
   23.3190   16.9100   13.7680 O   0  0  0  0  0  0  0  0  0  0  0  0
   22.0480   16.4870    6.8730 C   0  0  0  0  0  0  0  0  0  0  0  0
   21.0150   17.2720    6.6500 N   0  0  0  0  0  0  0  0  0  0  0  0
   18.9504   19.6134    8.5356 H   0  0  0  0  0  0  0  0  0  0  0  0
   19.8320   19.3891    6.9867 H   0  0  0  0  0  0  0  0  0  0  0  0
   18.0430   19.5504    6.9867 H   0  0  0  0  0  0  0  0  0  0  0  0
   18.2942   17.4221    8.6427 H   0  0  0  0  0  0  0  0  0  0  0  0
   18.1663   17.2813    6.8360 H   0  0  0  0  0  0  0  0  0  0  0  0
   20.0855   15.4965    9.3161 H   0  0  0  0  0  0  0  0  0  0  0  0
   22.6842   15.5683   11.2947 H   0  0  0  0  0  0  0  0  0  0  0  0
   27.0659   17.3478    9.5848 H   0  0  0  0  0  0  0  0  0  0  0  0
   25.8889   17.9718    6.7506 H   0  0  0  0  0  0  0  0  0  0  0  0
   26.7021   16.5232    4.6393 H   0  0  0  0  0  0  0  0  0  0  0  0
   25.9352   13.8584    7.6984 H   0  0  0  0  0  0  0  0  0  0  0  0
   27.3600   17.6077   12.5477 H   0  0  0  0  0  0  0  0  0  0  0  0
   26.5174   19.0552   12.0501 H   0  0  0  0  0  0  0  0  0  0  0  0
   24.4870   18.6600   15.0450 H   0  0  0  0  0  0  0  0  0  0  0  0
   26.0497   16.9797   15.9593 H   0  0  0  0  0  0  0  0  0  0  0  0
   27.4437   17.9442   15.3669 H   0  0  0  0  0  0  0  0  0  0  0  0
   25.3344   18.8236   17.4009 H   0  0  0  0  0  0  0  0  0  0  0  0
   27.0690   18.4285   17.7248 H   0  0  0  0  0  0  0  0  0  0  0  0
   26.2492   21.8165   15.4358 H   0  0  0  0  0  0  0  0  0  0  0  0
   22.9577   16.4570    6.2553 H   0  0  0  0  0  0  0  0  0  0  0  0
  1  2  1  0
  2  3  1  0
  3  4  2  0
  4  5  1  0
  5  6  1  0
  6  7  2  0
  6  8  2  0
  6  9  1  0
  9 10  2  0
 10 11  1  0
 11 12  2  0
 12 13  1  0
 13 14  2  0
 14 15  1  0
 15 16  2  0
 16 17  1  0
 17 18  2  0
 18 19  1  0
 12 20  1  0
 20 21  1  0
 21 22  1  0
 22 23  1  0
 23 24  1  0
 24 25  1  0
 25 26  2  0
 25 27  1  0
 27 28  1  0
 28 29  2  0
 21 30  1  0
 30 31  2  0
  5 32  1  0
 32 33  2  0
 33  3  1  0
 14  9  1  0
 19 15  1  0
 28 22  1  0
 30 11  1  0
  1 34  1  0
  1 35  1  0
  1 36  1  0
  2 37  1  0
  2 38  1  0
  4 39  1  0
 10 40  1  0
 13 41  1  0
 16 42  1  0
 17 43  1  0
 19 44  1  0
 20 45  1  0
 20 46  1  0
 22 47  1  1
 23 48  1  0
 23 49  1  0
 24 50  1  0
 24 51  1  0
 27 52  1  0
 32 53  1  0
M  END
>  <meeko>  (198) 
{"is_sidechain": [true], "free_energy": -11.12, "intermolecular_energy": 0.0, "internal_energy": -11.12, "cluster_size": 17, "cluster_id": 1, "rank_in_cluster": 1}

>  <_RMSD_MCS_to_ref>  (198) 
0.8554350095451764

$$$$
ligand
     RDKit          3D

 52 56  0  0  0  0  0  0  0  0999 V2000
   18.9090   19.1540    7.5370 C   0  0  0  0  0  0  0  0  0  0  0  0
   18.7730   17.6460    7.6780 C   0  0  0  0  0  0  0  0  0  0  0  0
   20.0890   16.9560    7.6070 C   0  0  0  0  0  0  0  0  0  0  0  0
   20.6580   16.0730    8.5040 C   0  0  0  0  0  0  0  0  0  0  0  0
   21.8570   15.7490    7.9370 N   0  0  0  0  0  0  0  0  0  0  0  0
   22.9770   14.6790    8.5800 S   0  0  0  0  0  6  0  0  0  0  0  0
   22.2660   13.7750    9.4650 O   0  0  0  0  0  0  0  0  0  0  0  0
   23.7250   14.1960    7.4340 O   0  0  0  0  0  0  0  0  0  0  0  0
   24.0550   15.6700    9.5860 C   0  0  0  0  0  0  0  0  0  0  0  0
   23.6140   15.9740   10.8850 C   0  0  0  0  0  0  0  0  0  0  0  0
   24.4610   16.7080   11.6910 C   0  0  0  0  0  0  0  0  0  0  0  0
   25.7060   17.1520   11.2650 C   0  0  0  0  0  0  0  0  0  0  0  0
   26.1420   16.8710    9.9810 C   0  0  0  0  0  0  0  0  0  0  0  0
   25.3080   16.1340    9.1090 C   0  0  0  0  0  0  0  0  0  0  0  0
   25.8410   15.8810    7.7750 C   0  0  0  0  0  0  0  0  0  0  0  0
   26.1150   16.7980    6.8700 N   0  0  0  0  0  0  0  0  0  0  0  0
   26.5560   16.0750    5.7990 C   0  0  0  0  0  0  0  0  0  0  0  0
   26.5510   14.7530    5.9730 N   0  0  0  0  0  0  0  0  0  0  0  0
   26.0790   14.6470    7.2250 N   0  0  0  0  0  0  0  0  0  0  0  0
   26.3790   17.9230   12.3540 C   0  0  0  0  0  0  0  0  0  0  0  0
   25.4340   17.7950   13.4570 N   0  0  0  0  0  0  0  0  0  0  0  0
   25.5010   18.6060   14.6680 C   0  0  1  0  0  0  0  0  0  0  0  0
   26.3860   17.9830   15.7430 C   0  0  0  0  0  0  0  0  0  0  0  0
   26.3380   18.8430   16.9960 C   0  0  0  0  0  0  0  0  0  0  0  0
   26.7340   20.2700   16.6950 C   0  0  0  0  0  0  0  0  0  0  0  0
   27.3760   20.9550   17.4850 O   0  0  0  0  0  0  0  0  0  0  0  0
   26.3280   20.7770   15.4860 N   0  0  0  0  0  0  0  0  0  0  0  0
   25.9990   20.0320   14.3760 C   0  0  0  0  0  0  0  0  0  0  0  0
   26.1210   20.5080   13.2500 O   0  0  0  0  0  0  0  0  0  0  0  0
   24.2650   17.1550   13.0740 C   0  0  0  0  0  0  0  0  0  0  0  0
   23.2540   16.9790   13.7220 O   0  0  0  0  0  0  0  0  0  0  0  0
   21.9990   16.4250    6.7700 C   0  0  0  0  0  0  0  0  0  0  0  0
   20.9350   17.1660    6.5360 N   0  0  0  0  0  0  0  0  0  0  0  0
   18.9504   19.6134    8.5356 H   0  0  0  0  0  0  0  0  0  0  0  0
   19.8320   19.3891    6.9867 H   0  0  0  0  0  0  0  0  0  0  0  0
   18.0430   19.5504    6.9867 H   0  0  0  0  0  0  0  0  0  0  0  0
   18.3066   17.4212    8.6486 H   0  0  0  0  0  0  0  0  0  0  0  0
   18.1546   17.2824    6.8441 H   0  0  0  0  0  0  0  0  0  0  0  0
   20.2410   15.7135    9.4563 H   0  0  0  0  0  0  0  0  0  0  0  0
   22.6303   15.6395   11.2463 H   0  0  0  0  0  0  0  0  0  0  0  0
   27.1292   17.2184    9.6422 H   0  0  0  0  0  0  0  0  0  0  0  0
   26.8901   16.5473    4.8634 H   0  0  0  0  0  0  0  0  0  0  0  0
   25.9163   13.7534    7.7107 H   0  0  0  0  0  0  0  0  0  0  0  0
   27.3531   17.4813   12.6110 H   0  0  0  0  0  0  0  0  0  0  0  0
   26.5999   18.9659   12.0828 H   0  0  0  0  0  0  0  0  0  0  0  0
   24.4693   18.6509   15.0469 H   0  0  0  0  0  0  0  0  0  0  0  0
   26.0222   16.9718   15.9775 H   0  0  0  0  0  0  0  0  0  0  0  0
   27.4218   17.9229   15.3775 H   0  0  0  0  0  0  0  0  0  0  0  0
   25.3148   18.8321   17.3996 H   0  0  0  0  0  0  0  0  0  0  0  0
   27.0483   18.4315   17.7283 H   0  0  0  0  0  0  0  0  0  0  0  0
   26.2640   21.8016   15.4020 H   0  0  0  0  0  0  0  0  0  0  0  0
   22.8782   16.3634    6.1118 H   0  0  0  0  0  0  0  0  0  0  0  0
  1  2  1  0
  2  3  1  0
  3  4  2  0
  4  5  1  0
  5  6  1  0
  6  7  2  0
  6  8  2  0
  6  9  1  0
  9 10  2  0
 10 11  1  0
 11 12  2  0
 12 13  1  0
 13 14  2  0
 14 15  1  0
 15 16  2  0
 16 17  1  0
 17 18  2  0
 18 19  1  0
 12 20  1  0
 20 21  1  0
 21 22  1  0
 22 23  1  0
 23 24  1  0
 24 25  1  0
 25 26  2  0
 25 27  1  0
 27 28  1  0
 28 29  2  0
 21 30  1  0
 30 31  2  0
  5 32  1  0
 32 33  2  0
 33  3  1  0
 14  9  1  0
 19 15  1  0
 28 22  1  0
 30 11  1  0
  1 34  1  0
  1 35  1  0
  1 36  1  0
  2 37  1  0
  2 38  1  0
  4 39  1  0
 10 40  1  0
 13 41  1  0
 17 42  1  0
 19 43  1  0
 20 44  1  0
 20 45  1  0
 22 46  1  1
 23 47  1  0
 23 48  1  0
 24 49  1  0
 24 50  1  0
 27 51  1  0
 32 52  1  0
M  END
>  <meeko>  (199) 
{"is_sidechain": [true], "free_energy": -11.12, "intermolecular_energy": 0.0, "internal_energy": -11.12, "cluster_size": 16, "cluster_id": 1, "rank_in_cluster": 1}

>  <_RMSD_MCS_to_ref>  (199) 
0.8393594780148332

$$$$
ligand
     RDKit          3D

 56 60  0  0  0  0  0  0  0  0999 V2000
   18.9090   19.1540    7.5370 C   0  0  0  0  0  0  0  0  0  0  0  0
   18.7730   17.6460    7.6780 C   0  0  0  0  0  0  0  0  0  0  0  0
   19.8660   16.9160    6.9790 C   0  0  0  0  0  0  0  0  0  0  0  0
   21.2320   17.0950    7.0810 C   0  0  0  0  0  0  0  0  0  0  0  0
   21.7620   16.1300    6.2700 N   0  0  0  0  0  0  0  0  0  0  0  0
   23.3740   16.0380    5.7820 S   0  0  0  0  0  6  0  0  0  0  0  0
   23.6820   17.3160    5.1760 O   0  0  0  0  0  0  0  0  0  0  0  0
   23.4860   14.7810    5.0660 O   0  0  0  0  0  0  0  0  0  0  0  0
   24.2540   15.9110    7.3140 C   0  0  0  0  0  0  0  0  0  0  0  0
   25.6360   15.7340    7.3240 C   0  0  0  0  0  0  0  0  0  0  0  0
   26.2900   15.5540    8.5420 C   0  0  0  0  0  0  0  0  0  0  0  0
   25.5610   15.5290    9.7380 C   0  0  0  0  0  0  0  0  0  0  0  0
   24.1700   15.7080    9.7380 C   0  0  0  0  0  0  0  0  0  0  0  0
   23.3790   15.6070   10.9720 C   0  0  0  0  0  0  0  0  0  0  0  0
   22.2740   14.7430   11.0770 C   0  0  0  0  0  0  0  0  0  0  0  0
   21.5520   14.6080   12.2820 C   0  0  0  0  0  0  0  0  0  0  0  0
   21.9200   15.3320   13.4170 C   0  0  0  0  0  0  0  0  0  0  0  0
   22.9970   16.1870   13.3000 C   0  0  0  0  0  0  0  0  0  0  0  0
   23.7090   16.3420   12.1110 C   0  0  0  0  0  0  0  0  0  0  0  0
   24.7980   17.3460   12.3100 C   0  0  0  0  0  0  0  0  0  0  0  0
   24.6380   17.7400   13.7000 N   0  0  0  0  0  0  0  0  0  0  0  0
   25.6900   18.4350   14.4360 C   0  0  2  0  0  0  0  0  0  0  0  0
   25.7440   17.9860   15.8940 C   0  0  0  0  0  0  0  0  0  0  0  0
   26.8720   18.7090   16.6100 C   0  0  0  0  0  0  0  0  0  0  0  0
   26.7110   20.2060   16.5070 C   0  0  0  0  0  0  0  0  0  0  0  0
   27.0500   20.9610   17.4130 O   0  0  0  0  0  0  0  0  0  0  0  0
   26.2050   20.6840   15.3240 N   0  0  0  0  0  0  0  0  0  0  0  0
   25.5170   19.9660   14.3730 C   0  0  0  0  0  0  0  0  0  0  0  0
   24.8340   20.5470   13.5300 O   0  0  0  0  0  0  0  0  0  0  0  0
   23.6230   17.0340   14.3260 C   0  0  0  0  0  0  0  0  0  0  0  0
   23.2950   17.0720   15.4960 O   0  0  0  0  0  0  0  0  0  0  0  0
   23.5320   15.9430    8.5110 C   0  0  0  0  0  0  0  0  0  0  0  0
   20.7450   15.4430    5.6830 C   0  0  0  0  0  0  0  0  0  0  0  0
   19.5780   15.9120    6.0750 N   0  0  0  0  0  0  0  0  0  0  0  0
   18.9504   19.6134    8.5356 H   0  0  0  0  0  0  0  0  0  0  0  0
   19.8320   19.3891    6.9867 H   0  0  0  0  0  0  0  0  0  0  0  0
   18.0430   19.5504    6.9867 H   0  0  0  0  0  0  0  0  0  0  0  0
   18.8000   17.3861    8.7465 H   0  0  0  0  0  0  0  0  0  0  0  0
   17.8193   17.3480    7.2180 H   0  0  0  0  0  0  0  0  0  0  0  0
   21.7713   17.8442    7.6792 H   0  0  0  0  0  0  0  0  0  0  0  0
   26.2042   15.7363    6.3821 H   0  0  0  0  0  0  0  0  0  0  0  0
   27.3829   15.4311    8.5640 H   0  0  0  0  0  0  0  0  0  0  0  0
   26.0869   15.3667   10.6904 H   0  0  0  0  0  0  0  0  0  0  0  0
   21.9650   14.1581   10.1981 H   0  0  0  0  0  0  0  0  0  0  0  0
   20.6906   13.9254   12.3271 H   0  0  0  0  0  0  0  0  0  0  0  0
   21.3740   15.2255   14.3660 H   0  0  0  0  0  0  0  0  0  0  0  0
   25.7865   16.8945   12.1395 H   0  0  0  0  0  0  0  0  0  0  0  0
   24.7354   18.1937   11.6118 H   0  0  0  0  0  0  0  0  0  0  0  0
   26.6394   18.1699   13.9477 H   0  0  0  0  0  0  0  0  0  0  0  0
   24.7884   18.2220   16.3851 H   0  0  0  0  0  0  0  0  0  0  0  0
   25.9220   16.9013   15.9352 H   0  0  0  0  0  0  0  0  0  0  0  0
   26.8675   18.4196   17.6712 H   0  0  0  0  0  0  0  0  0  0  0  0
   27.8236   18.4270   16.1358 H   0  0  0  0  0  0  0  0  0  0  0  0
   26.3560   21.6838   15.1278 H   0  0  0  0  0  0  0  0  0  0  0  0
   22.4527   16.1546    8.4903 H   0  0  0  0  0  0  0  0  0  0  0  0
   20.8788   14.6098    4.9775 H   0  0  0  0  0  0  0  0  0  0  0  0
  1  2  1  0
  2  3  1  0
  3  4  2  0
  4  5  1  0
  5  6  1  0
  6  7  2  0
  6  8  2  0
  6  9  1  0
  9 10  2  0
 10 11  1  0
 11 12  2  0
 12 13  1  0
 13 14  1  0
 14 15  2  0
 15 16  1  0
 16 17  2  0
 17 18  1  0
 18 19  2  0
 19 20  1  0
 20 21  1  0
 21 22  1  0
 22 23  1  0
 23 24  1  0
 24 25  1  0
 25 26  2  0
 25 27  1  0
 27 28  1  0
 28 29  2  0
 21 30  1  0
 30 31  2  0
 13 32  2  0
  5 33  1  0
 33 34  2  0
 34  3  1  0
 32  9  1  0
 19 14  1  0
 28 22  1  0
 30 18  1  0
  1 35  1  0
  1 36  1  0
  1 37  1  0
  2 38  1  0
  2 39  1  0
  4 40  1  0
 10 41  1  0
 11 42  1  0
 12 43  1  0
 15 44  1  0
 16 45  1  0
 17 46  1  0
 20 47  1  0
 20 48  1  0
 22 49  1  6
 23 50  1  0
 23 51  1  0
 24 52  1  0
 24 53  1  0
 27 54  1  0
 32 55  1  0
 33 56  1  0
M  END
>  <meeko>  (200) 
{"is_sidechain": [true], "free_energy": -11.12, "intermolecular_energy": 0.0, "internal_energy": -11.12, "cluster_size": 9, "cluster_id": 1, "rank_in_cluster": 1}

>  <_RMSD_MCS_to_ref>  (200) 
1.5783061243694845

$$$$
ligand
     RDKit          3D

 55 59  0  0  0  0  0  0  0  0999 V2000
   18.9090   19.1530    7.5370 C   0  0  0  0  0  0  0  0  0  0  0  0
   18.7730   17.6470    7.6780 C   0  0  0  0  0  0  0  0  0  0  0  0
   19.9600   16.9210    7.1520 C   0  0  0  0  0  0  0  0  0  0  0  0
   21.1860   16.7230    7.7550 C   0  0  0  0  0  0  0  0  0  0  0  0
   21.8970   16.0070    6.8380 N   0  0  0  0  0  0  0  0  0  0  0  0
   23.4900   15.4990    6.9710 S   0  0  0  0  0  6  0  0  0  0  0  0
   24.0950   16.5160    7.8130 O   0  0  0  0  0  0  0  0  0  0  0  0
   23.9600   15.2490    5.6190 O   0  0  0  0  0  0  0  0  0  0  0  0
   23.3970   13.9480    7.8510 C   0  0  0  0  0  0  0  0  0  0  0  0
   22.7840   12.9810    7.1070 N   0  0  0  0  0  0  0  0  0  0  0  0
   22.6570   11.7610    7.6620 C   0  0  0  0  0  0  0  0  0  0  0  0
   23.1220   11.4520    8.9250 C   0  0  0  0  0  0  0  0  0  0  0  0
   23.7530   12.4560    9.6610 C   0  0  0  0  0  0  0  0  0  0  0  0
   23.9100   13.7520    9.1360 C   0  0  0  0  0  0  0  0  0  0  0  0
   24.5880   14.7600    9.9580 C   0  0  0  0  0  0  0  0  0  0  0  0
   25.8340   15.3000    9.5600 C   0  0  0  0  0  0  0  0  0  0  0  0
   26.4790   16.2800   10.3200 C   0  0  0  0  0  0  0  0  0  0  0  0
   25.8460   16.7140   11.4680 C   0  0  0  0  0  0  0  0  0  0  0  0
   24.6160   16.2120   11.8820 C   0  0  0  0  0  0  0  0  0  0  0  0
   23.9740   15.2370   11.1360 C   0  0  0  0  0  0  0  0  0  0  0  0
   24.2000   16.8660   13.1580 C   0  0  0  0  0  0  0  0  0  0  0  0
   25.2480   17.8570   13.3600 N   0  0  0  0  0  0  0  0  0  0  0  0
   25.3990   18.6360   14.5840 C   0  0  1  0  0  0  0  0  0  0  0  0
   26.3210   17.9600   15.5960 C   0  0  0  0  0  0  0  0  0  0  0  0
   26.3500   18.7780   16.8780 C   0  0  0  0  0  0  0  0  0  0  0  0
   26.7650   20.2050   16.6040 C   0  0  0  0  0  0  0  0  0  0  0  0
   27.4430   20.8550   17.3950 O   0  0  0  0  0  0  0  0  0  0  0  0
   26.3280   20.7560   15.4270 N   0  0  0  0  0  0  0  0  0  0  0  0
   25.9100   20.0600   14.3140 C   0  0  0  0  0  0  0  0  0  0  0  0
   25.9640   20.5810   13.2030 O   0  0  0  0  0  0  0  0  0  0  0  0
   26.2730   17.7310   12.4350 C   0  0  0  0  0  0  0  0  0  0  0  0
   27.3260   18.3360   12.3940 O   0  0  0  0  0  0  0  0  0  0  0  0
   21.1060   15.7420    5.7650 C   0  0  0  0  0  0  0  0  0  0  0  0
   19.9350   16.3290    5.9020 N   0  0  0  0  0  0  0  0  0  0  0  0
   18.9505   19.6125    8.5356 H   0  0  0  0  0  0  0  0  0  0  0  0
   19.8320   19.3879    6.9867 H   0  0  0  0  0  0  0  0  0  0  0  0
   18.0430   19.5494    6.9867 H   0  0  0  0  0  0  0  0  0  0  0  0
   18.6514   17.4010    8.7432 H   0  0  0  0  0  0  0  0  0  0  0  0
   17.8982   17.3317    7.0903 H   0  0  0  0  0  0  0  0  0  0  0  0
   21.5141   17.0646    8.7478 H   0  0  0  0  0  0  0  0  0  0  0  0
   22.1583   10.9715    7.0807 H   0  0  0  0  0  0  0  0  0  0  0  0
   22.9983   10.4409    9.3402 H   0  0  0  0  0  0  0  0  0  0  0  0
   24.1338   12.2305   10.6680 H   0  0  0  0  0  0  0  0  0  0  0  0
   26.3049   14.9410    8.6330 H   0  0  0  0  0  0  0  0  0  0  0  0
   27.4533   16.6897   10.0153 H   0  0  0  0  0  0  0  0  0  0  0  0
   22.9996   14.8402   11.4572 H   0  0  0  0  0  0  0  0  0  0  0  0
   23.2146   17.3443   13.0568 H   0  0  0  0  0  0  0  0  0  0  0  0
   24.0936   16.1627   13.9971 H   0  0  0  0  0  0  0  0  0  0  0  0
   24.3873   18.6970   15.0115 H   0  0  0  0  0  0  0  0  0  0  0  0
   25.9476   16.9486   15.8143 H   0  0  0  0  0  0  0  0  0  0  0  0
   27.3370   17.8928   15.1799 H   0  0  0  0  0  0  0  0  0  0  0  0
   25.3463   18.7759   17.3282 H   0  0  0  0  0  0  0  0  0  0  0  0
   27.0824   18.3268   17.5636 H   0  0  0  0  0  0  0  0  0  0  0  0
   26.3106   21.7843   15.3697 H   0  0  0  0  0  0  0  0  0  0  0  0
   21.4020   15.1246    4.9040 H   0  0  0  0  0  0  0  0  0  0  0  0
  1  2  1  0
  2  3  1  0
  3  4  2  0
  4  5  1  0
  5  6  1  0
  6  7  2  0
  6  8  2  0
  6  9  1  0
  9 10  2  0
 10 11  1  0
 11 12  2  0
 12 13  1  0
 13 14  2  0
 14 15  1  0
 15 16  2  0
 16 17  1  0
 17 18  2  0
 18 19  1  0
 19 20  2  0
 19 21  1  0
 21 22  1  0
 22 23  1  0
 23 24  1  0
 24 25  1  0
 25 26  1  0
 26 27  2  0
 26 28  1  0
 28 29  1  0
 29 30  2  0
 22 31  1  0
 31 32  2  0
  5 33  1  0
 33 34  2  0
 34  3  1  0
 14  9  1  0
 20 15  1  0
 29 23  1  0
 31 18  1  0
  1 35  1  0
  1 36  1  0
  1 37  1  0
  2 38  1  0
  2 39  1  0
  4 40  1  0
 11 41  1  0
 12 42  1  0
 13 43  1  0
 16 44  1  0
 17 45  1  0
 20 46  1  0
 21 47  1  0
 21 48  1  0
 23 49  1  1
 24 50  1  0
 24 51  1  0
 25 52  1  0
 25 53  1  0
 28 54  1  0
 33 55  1  0
M  END
>  <meeko>  (201) 
{"is_sidechain": [true], "free_energy": -11.12, "intermolecular_energy": 0.0, "internal_energy": -11.12, "cluster_size": 20, "cluster_id": 1, "rank_in_cluster": 1}

>  <_RMSD_MCS_to_ref>  (201) 
1.982227072428047

$$$$
ligand
     RDKit          3D

 54 58  0  0  0  0  0  0  0  0999 V2000
   18.9090   19.1540    7.5370 C   0  0  0  0  0  0  0  0  0  0  0  0
   18.7730   17.6460    7.6780 C   0  0  0  0  0  0  0  0  0  0  0  0
   19.6410   16.9120    6.7180 C   0  0  0  0  0  0  0  0  0  0  0  0
   21.0180   16.9300    6.6050 C   0  0  0  0  0  0  0  0  0  0  0  0
   21.2820   16.0750    5.5730 N   0  0  0  0  0  0  0  0  0  0  0  0
   22.7740   15.8580    4.8260 S   0  0  0  0  0  6  0  0  0  0  0  0
   22.5650   14.8210    3.8310 O   0  0  0  0  0  0  0  0  0  0  0  0
   23.2400   17.1870    4.4790 O   0  0  0  0  0  0  0  0  0  0  0  0
   23.8300   15.2090    6.0870 C   0  0  0  0  0  0  0  0  0  0  0  0
   24.7940   14.2870    5.7690 C   0  0  0  0  0  0  0  0  0  0  0  0
   25.5330   13.8580    6.8400 C   0  0  0  0  0  0  0  0  0  0  0  0
   25.3370   14.2930    8.1020 N   0  0  0  0  0  0  0  0  0  0  0  0
   24.3610   15.1990    8.3040 C   0  0  0  0  0  0  0  0  0  0  0  0
   24.1120   15.6870    9.6760 C   0  0  0  0  0  0  0  0  0  0  0  0
   22.8660   15.4640   10.3230 C   0  0  0  0  0  0  0  0  0  0  0  0
   22.6080   15.9250   11.6200 C   0  0  0  0  0  0  0  0  0  0  0  0
   23.6180   16.6090   12.2620 C   0  0  0  0  0  0  0  0  0  0  0  0
   24.8520   16.8500   11.6690 C   0  0  0  0  0  0  0  0  0  0  0  0
   25.1100   16.3990   10.3840 C   0  0  0  0  0  0  0  0  0  0  0  0
   25.7270   17.6260   12.5960 C   0  0  0  0  0  0  0  0  0  0  0  0
   24.9060   17.7210   13.7970 N   0  0  0  0  0  0  0  0  0  0  0  0
   25.2190   18.6050   14.9140 C   0  0  1  0  0  0  0  0  0  0  0  0
   26.1960   17.9730   15.9020 C   0  0  0  0  0  0  0  0  0  0  0  0
   26.4000   18.9130   17.0810 C   0  0  0  0  0  0  0  0  0  0  0  0
   26.8640   20.2750   16.6190 C   0  0  0  0  0  0  0  0  0  0  0  0
   27.6540   20.9540   17.2670 O   0  0  0  0  0  0  0  0  0  0  0  0
   26.3390   20.7350   15.4380 N   0  0  0  0  0  0  0  0  0  0  0  0
   25.7860   19.9560   14.4460 C   0  0  0  0  0  0  0  0  0  0  0  0
   25.7740   20.3530   13.2830 O   0  0  0  0  0  0  0  0  0  0  0  0
   23.6330   17.2050   13.6030 C   0  0  0  0  0  0  0  0  0  0  0  0
   22.6910   17.2240   14.3710 O   0  0  0  0  0  0  0  0  0  0  0  0
   23.5850   15.6860    7.3250 N   0  0  0  0  0  0  0  0  0  0  0  0
   20.1080   15.6010    5.0790 C   0  0  0  0  0  0  0  0  0  0  0  0
   19.0880   16.0880    5.7560 N   0  0  0  0  0  0  0  0  0  0  0  0
   18.9504   19.6134    8.5356 H   0  0  0  0  0  0  0  0  0  0  0  0
   19.8320   19.3891    6.9867 H   0  0  0  0  0  0  0  0  0  0  0  0
   18.0430   19.5504    6.9867 H   0  0  0  0  0  0  0  0  0  0  0  0
   19.0550   17.3589    8.7017 H   0  0  0  0  0  0  0  0  0  0  0  0
   17.7281   17.3791    7.4613 H   0  0  0  0  0  0  0  0  0  0  0  0
   21.7377   17.5025    7.2086 H   0  0  0  0  0  0  0  0  0  0  0  0
   24.9594   13.9237    4.7440 H   0  0  0  0  0  0  0  0  0  0  0  0
   26.3285   13.1196    6.6614 H   0  0  0  0  0  0  0  0  0  0  0  0
   22.0794   14.9118    9.7879 H   0  0  0  0  0  0  0  0  0  0  0  0
   21.6377   15.7483   12.1072 H   0  0  0  0  0  0  0  0  0  0  0  0
   26.0864   16.5935    9.9162 H   0  0  0  0  0  0  0  0  0  0  0  0
   26.6665   17.0906   12.7977 H   0  0  0  0  0  0  0  0  0  0  0  0
   26.0336   18.6034   12.1953 H   0  0  0  0  0  0  0  0  0  0  0  0
   24.2599   18.7762   15.4248 H   0  0  0  0  0  0  0  0  0  0  0  0
   25.7879   17.0168   16.2612 H   0  0  0  0  0  0  0  0  0  0  0  0
   27.1599   17.7944   15.4029 H   0  0  0  0  0  0  0  0  0  0  0  0
   25.4484   19.0223   17.6218 H   0  0  0  0  0  0  0  0  0  0  0  0
   27.1720   18.4859   17.7379 H   0  0  0  0  0  0  0  0  0  0  0  0
   26.3603   21.7525   15.2792 H   0  0  0  0  0  0  0  0  0  0  0  0
   20.0213   14.9063    4.2306 H   0  0  0  0  0  0  0  0  0  0  0  0
  1  2  1  0
  2  3  1  0
  3  4  2  0
  4  5  1  0
  5  6  1  0
  6  7  2  0
  6  8  2  0
  6  9  1  0
  9 10  2  0
 10 11  1  0
 11 12  2  0
 12 13  1  0
 13 14  1  0
 14 15  2  0
 15 16  1  0
 16 17  2  0
 17 18  1  0
 18 19  2  0
 18 20  1  0
 20 21  1  0
 21 22  1  0
 22 23  1  0
 23 24  1  0
 24 25  1  0
 25 26  2  0
 25 27  1  0
 27 28  1  0
 28 29  2  0
 21 30  1  0
 30 31  2  0
 13 32  2  0
  5 33  1  0
 33 34  2  0
 34  3  1  0
 32  9  1  0
 19 14  1  0
 28 22  1  0
 30 17  1  0
  1 35  1  0
  1 36  1  0
  1 37  1  0
  2 38  1  0
  2 39  1  0
  4 40  1  0
 10 41  1  0
 11 42  1  0
 15 43  1  0
 16 44  1  0
 19 45  1  0
 20 46  1  0
 20 47  1  0
 22 48  1  1
 23 49  1  0
 23 50  1  0
 24 51  1  0
 24 52  1  0
 27 53  1  0
 33 54  1  0
M  END
>  <meeko>  (202) 
{"is_sidechain": [true], "free_energy": -11.12, "intermolecular_energy": 0.0, "internal_energy": -11.12, "cluster_size": 18, "cluster_id": 1, "rank_in_cluster": 1}

>  <_RMSD_MCS_to_ref>  (202) 
0.6983274064983183

$$$$
ligand
     RDKit          3D

 53 57  0  0  0  0  0  0  0  0999 V2000
   18.7970   18.8160    7.7190 C   0  0  0  0  0  0  0  0  0  0  0  0
   18.5280   17.3300    7.8810 C   0  0  0  0  0  0  0  0  0  0  0  0
   19.7280   16.5040    7.5780 C   0  0  0  0  0  0  0  0  0  0  0  0
   20.7720   16.1540    8.4110 C   0  0  0  0  0  0  0  0  0  0  0  0
   21.6000   15.4170    7.6180 N   0  0  0  0  0  0  0  0  0  0  0  0
   23.0780   14.7510    8.0450 S   0  0  0  0  0  6  0  0  0  0  0  0
   22.9590   13.3090    7.9410 O   0  0  0  0  0  0  0  0  0  0  0  0
   24.0500   15.4970    7.2660 O   0  0  0  0  0  0  0  0  0  0  0  0
   23.3180   15.1480    9.7630 C   0  0  0  0  0  0  0  0  0  0  0  0
   24.5200   15.8110   10.0960 C   0  0  0  0  0  0  0  0  0  0  0  0
   24.7370   16.1620   11.4150 C   0  0  0  0  0  0  0  0  0  0  0  0
   23.7850   15.8600   12.3800 C   0  0  0  0  0  0  0  0  0  0  0  0
   22.6030   15.2070   12.0860 C   0  0  0  0  0  0  0  0  0  0  0  0
   22.3550   14.8240   10.7550 C   0  0  0  0  0  0  0  0  0  0  0  0
   21.1020   14.1190   10.5020 C   0  0  0  0  0  0  0  0  0  0  0  0
   19.8500   14.2830   11.0660 C   0  0  0  0  0  0  0  0  0  0  0  0
   19.0430   13.2950   10.4740 C   0  0  0  0  0  0  0  0  0  0  0  0
   19.7200   12.5450    9.6060 N   0  0  0  0  0  0  0  0  0  0  0  0
   20.9690   13.0390    9.6580 N   0  0  0  0  0  0  0  0  0  0  0  0
   24.2700   16.3560   13.6720 C   0  0  0  0  0  0  0  0  0  0  0  0
   23.6280   16.3250   14.7030 O   0  0  0  0  0  0  0  0  0  0  0  0
   25.5430   16.8630   13.4540 N   0  0  0  0  0  0  0  0  0  0  0  0
   26.2770   17.6730   14.4210 C   0  0  2  0  0  0  0  0  0  0  0  0
   25.8120   17.4850   15.8650 C   0  0  0  0  0  0  0  0  0  0  0  0
   26.6820   18.3260   16.7870 C   0  0  0  0  0  0  0  0  0  0  0  0
   26.6570   19.7830   16.3880 C   0  0  0  0  0  0  0  0  0  0  0  0
   26.9100   20.6840   17.1820 O   0  0  0  0  0  0  0  0  0  0  0  0
   26.4160   20.0560   15.0640 N   0  0  0  0  0  0  0  0  0  0  0  0
   26.2420   19.1600   14.0340 C   0  0  0  0  0  0  0  0  0  0  0  0
   26.1680   19.5550   12.8710 O   0  0  0  0  0  0  0  0  0  0  0  0
   25.8850   16.8830   12.0390 C   0  0  0  0  0  0  0  0  0  0  0  0
   21.0460   15.2950    6.3840 C   0  0  0  0  0  0  0  0  0  0  0  0
   19.9140   15.9640    6.3190 N   0  0  0  0  0  0  0  0  0  0  0  0
   18.8816   19.2836    8.7111 H   0  0  0  0  0  0  0  0  0  0  0  0
   19.7359   18.9603    7.1643 H   0  0  0  0  0  0  0  0  0  0  0  0
   17.9683   19.2803    7.1643 H   0  0  0  0  0  0  0  0  0  0  0  0
   18.2185   17.1373    8.9188 H   0  0  0  0  0  0  0  0  0  0  0  0
   17.7378   17.0508    7.1685 H   0  0  0  0  0  0  0  0  0  0  0  0
   20.9051   16.4112    9.4722 H   0  0  0  0  0  0  0  0  0  0  0  0
   25.2669   16.0428    9.3225 H   0  0  0  0  0  0  0  0  0  0  0  0
   21.8702   14.9908   12.8773 H   0  0  0  0  0  0  0  0  0  0  0  0
   19.5493   15.0277   11.8177 H   0  0  0  0  0  0  0  0  0  0  0  0
   17.9756   13.1574   10.7016 H   0  0  0  0  0  0  0  0  0  0  0  0
   21.7530   12.6466    9.1174 H   0  0  0  0  0  0  0  0  0  0  0  0
   27.3150   17.3109   14.3832 H   0  0  0  0  0  0  0  0  0  0  0  0
   24.7632   17.8036   15.9577 H   0  0  0  0  0  0  0  0  0  0  0  0
   25.8969   16.4244   16.1443 H   0  0  0  0  0  0  0  0  0  0  0  0
   26.3090   18.2303   17.8174 H   0  0  0  0  0  0  0  0  0  0  0  0
   27.7179   17.9636   16.7127 H   0  0  0  0  0  0  0  0  0  0  0  0
   26.3584   21.0528   14.8109 H   0  0  0  0  0  0  0  0  0  0  0  0
   25.9578   17.9141   11.6628 H   0  0  0  0  0  0  0  0  0  0  0  0
   26.8605   16.4249   11.8187 H   0  0  0  0  0  0  0  0  0  0  0  0
   21.4820   14.7181    5.5551 H   0  0  0  0  0  0  0  0  0  0  0  0
  1  2  1  0
  2  3  1  0
  3  4  2  0
  4  5  1  0
  5  6  1  0
  6  7  2  0
  6  8  2  0
  6  9  1  0
  9 10  2  0
 10 11  1  0
 11 12  2  0
 12 13  1  0
 13 14  2  0
 14 15  1  0
 15 16  2  0
 16 17  1  0
 17 18  2  0
 18 19  1  0
 12 20  1  0
 20 21  2  0
 20 22  1  0
 22 23  1  0
 23 24  1  0
 24 25  1  0
 25 26  1  0
 26 27  2  0
 26 28  1  0
 28 29  1  0
 29 30  2  0
 22 31  1  0
  5 32  1  0
 32 33  2  0
 33  3  1  0
 14  9  1  0
 19 15  1  0
 29 23  1  0
 31 11  1  0
  1 34  1  0
  1 35  1  0
  1 36  1  0
  2 37  1  0
  2 38  1  0
  4 39  1  0
 10 40  1  0
 13 41  1  0
 16 42  1  0
 17 43  1  0
 19 44  1  0
 23 45  1  1
 24 46  1  0
 24 47  1  0
 25 48  1  0
 25 49  1  0
 28 50  1  0
 31 51  1  0
 31 52  1  0
 32 53  1  0
M  END
>  <meeko>  (203) 
{"is_sidechain": [true], "free_energy": -11.11, "intermolecular_energy": 0.0, "internal_energy": -11.11, "cluster_size": 14, "cluster_id": 1, "rank_in_cluster": 1}

>  <_RMSD_MCS_to_ref>  (203) 
0.9165442342480438

$$$$
ligand
     RDKit          3D

 55 59  0  0  0  0  0  0  0  0999 V2000
   18.7970   18.8170    7.7190 C   0  0  0  0  0  0  0  0  0  0  0  0
   18.5280   17.3290    7.8810 C   0  0  0  0  0  0  0  0  0  0  0  0
   19.7770   16.5220    7.8170 C   0  0  0  0  0  0  0  0  0  0  0  0
   20.3050   15.6600    8.7590 C   0  0  0  0  0  0  0  0  0  0  0  0
   21.4650   15.2150    8.1930 N   0  0  0  0  0  0  0  0  0  0  0  0
   22.4280   13.9680    8.7750 S   0  0  0  0  0  6  0  0  0  0  0  0
   21.5550   12.8180    8.9060 O   0  0  0  0  0  0  0  0  0  0  0  0
   23.6130   13.9530    7.9410 O   0  0  0  0  0  0  0  0  0  0  0  0
   22.8860   14.5200   10.3970 C   0  0  0  0  0  0  0  0  0  0  0  0
   24.0310   15.3010   10.5520 C   0  0  0  0  0  0  0  0  0  0  0  0
   24.3400   15.6950   11.8380 C   0  0  0  0  0  0  0  0  0  0  0  0
   23.5710   15.3460   12.9500 C   0  0  0  0  0  0  0  0  0  0  0  0
   22.4290   14.5610   12.8100 C   0  0  0  0  0  0  0  0  0  0  0  0
   21.6000   14.1790   13.9550 C   0  0  0  0  0  0  0  0  0  0  0  0
   21.3020   15.0980   14.9670 C   0  0  0  0  0  0  0  0  0  0  0  0
   20.5200   14.6880   16.0330 C   0  0  0  0  0  0  0  0  0  0  0  0
   20.0230   13.4410   16.1610 N   0  0  0  0  0  0  0  0  0  0  0  0
   20.3110   12.5680   15.1730 C   0  0  0  0  0  0  0  0  0  0  0  0
   21.0830   12.8850   14.0680 C   0  0  0  0  0  0  0  0  0  0  0  0
   22.1000   14.1410   11.5070 C   0  0  0  0  0  0  0  0  0  0  0  0
   24.1790   15.9340   14.1850 C   0  0  0  0  0  0  0  0  0  0  0  0
   25.3860   16.5730   13.6760 N   0  0  0  0  0  0  0  0  0  0  0  0
   26.1770   17.5230   14.4510 C   0  0  2  0  0  0  0  0  0  0  0  0
   25.9940   17.3480   15.9550 C   0  0  0  0  0  0  0  0  0  0  0  0
   26.9100   18.3170   16.6890 C   0  0  0  0  0  0  0  0  0  0  0  0
   26.6630   19.7420   16.2510 C   0  0  0  0  0  0  0  0  0  0  0  0
   26.7380   20.6900   17.0260 O   0  0  0  0  0  0  0  0  0  0  0  0
   26.3650   19.9320   14.9250 N   0  0  0  0  0  0  0  0  0  0  0  0
   25.8530   18.9810   14.0750 C   0  0  0  0  0  0  0  0  0  0  0  0
   25.1790   19.3120   13.1020 O   0  0  0  0  0  0  0  0  0  0  0  0
   25.4630   16.5190   12.2940 C   0  0  0  0  0  0  0  0  0  0  0  0
   26.2790   17.0440   11.5620 O   0  0  0  0  0  0  0  0  0  0  0  0
   21.5890   15.7520    6.9520 C   0  0  0  0  0  0  0  0  0  0  0  0
   20.5830   16.5610    6.6960 N   0  0  0  0  0  0  0  0  0  0  0  0
   18.8815   19.2845    8.7111 H   0  0  0  0  0  0  0  0  0  0  0  0
   19.7359   18.9616    7.1643 H   0  0  0  0  0  0  0  0  0  0  0  0
   17.9682   19.2812    7.1643 H   0  0  0  0  0  0  0  0  0  0  0  0
   18.0465   17.1600    8.8555 H   0  0  0  0  0  0  0  0  0  0  0  0
   17.8776   17.0111    7.0528 H   0  0  0  0  0  0  0  0  0  0  0  0
   19.8864   15.3933    9.7406 H   0  0  0  0  0  0  0  0  0  0  0  0
   24.6557   15.5882    9.6934 H   0  0  0  0  0  0  0  0  0  0  0  0
   21.6827   16.1288   14.9164 H   0  0  0  0  0  0  0  0  0  0  0  0
   20.2910   15.4211   16.8205 H   0  0  0  0  0  0  0  0  0  0  0  0
   19.9097   11.5467   15.2498 H   0  0  0  0  0  0  0  0  0  0  0  0
   21.2860   12.1317   13.2925 H   0  0  0  0  0  0  0  0  0  0  0  0
   21.2151   13.5065   11.3511 H   0  0  0  0  0  0  0  0  0  0  0  0
   23.5050   16.6706   14.6467 H   0  0  0  0  0  0  0  0  0  0  0  0
   24.3775   15.1897   14.9702 H   0  0  0  0  0  0  0  0  0  0  0  0
   27.2252   17.3058   14.1977 H   0  0  0  0  0  0  0  0  0  0  0  0
   24.9479   17.5554   16.2245 H   0  0  0  0  0  0  0  0  0  0  0  0
   26.2457   16.3156   16.2393 H   0  0  0  0  0  0  0  0  0  0  0  0
   26.7243   18.2368   17.7702 H   0  0  0  0  0  0  0  0  0  0  0  0
   27.9524   18.0564   16.4537 H   0  0  0  0  0  0  0  0  0  0  0  0
   26.5402   20.8682   14.5329 H   0  0  0  0  0  0  0  0  0  0  0  0
   22.4152   15.5403    6.2574 H   0  0  0  0  0  0  0  0  0  0  0  0
  1  2  1  0
  2  3  1  0
  3  4  2  0
  4  5  1  0
  5  6  1  0
  6  7  2  0
  6  8  2  0
  6  9  1  0
  9 10  2  0
 10 11  1  0
 11 12  2  0
 12 13  1  0
 13 14  1  0
 14 15  2  0
 15 16  1  0
 16 17  2  0
 17 18  1  0
 18 19  2  0
 13 20  2  0
 12 21  1  0
 21 22  1  0
 22 23  1  0
 23 24  1  0
 24 25  1  0
 25 26  1  0
 26 27  2  0
 26 28  1  0
 28 29  1  0
 29 30  2  0
 22 31  1  0
 31 32  2  0
  5 33  1  0
 33 34  2  0
 34  3  1  0
 20  9  1  0
 29 23  1  0
 31 11  1  0
 19 14  1  0
  1 35  1  0
  1 36  1  0
  1 37  1  0
  2 38  1  0
  2 39  1  0
  4 40  1  0
 10 41  1  0
 15 42  1  0
 16 43  1  0
 18 44  1  0
 19 45  1  0
 20 46  1  0
 21 47  1  0
 21 48  1  0
 23 49  1  1
 24 50  1  0
 24 51  1  0
 25 52  1  0
 25 53  1  0
 28 54  1  0
 33 55  1  0
M  END
>  <meeko>  (204) 
{"is_sidechain": [true], "free_energy": -11.11, "intermolecular_energy": 0.0, "internal_energy": -11.11, "cluster_size": 20, "cluster_id": 1, "rank_in_cluster": 1}

>  <_RMSD_MCS_to_ref>  (204) 
1.9833852514213055

$$$$
ligand
     RDKit          3D

 48 51  0  0  0  0  0  0  0  0999 V2000
   18.9090   19.1540    7.5370 C   0  0  0  0  0  0  0  0  0  0  0  0
   18.7730   17.6460    7.6780 C   0  0  0  0  0  0  0  0  0  0  0  0
   20.0890   16.9540    7.6130 C   0  0  0  0  0  0  0  0  0  0  0  0
   20.8780   16.4900    8.6470 C   0  0  0  0  0  0  0  0  0  0  0  0
   21.9490   15.9190    8.0210 N   0  0  0  0  0  0  0  0  0  0  0  0
   23.3800   15.4250    8.7710 S   0  0  0  0  0  6  0  0  0  0  0  0
   23.5340   14.0380    8.3730 O   0  0  0  0  0  0  0  0  0  0  0  0
   24.3550   16.4240    8.3710 O   0  0  0  0  0  0  0  0  0  0  0  0
   23.0800   15.5120   10.4960 C   0  0  0  0  0  0  0  0  0  0  0  0
   23.8730   16.4010   11.3410 C   0  0  0  0  0  0  0  0  0  0  0  0
   23.6470   16.4470   12.6720 C   0  0  0  0  0  0  0  0  0  0  0  0
   24.5040   17.3720   13.4750 C   0  0  0  0  0  0  0  0  0  0  0  0
   25.6360   17.6770   13.1090 O   0  0  0  0  0  0  0  0  0  0  0  0
   23.9610   17.8490   14.6360 N   0  0  0  0  0  0  0  0  0  0  0  0
   24.6980   18.7080   15.5460 C   0  0  1  0  0  0  0  0  0  0  0  0
   25.8200   17.9490   16.2480 C   0  0  0  0  0  0  0  0  0  0  0  0
   26.5640   18.8890   17.1840 C   0  0  0  0  0  0  0  0  0  0  0  0
   27.0860   20.0980   16.4450 C   0  0  0  0  0  0  0  0  0  0  0  0
   28.1310   20.6600   16.7590 O   0  0  0  0  0  0  0  0  0  0  0  0
   26.3130   20.5680   15.4140 N   0  0  0  0  0  0  0  0  0  0  0  0
   25.2970   19.8940   14.7790 C   0  0  0  0  0  0  0  0  0  0  0  0
   24.8980   20.2590   13.6750 O   0  0  0  0  0  0  0  0  0  0  0  0
   22.6360   15.6390   13.2180 N   0  0  0  0  0  0  0  0  0  0  0  0
   22.2460   15.5460   14.5240 N   0  0  0  0  0  0  0  0  0  0  0  0
   21.2640   14.6440   14.5320 C   0  0  0  0  0  0  0  0  0  0  0  0
   20.9790   14.1370   13.2570 C   0  0  0  0  0  0  0  0  0  0  0  0
   21.8610   14.7810   12.4230 C   0  0  0  0  0  0  0  0  0  0  0  0
   22.1090   14.7360   11.0210 C   0  0  0  0  0  0  0  0  0  0  0  0
   21.8270   16.0980    6.6800 C   0  0  0  0  0  0  0  0  0  0  0  0
   20.6990   16.7140    6.3970 N   0  0  0  0  0  0  0  0  0  0  0  0
   18.9504   19.6134    8.5356 H   0  0  0  0  0  0  0  0  0  0  0  0
   19.8320   19.3891    6.9867 H   0  0  0  0  0  0  0  0  0  0  0  0
   18.0430   19.5504    6.9867 H   0  0  0  0  0  0  0  0  0  0  0  0
   18.3024   17.4219    8.6467 H   0  0  0  0  0  0  0  0  0  0  0  0
   18.1589   17.2827    6.8408 H   0  0  0  0  0  0  0  0  0  0  0  0
   20.6874   16.5635    9.7279 H   0  0  0  0  0  0  0  0  0  0  0  0
   24.6542   17.0331   10.8936 H   0  0  0  0  0  0  0  0  0  0  0  0
   22.9931   17.5893   14.8739 H   0  0  0  0  0  0  0  0  0  0  0  0
   23.9913   19.0691   16.3077 H   0  0  0  0  0  0  0  0  0  0  0  0
   25.3926   17.1176   16.8278 H   0  0  0  0  0  0  0  0  0  0  0  0
   26.5189   17.5529   15.4966 H   0  0  0  0  0  0  0  0  0  0  0  0
   25.8783   19.2220   17.9771 H   0  0  0  0  0  0  0  0  0  0  0  0
   27.4200   18.3472   17.6125 H   0  0  0  0  0  0  0  0  0  0  0  0
   26.5141   21.5221   15.0821 H   0  0  0  0  0  0  0  0  0  0  0  0
   20.7335   14.3309   15.4433 H   0  0  0  0  0  0  0  0  0  0  0  0
   20.2188   13.3901   12.9846 H   0  0  0  0  0  0  0  0  0  0  0  0
   21.5148   14.0752   10.3728 H   0  0  0  0  0  0  0  0  0  0  0  0
   22.5678   15.7733    5.9345 H   0  0  0  0  0  0  0  0  0  0  0  0
  1  2  1  0
  2  3  1  0
  3  4  2  0
  4  5  1  0
  5  6  1  0
  6  7  2  0
  6  8  2  0
  6  9  1  0
  9 10  1  0
 10 11  2  0
 11 12  1  0
 12 13  2  0
 12 14  1  0
 14 15  1  0
 15 16  1  0
 16 17  1  0
 17 18  1  0
 18 19  2  0
 18 20  1  0
 20 21  1  0
 21 22  2  0
 11 23  1  0
 23 24  1  0
 24 25  2  0
 25 26  1  0
 26 27  2  0
 27 28  1  0
  5 29  1  0
 29 30  2  0
 30  3  1  0
 28  9  2  0
 21 15  1  0
 27 23  1  0
  1 31  1  0
  1 32  1  0
  1 33  1  0
  2 34  1  0
  2 35  1  0
  4 36  1  0
 10 37  1  0
 14 38  1  0
 15 39  1  1
 16 40  1  0
 16 41  1  0
 17 42  1  0
 17 43  1  0
 20 44  1  0
 25 45  1  0
 26 46  1  0
 28 47  1  0
 29 48  1  0
M  END
>  <meeko>  (205) 
{"is_sidechain": [true], "free_energy": -11.11, "intermolecular_energy": 0.0, "internal_energy": -11.11, "cluster_size": 20, "cluster_id": 1, "rank_in_cluster": 1}

>  <_RMSD_MCS_to_ref>  (205) 
0.7288399458500244

$$$$
ligand
     RDKit          3D

 48 51  0  0  0  0  0  0  0  0999 V2000
   18.9090   19.1540    7.5370 C   0  0  0  0  0  0  0  0  0  0  0  0
   18.7730   17.6460    7.6780 C   0  0  0  0  0  0  0  0  0  0  0  0
   20.0330   16.9330    7.3370 C   0  0  0  0  0  0  0  0  0  0  0  0
   20.8920   16.2400    8.1680 C   0  0  0  0  0  0  0  0  0  0  0  0
   21.8680   15.7780    7.3320 N   0  0  0  0  0  0  0  0  0  0  0  0
   23.2040   14.8720    7.7910 S   0  0  0  0  0  6  0  0  0  0  0  0
   22.6910   13.5250    7.9700 O   0  0  0  0  0  0  0  0  0  0  0  0
   24.2580   15.1640    6.8390 O   0  0  0  0  0  0  0  0  0  0  0  0
   23.7080   15.4480    9.3590 C   0  0  0  0  0  0  0  0  0  0  0  0
   22.9040   15.2320   10.5030 C   0  0  0  0  0  0  0  0  0  0  0  0
   23.2670   15.6890   11.8080 C   0  0  0  0  0  0  0  0  0  0  0  0
   24.4640   16.3950   12.0890 C   0  0  0  0  0  0  0  0  0  0  0  0
   24.8270   16.8810   13.4370 C   0  0  0  0  0  0  0  0  0  0  0  0
   24.8490   16.1270   14.4010 O   0  0  0  0  0  0  0  0  0  0  0  0
   25.1200   18.2240   13.5360 N   0  0  0  0  0  0  0  0  0  0  0  0
   25.3430   18.8510   14.8320 C   0  0  1  0  0  0  0  0  0  0  0  0
   26.4240   18.1410   15.6410 C   0  0  0  0  0  0  0  0  0  0  0  0
   26.6330   18.8720   16.9580 C   0  0  0  0  0  0  0  0  0  0  0  0
   26.9650   20.3290   16.7300 C   0  0  0  0  0  0  0  0  0  0  0  0
   27.7230   20.9550   17.4650 O   0  0  0  0  0  0  0  0  0  0  0  0
   26.3490   20.9400   15.6680 N   0  0  0  0  0  0  0  0  0  0  0  0
   25.7690   20.3040   14.6000 C   0  0  0  0  0  0  0  0  0  0  0  0
   25.5970   20.8810   13.5260 O   0  0  0  0  0  0  0  0  0  0  0  0
   25.2310   16.5980   10.9330 C   0  0  0  0  0  0  0  0  0  0  0  0
   26.4390   17.2360   10.8330 C   0  0  0  0  0  0  0  0  0  0  0  0
   26.7740   17.1680    9.5140 N   0  0  0  0  0  0  0  0  0  0  0  0
   25.8760   16.5150    8.7550 N   0  0  0  0  0  0  0  0  0  0  0  0
   24.8970   16.1480    9.5960 C   0  0  0  0  0  0  0  0  0  0  0  0
   21.6080   16.2010    6.0680 C   0  0  0  0  0  0  0  0  0  0  0  0
   20.4890   16.8980    6.0330 N   0  0  0  0  0  0  0  0  0  0  0  0
   18.9504   19.6134    8.5356 H   0  0  0  0  0  0  0  0  0  0  0  0
   19.8320   19.3891    6.9867 H   0  0  0  0  0  0  0  0  0  0  0  0
   18.0430   19.5504    6.9867 H   0  0  0  0  0  0  0  0  0  0  0  0
   18.5033   17.4105    8.7181 H   0  0  0  0  0  0  0  0  0  0  0  0
   17.9951   17.3104    6.9764 H   0  0  0  0  0  0  0  0  0  0  0  0
   20.8088   16.0937    9.2551 H   0  0  0  0  0  0  0  0  0  0  0  0
   21.9559   14.6873   10.3827 H   0  0  0  0  0  0  0  0  0  0  0  0
   22.5791   15.4813   12.6408 H   0  0  0  0  0  0  0  0  0  0  0  0
   25.1823   18.7935   12.6801 H   0  0  0  0  0  0  0  0  0  0  0  0
   24.4064   18.7917   15.4058 H   0  0  0  0  0  0  0  0  0  0  0  0
   26.1113   17.1057   15.8418 H   0  0  0  0  0  0  0  0  0  0  0  0
   27.3648   18.1356   15.0710 H   0  0  0  0  0  0  0  0  0  0  0  0
   25.7123   18.8035   17.5560 H   0  0  0  0  0  0  0  0  0  0  0  0
   27.4757   18.4021   17.4863 H   0  0  0  0  0  0  0  0  0  0  0  0
   26.3192   21.9696   15.6727 H   0  0  0  0  0  0  0  0  0  0  0  0
   27.0158   17.7036   11.6446 H   0  0  0  0  0  0  0  0  0  0  0  0
   27.6376   17.5798    9.1324 H   0  0  0  0  0  0  0  0  0  0  0  0
   22.2428   15.9913    5.1944 H   0  0  0  0  0  0  0  0  0  0  0  0
  1  2  1  0
  2  3  1  0
  3  4  2  0
  4  5  1  0
  5  6  1  0
  6  7  2  0
  6  8  2  0
  6  9  1  0
  9 10  2  0
 10 11  1  0
 11 12  2  0
 12 13  1  0
 13 14  2  0
 13 15  1  0
 15 16  1  0
 16 17  1  0
 17 18  1  0
 18 19  1  0
 19 20  2  0
 19 21  1  0
 21 22  1  0
 22 23  2  0
 12 24  1  0
 24 25  2  0
 25 26  1  0
 26 27  1  0
 27 28  2  0
  5 29  1  0
 29 30  2  0
 30  3  1  0
 28  9  1  0
 22 16  1  0
 28 24  1  0
  1 31  1  0
  1 32  1  0
  1 33  1  0
  2 34  1  0
  2 35  1  0
  4 36  1  0
 10 37  1  0
 11 38  1  0
 15 39  1  0
 16 40  1  1
 17 41  1  0
 17 42  1  0
 18 43  1  0
 18 44  1  0
 21 45  1  0
 25 46  1  0
 26 47  1  0
 29 48  1  0
M  END
>  <meeko>  (206) 
{"is_sidechain": [true], "free_energy": -11.11, "intermolecular_energy": 0.0, "internal_energy": -11.11, "cluster_size": 14, "cluster_id": 1, "rank_in_cluster": 1}

>  <_RMSD_MCS_to_ref>  (206) 
0.7621200692804249

$$$$
ligand
     RDKit          3D

 50 53  0  0  0  0  0  0  0  0999 V2000
   18.9090   19.1540    7.5370 C   0  0  0  0  0  0  0  0  0  0  0  0
   18.7730   17.6460    7.6780 C   0  0  0  0  0  0  0  0  0  0  0  0
   20.0530   16.9400    7.4000 C   0  0  0  0  0  0  0  0  0  0  0  0
   20.6410   15.9030    8.0970 C   0  0  0  0  0  0  0  0  0  0  0  0
   21.7970   15.6530    7.4130 N   0  0  0  0  0  0  0  0  0  0  0  0
   22.9410   14.4920    7.8120 S   0  0  0  0  0  6  0  0  0  0  0  0
   22.1620   13.4380    8.4430 O   0  0  0  0  0  0  0  0  0  0  0  0
   23.7280   14.2350    6.6210 O   0  0  0  0  0  0  0  0  0  0  0  0
   23.9980   15.1860    9.0470 C   0  0  0  0  0  0  0  0  0  0  0  0
   25.2390   15.6900    8.6290 C   0  0  0  0  0  0  0  0  0  0  0  0
   26.1030   16.2380    9.5610 C   0  0  0  0  0  0  0  0  0  0  0  0
   25.7220   16.2780   10.8990 C   0  0  0  0  0  0  0  0  0  0  0  0
   24.4690   15.7730   11.3320 C   0  0  0  0  0  0  0  0  0  0  0  0
   24.0220   15.7930   12.6780 C   0  0  0  0  0  0  0  0  0  0  0  0
   24.8740   16.3190   13.7760 C   0  0  0  0  0  0  0  0  0  0  0  0
   25.3100   15.5800   14.6480 O   0  0  0  0  0  0  0  0  0  0  0  0
   25.1300   17.6700   13.7270 N   0  0  0  0  0  0  0  0  0  0  0  0
   26.0710   18.2950   14.6470 C   0  0  2  0  0  0  0  0  0  0  0  0
   25.7360   18.0030   16.1060 C   0  0  0  0  0  0  0  0  0  0  0  0
   26.7320   18.7150   17.0070 C   0  0  0  0  0  0  0  0  0  0  0  0
   26.7650   20.2000   16.7230 C   0  0  0  0  0  0  0  0  0  0  0  0
   26.9590   21.0340   17.6010 O   0  0  0  0  0  0  0  0  0  0  0  0
   26.5930   20.5780   15.4160 N   0  0  0  0  0  0  0  0  0  0  0  0
   26.0380   19.8100   14.4230 C   0  0  0  0  0  0  0  0  0  0  0  0
   25.5550   20.3210   13.4140 O   0  0  0  0  0  0  0  0  0  0  0  0
   22.7720   15.2870   13.0300 C   0  0  0  0  0  0  0  0  0  0  0  0
   21.9890   14.7790   12.0240 C   0  0  0  0  0  0  0  0  0  0  0  0
   22.3740   14.7520   10.7320 N   0  0  0  0  0  0  0  0  0  0  0  0
   23.5840   15.2230   10.3770 C   0  0  0  0  0  0  0  0  0  0  0  0
   21.8770   16.4960    6.3510 C   0  0  0  0  0  0  0  0  0  0  0  0
   20.8320   17.2990    6.3170 N   0  0  0  0  0  0  0  0  0  0  0  0
   18.9504   19.6134    8.5356 H   0  0  0  0  0  0  0  0  0  0  0  0
   19.8320   19.3891    6.9867 H   0  0  0  0  0  0  0  0  0  0  0  0
   18.0430   19.5504    6.9867 H   0  0  0  0  0  0  0  0  0  0  0  0
   18.4553   17.4130    8.7050 H   0  0  0  0  0  0  0  0  0  0  0  0
   18.0303   17.3027    6.9428 H   0  0  0  0  0  0  0  0  0  0  0  0
   20.2648   15.3946    8.9970 H   0  0  0  0  0  0  0  0  0  0  0  0
   25.5234   15.6498    7.5672 H   0  0  0  0  0  0  0  0  0  0  0  0
   27.0791   16.6371    9.2480 H   0  0  0  0  0  0  0  0  0  0  0  0
   26.4099   16.7122   11.6395 H   0  0  0  0  0  0  0  0  0  0  0  0
   24.6471   18.2506   13.0265 H   0  0  0  0  0  0  0  0  0  0  0  0
   27.0696   17.8801   14.4456 H   0  0  0  0  0  0  0  0  0  0  0  0
   24.7198   18.3612   16.3276 H   0  0  0  0  0  0  0  0  0  0  0  0
   25.7898   16.9189   16.2846 H   0  0  0  0  0  0  0  0  0  0  0  0
   26.4426   18.5571   18.0564 H   0  0  0  0  0  0  0  0  0  0  0  0
   27.7329   18.3019   16.8133 H   0  0  0  0  0  0  0  0  0  0  0  0
   26.9087   21.5233   15.1561 H   0  0  0  0  0  0  0  0  0  0  0  0
   22.4263   15.2945   14.0742 H   0  0  0  0  0  0  0  0  0  0  0  0
   20.9997   14.3744   12.2841 H   0  0  0  0  0  0  0  0  0  0  0  0
   22.6995   16.5071    5.6207 H   0  0  0  0  0  0  0  0  0  0  0  0
  1  2  1  0
  2  3  1  0
  3  4  2  0
  4  5  1  0
  5  6  1  0
  6  7  2  0
  6  8  2  0
  6  9  1  0
  9 10  2  0
 10 11  1  0
 11 12  2  0
 12 13  1  0
 13 14  2  0
 14 15  1  0
 15 16  2  0
 15 17  1  0
 17 18  1  0
 18 19  1  0
 19 20  1  0
 20 21  1  0
 21 22  2  0
 21 23  1  0
 23 24  1  0
 24 25  2  0
 14 26  1  0
 26 27  2  0
 27 28  1  0
 28 29  2  0
  5 30  1  0
 30 31  2  0
 31  3  1  0
 29  9  1  0
 29 13  1  0
 24 18  1  0
  1 32  1  0
  1 33  1  0
  1 34  1  0
  2 35  1  0
  2 36  1  0
  4 37  1  0
 10 38  1  0
 11 39  1  0
 12 40  1  0
 17 41  1  0
 18 42  1  6
 19 43  1  0
 19 44  1  0
 20 45  1  0
 20 46  1  0
 23 47  1  0
 26 48  1  0
 27 49  1  0
 30 50  1  0
M  END
>  <meeko>  (207) 
{"is_sidechain": [true], "free_energy": -11.11, "intermolecular_energy": 0.0, "internal_energy": -11.11, "cluster_size": 14, "cluster_id": 1, "rank_in_cluster": 1}

>  <_RMSD_MCS_to_ref>  (207) 
0.7482967325867461

$$$$
ligand
     RDKit          3D

 50 53  0  0  0  0  0  0  0  0999 V2000
   18.9090   19.1540    7.5370 C   0  0  0  0  0  0  0  0  0  0  0  0
   18.7730   17.6460    7.6780 C   0  0  0  0  0  0  0  0  0  0  0  0
   20.0130   16.9300    7.2730 C   0  0  0  0  0  0  0  0  0  0  0  0
   20.4520   15.6740    7.6450 C   0  0  0  0  0  0  0  0  0  0  0  0
   21.6270   15.5140    6.9650 N   0  0  0  0  0  0  0  0  0  0  0  0
   22.7190   14.2560    7.1640 S   0  0  0  0  0  6  0  0  0  0  0  0
   23.1370   13.9020    5.8210 O   0  0  0  0  0  0  0  0  0  0  0  0
   22.0550   13.3180    8.0480 O   0  0  0  0  0  0  0  0  0  0  0  0
   24.1420   14.8890    8.0220 C   0  0  0  0  0  0  0  0  0  0  0  0
   25.4090   14.8340    7.4250 C   0  0  0  0  0  0  0  0  0  0  0  0
   26.5090   15.3330    8.1100 C   0  0  0  0  0  0  0  0  0  0  0  0
   26.3450   15.8820    9.3800 C   0  0  0  0  0  0  0  0  0  0  0  0
   25.1060   15.9500    9.9980 C   0  0  0  0  0  0  0  0  0  0  0  0
   25.0620   16.4960   11.2220 N   0  0  0  0  0  0  0  0  0  0  0  0
   23.8580   16.5740   11.8460 C   0  0  0  0  0  0  0  0  0  0  0  0
   23.8590   17.2000   13.2070 C   0  0  0  0  0  0  0  0  0  0  0  0
   22.8620   17.2060   13.9180 O   0  0  0  0  0  0  0  0  0  0  0  0
   25.0580   17.7690   13.5720 N   0  0  0  0  0  0  0  0  0  0  0  0
   25.2110   18.5710   14.7710 C   0  0  1  0  0  0  0  0  0  0  0  0
   26.1590   17.9230   15.7750 C   0  0  0  0  0  0  0  0  0  0  0  0
   26.2940   18.8180   16.9970 C   0  0  0  0  0  0  0  0  0  0  0  0
   26.7470   20.2060   16.6130 C   0  0  0  0  0  0  0  0  0  0  0  0
   27.4670   20.8880   17.3360 O   0  0  0  0  0  0  0  0  0  0  0  0
   26.2860   20.6930   15.4160 N   0  0  0  0  0  0  0  0  0  0  0  0
   25.7560   19.9510   14.3890 C   0  0  0  0  0  0  0  0  0  0  0  0
   25.7160   20.4000   13.2430 O   0  0  0  0  0  0  0  0  0  0  0  0
   22.6780   16.1230   11.2900 C   0  0  0  0  0  0  0  0  0  0  0  0
   22.7370   15.5560   10.0210 C   0  0  0  0  0  0  0  0  0  0  0  0
   23.9680   15.4490    9.3230 C   0  0  0  0  0  0  0  0  0  0  0  0
   21.8820   16.6390    6.2450 C   0  0  0  0  0  0  0  0  0  0  0  0
   20.9230   17.5230    6.4200 N   0  0  0  0  0  0  0  0  0  0  0  0
   18.9504   19.6134    8.5356 H   0  0  0  0  0  0  0  0  0  0  0  0
   19.8320   19.3891    6.9867 H   0  0  0  0  0  0  0  0  0  0  0  0
   18.0430   19.5504    6.9867 H   0  0  0  0  0  0  0  0  0  0  0  0
   18.5529   17.4068    8.7289 H   0  0  0  0  0  0  0  0  0  0  0  0
   17.9603   17.3164    7.0140 H   0  0  0  0  0  0  0  0  0  0  0  0
   19.9668   14.9647    8.3316 H   0  0  0  0  0  0  0  0  0  0  0  0
   25.5309   14.3991    6.4220 H   0  0  0  0  0  0  0  0  0  0  0  0
   27.5079   15.2949    7.6509 H   0  0  0  0  0  0  0  0  0  0  0  0
   27.2264   16.2738    9.9089 H   0  0  0  0  0  0  0  0  0  0  0  0
   25.8798   17.6193   12.9694 H   0  0  0  0  0  0  0  0  0  0  0  0
   24.2221   18.6583   15.2448 H   0  0  0  0  0  0  0  0  0  0  0  0
   25.7577   16.9451   16.0795 H   0  0  0  0  0  0  0  0  0  0  0  0
   27.1466   17.7861   15.3104 H   0  0  0  0  0  0  0  0  0  0  0  0
   25.3185   18.8860   17.5009 H   0  0  0  0  0  0  0  0  0  0  0  0
   27.0483   18.3795   17.6669 H   0  0  0  0  0  0  0  0  0  0  0  0
   26.3428   21.7116   15.2742 H   0  0  0  0  0  0  0  0  0  0  0  0
   21.7243   16.2089   11.8313 H   0  0  0  0  0  0  0  0  0  0  0  0
   21.8145   15.1846    9.5510 H   0  0  0  0  0  0  0  0  0  0  0  0
   22.7651   16.7889    5.6065 H   0  0  0  0  0  0  0  0  0  0  0  0
  1  2  1  0
  2  3  1  0
  3  4  2  0
  4  5  1  0
  5  6  1  0
  6  7  2  0
  6  8  2  0
  6  9  1  0
  9 10  2  0
 10 11  1  0
 11 12  2  0
 12 13  1  0
 13 14  2  0
 14 15  1  0
 15 16  1  0
 16 17  2  0
 16 18  1  0
 18 19  1  0
 19 20  1  0
 20 21  1  0
 21 22  1  0
 22 23  2  0
 22 24  1  0
 24 25  1  0
 25 26  2  0
 15 27  2  0
 27 28  1  0
 28 29  2  0
  5 30  1  0
 30 31  2  0
 31  3  1  0
 29  9  1  0
 29 13  1  0
 25 19  1  0
  1 32  1  0
  1 33  1  0
  1 34  1  0
  2 35  1  0
  2 36  1  0
  4 37  1  0
 10 38  1  0
 11 39  1  0
 12 40  1  0
 18 41  1  0
 19 42  1  1
 20 43  1  0
 20 44  1  0
 21 45  1  0
 21 46  1  0
 24 47  1  0
 27 48  1  0
 28 49  1  0
 30 50  1  0
M  END
>  <meeko>  (208) 
{"is_sidechain": [true], "free_energy": -11.11, "intermolecular_energy": 0.0, "internal_energy": -11.11, "cluster_size": 18, "cluster_id": 1, "rank_in_cluster": 1}

>  <_RMSD_MCS_to_ref>  (208) 
0.5365705918143484

$$$$
ligand
     RDKit          3D

 49 52  0  0  0  0  0  0  0  0999 V2000
   18.9090   19.1540    7.5370 C   0  0  0  0  0  0  0  0  0  0  0  0
   18.7730   17.6460    7.6780 C   0  0  0  0  0  0  0  0  0  0  0  0
   20.0410   16.9370    7.3570 C   0  0  0  0  0  0  0  0  0  0  0  0
   20.8730   16.2230    8.1970 C   0  0  0  0  0  0  0  0  0  0  0  0
   21.8770   15.7870    7.3810 N   0  0  0  0  0  0  0  0  0  0  0  0
   23.1800   14.8370    7.8510 S   0  0  0  0  0  6  0  0  0  0  0  0
   22.6500   13.5550    8.2710 O   0  0  0  0  0  0  0  0  0  0  0  0
   24.1110   14.9430    6.7390 O   0  0  0  0  0  0  0  0  0  0  0  0
   23.9390   15.6090    9.2420 C   0  0  0  0  0  0  0  0  0  0  0  0
   25.1220   16.3170    9.0190 C   0  0  0  0  0  0  0  0  0  0  0  0
   25.7090   16.9200   10.1000 C   0  0  0  0  0  0  0  0  0  0  0  0
   25.1920   16.8460   11.3410 N   0  0  0  0  0  0  0  0  0  0  0  0
   24.0430   16.1480   11.5550 C   0  0  0  0  0  0  0  0  0  0  0  0
   23.4550   16.0430   12.8240 C   0  0  0  0  0  0  0  0  0  0  0  0
   24.0340   16.6830   14.0470 C   0  0  0  0  0  0  0  0  0  0  0  0
   23.9860   16.0990   15.1260 O   0  0  0  0  0  0  0  0  0  0  0  0
   24.6070   17.9230   13.9170 N   0  0  0  0  0  0  0  0  0  0  0  0
   25.0730   18.6940   15.0560 C   0  0  1  0  0  0  0  0  0  0  0  0
   26.1920   17.9810   15.8090 C   0  0  0  0  0  0  0  0  0  0  0  0
   26.6460   18.8400   16.9780 C   0  0  0  0  0  0  0  0  0  0  0  0
   27.0700   20.2140   16.5160 C   0  0  0  0  0  0  0  0  0  0  0  0
   27.9720   20.8440   17.0610 O   0  0  0  0  0  0  0  0  0  0  0  0
   26.3730   20.7490   15.4630 N   0  0  0  0  0  0  0  0  0  0  0  0
   25.5880   20.0560   14.5730 C   0  0  0  0  0  0  0  0  0  0  0  0
   25.3160   20.5330   13.4720 O   0  0  0  0  0  0  0  0  0  0  0  0
   22.2670   15.3250   13.0130 C   0  0  0  0  0  0  0  0  0  0  0  0
   21.6960   14.7210   11.9230 C   0  0  0  0  0  0  0  0  0  0  0  0
   22.2290   14.7930   10.6890 N   0  0  0  0  0  0  0  0  0  0  0  0
   23.3660   15.4940   10.5040 C   0  0  0  0  0  0  0  0  0  0  0  0
   21.6530   16.2350    6.1180 C   0  0  0  0  0  0  0  0  0  0  0  0
   20.5380   16.9360    6.0690 N   0  0  0  0  0  0  0  0  0  0  0  0
   18.9504   19.6134    8.5356 H   0  0  0  0  0  0  0  0  0  0  0  0
   19.8320   19.3891    6.9867 H   0  0  0  0  0  0  0  0  0  0  0  0
   18.0430   19.5504    6.9867 H   0  0  0  0  0  0  0  0  0  0  0  0
   18.4877   17.4110    8.7140 H   0  0  0  0  0  0  0  0  0  0  0  0
   18.0060   17.3071    6.9661 H   0  0  0  0  0  0  0  0  0  0  0  0
   20.7540   16.0462    9.2761 H   0  0  0  0  0  0  0  0  0  0  0  0
   25.5651   16.3877    8.0147 H   0  0  0  0  0  0  0  0  0  0  0  0
   26.6393   17.4870    9.9481 H   0  0  0  0  0  0  0  0  0  0  0  0
   24.7108   18.3231   12.9736 H   0  0  0  0  0  0  0  0  0  0  0  0
   24.2235   18.8194   15.7435 H   0  0  0  0  0  0  0  0  0  0  0  0
   25.8230   17.0155   16.1854 H   0  0  0  0  0  0  0  0  0  0  0  0
   27.0398   17.8107   15.1291 H   0  0  0  0  0  0  0  0  0  0  0  0
   25.8152   18.9423   17.6917 H   0  0  0  0  0  0  0  0  0  0  0  0
   27.5092   18.3515   17.4537 H   0  0  0  0  0  0  0  0  0  0  0  0
   26.4447   21.7673   15.3262 H   0  0  0  0  0  0  0  0  0  0  0  0
   21.8052   15.2481   14.0084 H   0  0  0  0  0  0  0  0  0  0  0  0
   20.7637   14.1541   12.0624 H   0  0  0  0  0  0  0  0  0  0  0  0
   22.3098   16.0401    5.2574 H   0  0  0  0  0  0  0  0  0  0  0  0
  1  2  1  0
  2  3  1  0
  3  4  2  0
  4  5  1  0
  5  6  1  0
  6  7  2  0
  6  8  2  0
  6  9  1  0
  9 10  2  0
 10 11  1  0
 11 12  2  0
 12 13  1  0
 13 14  2  0
 14 15  1  0
 15 16  2  0
 15 17  1  0
 17 18  1  0
 18 19  1  0
 19 20  1  0
 20 21  1  0
 21 22  2  0
 21 23  1  0
 23 24  1  0
 24 25  2  0
 14 26  1  0
 26 27  2  0
 27 28  1  0
 28 29  2  0
  5 30  1  0
 30 31  2  0
 31  3  1  0
 29  9  1  0
 29 13  1  0
 24 18  1  0
  1 32  1  0
  1 33  1  0
  1 34  1  0
  2 35  1  0
  2 36  1  0
  4 37  1  0
 10 38  1  0
 11 39  1  0
 17 40  1  0
 18 41  1  1
 19 42  1  0
 19 43  1  0
 20 44  1  0
 20 45  1  0
 23 46  1  0
 26 47  1  0
 27 48  1  0
 30 49  1  0
M  END
>  <meeko>  (209) 
{"is_sidechain": [true], "free_energy": -11.11, "intermolecular_energy": 0.0, "internal_energy": -11.11, "cluster_size": 10, "cluster_id": 1, "rank_in_cluster": 1}

>  <_RMSD_MCS_to_ref>  (209) 
0.5644557851004218

$$$$
ligand
     RDKit          3D

 49 52  0  0  0  0  0  0  0  0999 V2000
   18.9090   19.1540    7.5370 C   0  0  0  0  0  0  0  0  0  0  0  0
   18.7730   17.6460    7.6780 C   0  0  0  0  0  0  0  0  0  0  0  0
   20.0950   16.9700    7.7590 C   0  0  0  0  0  0  0  0  0  0  0  0
   20.7750   16.5220    8.8750 C   0  0  0  0  0  0  0  0  0  0  0  0
   21.9390   16.0140    8.3750 N   0  0  0  0  0  0  0  0  0  0  0  0
   23.2420   15.4500    9.2710 S   0  0  0  0  0  6  0  0  0  0  0  0
   24.2750   16.4600    9.1270 O   0  0  0  0  0  0  0  0  0  0  0  0
   23.4420   14.0750    8.8510 O   0  0  0  0  0  0  0  0  0  0  0  0
   22.7130   15.4370   10.9640 C   0  0  0  0  0  0  0  0  0  0  0  0
   23.4340   16.2560   11.7560 N   0  0  0  0  0  0  0  0  0  0  0  0
   23.0520   16.2720   13.0380 C   0  0  0  0  0  0  0  0  0  0  0  0
   23.7880   17.1930   13.9800 C   0  0  0  0  0  0  0  0  0  0  0  0
   23.2770   17.6310   15.0050 O   0  0  0  0  0  0  0  0  0  0  0  0
   25.0880   17.4890   13.6080 N   0  0  0  0  0  0  0  0  0  0  0  0
   25.9940   18.2180   14.4780 C   0  0  2  0  0  0  0  0  0  0  0  0
   25.8200   17.8340   15.9430 C   0  0  0  0  0  0  0  0  0  0  0  0
   26.7740   18.6510   16.7990 C   0  0  0  0  0  0  0  0  0  0  0  0
   26.5750   20.1320   16.5800 C   0  0  0  0  0  0  0  0  0  0  0  0
   26.7280   20.9580   17.4760 O   0  0  0  0  0  0  0  0  0  0  0  0
   26.2420   20.5250   15.3090 N   0  0  0  0  0  0  0  0  0  0  0  0
   25.7300   19.7200   14.3220 C   0  0  0  0  0  0  0  0  0  0  0  0
   25.1140   20.1980   13.3700 O   0  0  0  0  0  0  0  0  0  0  0  0
   22.0450   15.5470   13.5680 N   0  0  0  0  0  0  0  0  0  0  0  0
   21.3570   14.7500   12.7420 C   0  0  0  0  0  0  0  0  0  0  0  0
   20.3110   14.0020   13.2680 C   0  0  0  0  0  0  0  0  0  0  0  0
   19.5380   13.1510   12.4750 C   0  0  0  0  0  0  0  0  0  0  0  0
   19.8100   13.0360   11.1190 C   0  0  0  0  0  0  0  0  0  0  0  0
   20.8530   13.7750   10.5650 C   0  0  0  0  0  0  0  0  0  0  0  0
   21.6400   14.6390   11.3750 C   0  0  0  0  0  0  0  0  0  0  0  0
   21.9530   16.1710    7.0260 C   0  0  0  0  0  0  0  0  0  0  0  0
   20.8330   16.7290    6.6140 N   0  0  0  0  0  0  0  0  0  0  0  0
   18.9504   19.6134    8.5356 H   0  0  0  0  0  0  0  0  0  0  0  0
   19.8320   19.3891    6.9867 H   0  0  0  0  0  0  0  0  0  0  0  0
   18.0430   19.5504    6.9867 H   0  0  0  0  0  0  0  0  0  0  0  0
   18.2051   17.4252    8.5938 H   0  0  0  0  0  0  0  0  0  0  0  0
   18.2535   17.2679    6.7852 H   0  0  0  0  0  0  0  0  0  0  0  0
   20.4523   16.5649    9.9257 H   0  0  0  0  0  0  0  0  0  0  0  0
   25.4238   17.1822   12.6839 H   0  0  0  0  0  0  0  0  0  0  0  0
   27.0227   17.9626   14.1839 H   0  0  0  0  0  0  0  0  0  0  0  0
   24.7844   18.0356   16.2541 H   0  0  0  0  0  0  0  0  0  0  0  0
   26.0398   16.7636   16.0695 H   0  0  0  0  0  0  0  0  0  0  0  0
   26.5938   18.4179   17.8588 H   0  0  0  0  0  0  0  0  0  0  0  0
   27.8046   18.3929   16.5140 H   0  0  0  0  0  0  0  0  0  0  0  0
   26.3899   21.5166   15.0730 H   0  0  0  0  0  0  0  0  0  0  0  0
   20.0848   14.0825   14.3415 H   0  0  0  0  0  0  0  0  0  0  0  0
   18.7162   12.5737   12.9238 H   0  0  0  0  0  0  0  0  0  0  0  0
   19.2073   12.3671   10.4871 H   0  0  0  0  0  0  0  0  0  0  0  0
   21.0699   13.6892    9.4900 H   0  0  0  0  0  0  0  0  0  0  0  0
   22.7837   15.8737    6.3691 H   0  0  0  0  0  0  0  0  0  0  0  0
  1  2  1  0
  2  3  1  0
  3  4  2  0
  4  5  1  0
  5  6  1  0
  6  7  2  0
  6  8  2  0
  6  9  1  0
  9 10  2  0
 10 11  1  0
 11 12  1  0
 12 13  2  0
 12 14  1  0
 14 15  1  0
 15 16  1  0
 16 17  1  0
 17 18  1  0
 18 19  2  0
 18 20  1  0
 20 21  1  0
 21 22  2  0
 11 23  2  0
 23 24  1  0
 24 25  2  0
 25 26  1  0
 26 27  2  0
 27 28  1  0
 28 29  2  0
  5 30  1  0
 30 31  2  0
 31  3  1  0
 29  9  1  0
 21 15  1  0
 29 24  1  0
  1 32  1  0
  1 33  1  0
  1 34  1  0
  2 35  1  0
  2 36  1  0
  4 37  1  0
 14 38  1  0
 15 39  1  6
 16 40  1  0
 16 41  1  0
 17 42  1  0
 17 43  1  0
 20 44  1  0
 25 45  1  0
 26 46  1  0
 27 47  1  0
 28 48  1  0
 30 49  1  0
M  END
>  <meeko>  (210) 
{"is_sidechain": [true], "free_energy": -11.11, "intermolecular_energy": 0.0, "internal_energy": -11.11, "cluster_size": 19, "cluster_id": 1, "rank_in_cluster": 1}

>  <_RMSD_MCS_to_ref>  (210) 
0.5981538263691036

$$$$
ligand
     RDKit          3D

 49 52  0  0  0  0  0  0  0  0999 V2000
   18.9090   19.1540    7.5370 C   0  0  0  0  0  0  0  0  0  0  0  0
   18.7730   17.6460    7.6780 C   0  0  0  0  0  0  0  0  0  0  0  0
   20.0660   16.9430    7.4540 C   0  0  0  0  0  0  0  0  0  0  0  0
   20.6010   15.8710    8.1410 C   0  0  0  0  0  0  0  0  0  0  0  0
   21.7860   15.6270    7.5100 N   0  0  0  0  0  0  0  0  0  0  0  0
   22.9960   14.5960    8.0590 S   0  0  0  0  0  6  0  0  0  0  0  0
   24.1200   14.7870    7.1640 O   0  0  0  0  0  0  0  0  0  0  0  0
   22.3550   13.3080    8.2430 O   0  0  0  0  0  0  0  0  0  0  0  0
   23.4150   15.2650    9.6290 C   0  0  0  0  0  0  0  0  0  0  0  0
   24.4770   16.1720    9.7590 C   0  0  0  0  0  0  0  0  0  0  0  0
   24.7990   16.7290   11.0180 C   0  0  0  0  0  0  0  0  0  0  0  0
   24.0650   16.3910   12.1690 C   0  0  0  0  0  0  0  0  0  0  0  0
   24.3600   16.9490   13.5170 C   0  0  0  0  0  0  0  0  0  0  0  0
   23.9110   16.4130   14.5250 O   0  0  0  0  0  0  0  0  0  0  0  0
   25.1190   18.0980   13.5640 N   0  0  0  0  0  0  0  0  0  0  0  0
   25.3340   18.8050   14.8210 C   0  0  1  0  0  0  0  0  0  0  0  0
   26.3360   18.0930   15.7230 C   0  0  0  0  0  0  0  0  0  0  0  0
   26.5480   18.9110   16.9890 C   0  0  0  0  0  0  0  0  0  0  0  0
   26.9830   20.3210   16.6650 C   0  0  0  0  0  0  0  0  0  0  0  0
   27.7620   20.9510   17.3740 O   0  0  0  0  0  0  0  0  0  0  0  0
   26.4410   20.8880   15.5390 N   0  0  0  0  0  0  0  0  0  0  0  0
   25.8620   20.2060   14.4980 C   0  0  0  0  0  0  0  0  0  0  0  0
   25.7690   20.7060   13.3760 O   0  0  0  0  0  0  0  0  0  0  0  0
   23.0440   15.4690   12.0070 C   0  0  0  0  0  0  0  0  0  0  0  0
   22.1770   14.9140   12.9510 N   0  0  0  0  0  0  0  0  0  0  0  0
   21.3340   13.9940   12.3210 C   0  0  0  0  0  0  0  0  0  0  0  0
   20.4810   13.3020   12.8440 O   0  0  0  0  0  0  0  0  0  0  0  0
   21.6710   14.0190   10.9610 N   0  0  0  0  0  0  0  0  0  0  0  0
   22.7250   14.9130   10.7660 C   0  0  0  0  0  0  0  0  0  0  0  0
   21.9620   16.5430    6.5220 C   0  0  0  0  0  0  0  0  0  0  0  0
   20.9290   17.3550    6.4580 N   0  0  0  0  0  0  0  0  0  0  0  0
   18.9504   19.6134    8.5356 H   0  0  0  0  0  0  0  0  0  0  0  0
   19.8320   19.3891    6.9867 H   0  0  0  0  0  0  0  0  0  0  0  0
   18.0430   19.5504    6.9867 H   0  0  0  0  0  0  0  0  0  0  0  0
   18.4152   17.4156    8.6923 H   0  0  0  0  0  0  0  0  0  0  0  0
   18.0617   17.2975    6.9147 H   0  0  0  0  0  0  0  0  0  0  0  0
   20.1703   15.3362    9.0003 H   0  0  0  0  0  0  0  0  0  0  0  0
   25.0651   16.4527    8.8728 H   0  0  0  0  0  0  0  0  0  0  0  0
   25.6365   17.4376   11.0985 H   0  0  0  0  0  0  0  0  0  0  0  0
   25.5409   18.4630   12.6982 H   0  0  0  0  0  0  0  0  0  0  0  0
   24.3763   18.8466   15.3605 H   0  0  0  0  0  0  0  0  0  0  0  0
   25.9480   17.0988   15.9893 H   0  0  0  0  0  0  0  0  0  0  0  0
   27.2934   17.9824   15.1927 H   0  0  0  0  0  0  0  0  0  0  0  0
   25.6049   18.9479   17.5539 H   0  0  0  0  0  0  0  0  0  0  0  0
   27.3394   18.4315   17.5838 H   0  0  0  0  0  0  0  0  0  0  0  0
   26.4713   21.9152   15.4689 H   0  0  0  0  0  0  0  0  0  0  0  0
   22.1613   15.1463   13.9543 H   0  0  0  0  0  0  0  0  0  0  0  0
   21.2135   13.4655   10.2225 H   0  0  0  0  0  0  0  0  0  0  0  0
   22.8444   16.5979    5.8675 H   0  0  0  0  0  0  0  0  0  0  0  0
  1  2  1  0
  2  3  1  0
  3  4  2  0
  4  5  1  0
  5  6  1  0
  6  7  2  0
  6  8  2  0
  6  9  1  0
  9 10  2  0
 10 11  1  0
 11 12  2  0
 12 13  1  0
 13 14  2  0
 13 15  1  0
 15 16  1  0
 16 17  1  0
 17 18  1  0
 18 19  1  0
 19 20  2  0
 19 21  1  0
 21 22  1  0
 22 23  2  0
 12 24  1  0
 24 25  1  0
 25 26  1  0
 26 27  2  0
 26 28  1  0
 28 29  1  0
  5 30  1  0
 30 31  2  0
 31  3  1  0
 29  9  1  0
 22 16  1  0
 29 24  2  0
  1 32  1  0
  1 33  1  0
  1 34  1  0
  2 35  1  0
  2 36  1  0
  4 37  1  0
 10 38  1  0
 11 39  1  0
 15 40  1  0
 16 41  1  1
 17 42  1  0
 17 43  1  0
 18 44  1  0
 18 45  1  0
 21 46  1  0
 25 47  1  0
 28 48  1  0
 30 49  1  0
M  END
>  <meeko>  (211) 
{"is_sidechain": [true], "free_energy": -11.11, "intermolecular_energy": 0.0, "internal_energy": -11.11, "cluster_size": 16, "cluster_id": 1, "rank_in_cluster": 1}

>  <_RMSD_MCS_to_ref>  (211) 
0.736918433598846

$$$$
ligand
     RDKit          3D

 55 58  0  0  0  0  0  0  0  0999 V2000
   18.9090   19.1540    7.5370 C   0  0  0  0  0  0  0  0  0  0  0  0
   18.7730   17.6460    7.6780 C   0  0  0  0  0  0  0  0  0  0  0  0
   20.0910   16.9560    7.6330 C   0  0  0  0  0  0  0  0  0  0  0  0
   20.8980   16.5560    8.6790 C   0  0  0  0  0  0  0  0  0  0  0  0
   21.9770   15.9800    8.0680 N   0  0  0  0  0  0  0  0  0  0  0  0
   23.3160   15.3470    8.8560 S   0  0  0  0  0  6  0  0  0  0  0  0
   24.2770   16.4380    8.7960 O   0  0  0  0  0  0  0  0  0  0  0  0
   23.6210   14.0600    8.2710 O   0  0  0  0  0  0  0  0  0  0  0  0
   22.9240   15.1270   10.5840 C   0  0  0  0  0  0  0  0  0  0  0  0
   23.8740   15.6560   11.4760 C   0  0  0  0  0  0  0  0  0  0  0  0
   23.6230   15.6490   12.8420 C   0  0  0  0  0  0  0  0  0  0  0  0
   24.5770   16.2200   13.8320 C   0  0  0  0  0  0  0  0  0  0  0  0
   25.1220   15.4930   14.6550 O   0  0  0  0  0  0  0  0  0  0  0  0
   24.8240   17.5710   13.7440 N   0  0  0  0  0  0  0  0  0  0  0  0
   25.8430   18.2020   14.5740 C   0  0  2  0  0  0  0  0  0  0  0  0
   25.6400   17.9140   16.0570 C   0  0  0  0  0  0  0  0  0  0  0  0
   26.7110   18.6300   16.8650 C   0  0  0  0  0  0  0  0  0  0  0  0
   26.7160   20.1140   16.5760 C   0  0  0  0  0  0  0  0  0  0  0  0
   27.0070   20.9490   17.4270 O   0  0  0  0  0  0  0  0  0  0  0  0
   26.4100   20.4910   15.2930 N   0  0  0  0  0  0  0  0  0  0  0  0
   25.7880   19.7150   14.3470 C   0  0  0  0  0  0  0  0  0  0  0  0
   25.2360   20.2210   13.3700 O   0  0  0  0  0  0  0  0  0  0  0  0
   22.4030   15.1460   13.3040 C   0  0  0  0  0  0  0  0  0  0  0  0
   21.4350   14.5810   12.4430 C   0  0  0  0  0  0  0  0  0  0  0  0
   21.7210   14.5590   11.0590 C   0  0  0  0  0  0  0  0  0  0  0  0
   20.8800   13.8140   10.1020 C   0  0  0  0  0  0  0  0  0  0  0  0
   21.4190   13.0540    9.3060 O   0  0  0  0  0  0  0  0  0  0  0  0
   19.5320   14.0120   10.0430 N   0  0  0  0  0  0  0  0  0  0  0  0
   18.7290   14.5210   11.1300 C   0  0  0  0  0  0  0  0  0  0  0  0
   19.0310   13.7540   12.4160 C   0  0  0  0  0  0  0  0  0  0  0  0
   20.2440   14.2300   13.0660 N   0  0  0  0  0  0  0  0  0  0  0  0
   21.8270   16.0700    6.7220 C   0  0  0  0  0  0  0  0  0  0  0  0
   20.6760   16.6410    6.4230 N   0  0  0  0  0  0  0  0  0  0  0  0
   18.9504   19.6134    8.5356 H   0  0  0  0  0  0  0  0  0  0  0  0
   19.8320   19.3891    6.9867 H   0  0  0  0  0  0  0  0  0  0  0  0
   18.0430   19.5504    6.9867 H   0  0  0  0  0  0  0  0  0  0  0  0
   18.2887   17.4224    8.6400 H   0  0  0  0  0  0  0  0  0  0  0  0
   18.1715   17.2807    6.8326 H   0  0  0  0  0  0  0  0  0  0  0  0
   20.7149   16.6737    9.7573 H   0  0  0  0  0  0  0  0  0  0  0  0
   24.8156   16.0752   11.0919 H   0  0  0  0  0  0  0  0  0  0  0  0
   24.2813   18.1444   13.0825 H   0  0  0  0  0  0  0  0  0  0  0  0
   26.8211   17.7890   14.2863 H   0  0  0  0  0  0  0  0  0  0  0  0
   24.6469   18.2713   16.3671 H   0  0  0  0  0  0  0  0  0  0  0  0
   25.7119   16.8305   16.2327 H   0  0  0  0  0  0  0  0  0  0  0  0
   26.5160   18.4741   17.9363 H   0  0  0  0  0  0  0  0  0  0  0  0
   27.6916   18.2180   16.5843 H   0  0  0  0  0  0  0  0  0  0  0  0
   26.6718   21.4470   15.0130 H   0  0  0  0  0  0  0  0  0  0  0  0
   22.1877   15.1919   14.3818 H   0  0  0  0  0  0  0  0  0  0  0  0
   19.0527   13.7823    9.1607 H   0  0  0  0  0  0  0  0  0  0  0  0
   18.9562   15.5866   11.2811 H   0  0  0  0  0  0  0  0  0  0  0  0
   17.6655   14.3946   10.8791 H   0  0  0  0  0  0  0  0  0  0  0  0
   18.1857   13.8769   13.1090 H   0  0  0  0  0  0  0  0  0  0  0  0
   19.1807   12.6966   12.1524 H   0  0  0  0  0  0  0  0  0  0  0  0
   20.2161   14.3151   14.0921 H   0  0  0  0  0  0  0  0  0  0  0  0
   22.5621   15.7164    5.9840 H   0  0  0  0  0  0  0  0  0  0  0  0
  1  2  1  0
  2  3  1  0
  3  4  2  0
  4  5  1  0
  5  6  1  0
  6  7  2  0
  6  8  2  0
  6  9  1  0
  9 10  2  0
 10 11  1  0
 11 12  1  0
 12 13  2  0
 12 14  1  0
 14 15  1  0
 15 16  1  0
 16 17  1  0
 17 18  1  0
 18 19  2  0
 18 20  1  0
 20 21  1  0
 21 22  2  0
 11 23  2  0
 23 24  1  0
 24 25  2  0
 25 26  1  0
 26 27  2  0
 26 28  1  0
 28 29  1  0
 29 30  1  0
 30 31  1  0
  5 32  1  0
 32 33  2  0
 33  3  1  0
 25  9  1  0
 21 15  1  0
 31 24  1  0
  1 34  1  0
  1 35  1  0
  1 36  1  0
  2 37  1  0
  2 38  1  0
  4 39  1  0
 10 40  1  0
 14 41  1  0
 15 42  1  6
 16 43  1  0
 16 44  1  0
 17 45  1  0
 17 46  1  0
 20 47  1  0
 23 48  1  0
 28 49  1  0
 29 50  1  0
 29 51  1  0
 30 52  1  0
 30 53  1  0
 31 54  1  0
 32 55  1  0
M  END
>  <meeko>  (212) 
{"is_sidechain": [true], "free_energy": -11.11, "intermolecular_energy": 0.13, "internal_energy": -11.23, "cluster_size": 17, "cluster_id": 1, "rank_in_cluster": 1}

>  <_RMSD_MCS_to_ref>  (212) 
0.5653948472822627

$$$$
ligand
     RDKit          3D

 56 60  0  0  0  0  0  0  0  0999 V2000
   18.9090   19.1540    7.5370 C   0  0  0  0  0  0  0  0  0  0  0  0
   18.7730   17.6460    7.6780 C   0  0  0  0  0  0  0  0  0  0  0  0
   20.0730   16.9460    7.4970 C   0  0  0  0  0  0  0  0  0  0  0  0
   20.9610   16.5050    8.4590 C   0  0  0  0  0  0  0  0  0  0  0  0
   21.9920   15.9750    7.7430 N   0  0  0  0  0  0  0  0  0  0  0  0
   23.3830   15.2680    8.3540 S   0  0  0  0  0  6  0  0  0  0  0  0
   23.2700   13.8380    8.1540 O   0  0  0  0  0  0  0  0  0  0  0  0
   24.4590   16.0360    7.7510 O   0  0  0  0  0  0  0  0  0  0  0  0
   23.4030   15.5950   10.1100 C   0  0  0  0  0  0  0  0  0  0  0  0
   24.3600   16.5350   10.5520 C   0  0  0  0  0  0  0  0  0  0  0  0
   24.4120   16.8460   11.8980 C   0  0  0  0  0  0  0  0  0  0  0  0
   23.5360   16.2340   12.7840 C   0  0  0  0  0  0  0  0  0  0  0  0
   22.5940   15.3050   12.3840 C   0  0  0  0  0  0  0  0  0  0  0  0
   22.5140   14.9570   11.0180 C   0  0  0  0  0  0  0  0  0  0  0  0
   21.5190   13.9430   10.6440 C   0  0  0  0  0  0  0  0  0  0  0  0
   21.8980   12.6140   10.4010 C   0  0  0  0  0  0  0  0  0  0  0  0
   20.9450   11.6490   10.0670 C   0  0  0  0  0  0  0  0  0  0  0  0
   19.5990   11.9960    9.9840 C   0  0  0  0  0  0  0  0  0  0  0  0
   19.2030   13.3060   10.2410 C   0  0  0  0  0  0  0  0  0  0  0  0
   20.1560   14.2720   10.5740 C   0  0  0  0  0  0  0  0  0  0  0  0
   23.8080   16.7540   14.1280 C   0  0  0  0  0  0  0  0  0  0  0  0
   23.1770   16.4690   15.1270 O   0  0  0  0  0  0  0  0  0  0  0  0
   24.8930   17.6110   14.0140 N   0  0  0  0  0  0  0  0  0  0  0  0
   25.2720   18.5150   15.0940 C   0  0  1  0  0  0  0  0  0  0  0  0
   26.3370   17.9200   16.0100 C   0  0  0  0  0  0  0  0  0  0  0  0
   26.6140   18.8830   17.1540 C   0  0  0  0  0  0  0  0  0  0  0  0
   27.0110   20.2460   16.6350 C   0  0  0  0  0  0  0  0  0  0  0  0
   27.8440   20.9470   17.1990 O   0  0  0  0  0  0  0  0  0  0  0  0
   26.3770   20.6780   15.4980 N   0  0  0  0  0  0  0  0  0  0  0  0
   25.7700   19.8710   14.5630 C   0  0  0  0  0  0  0  0  0  0  0  0
   25.6660   20.2400   13.3960 O   0  0  0  0  0  0  0  0  0  0  0  0
   25.2940   17.8060   12.6260 C   0  0  0  0  0  0  0  0  0  0  0  0
   21.6970   16.0400    6.4180 C   0  0  0  0  0  0  0  0  0  0  0  0
   20.5470   16.6530    6.2320 N   0  0  0  0  0  0  0  0  0  0  0  0
   18.9504   19.6134    8.5356 H   0  0  0  0  0  0  0  0  0  0  0  0
   19.8320   19.3891    6.9867 H   0  0  0  0  0  0  0  0  0  0  0  0
   18.0430   19.5504    6.9867 H   0  0  0  0  0  0  0  0  0  0  0  0
   18.3841   17.4175    8.6813 H   0  0  0  0  0  0  0  0  0  0  0  0
   18.0872   17.2936    6.8935 H   0  0  0  0  0  0  0  0  0  0  0  0
   20.8591   16.5674    9.5525 H   0  0  0  0  0  0  0  0  0  0  0  0
   25.0502   17.0102    9.8394 H   0  0  0  0  0  0  0  0  0  0  0  0
   21.9172   14.8440   13.1184 H   0  0  0  0  0  0  0  0  0  0  0  0
   22.9579   12.3288   10.4744 H   0  0  0  0  0  0  0  0  0  0  0  0
   21.2583   10.6133    9.8692 H   0  0  0  0  0  0  0  0  0  0  0  0
   18.8498   11.2365    9.7159 H   0  0  0  0  0  0  0  0  0  0  0  0
   18.1394   13.5805   10.1818 H   0  0  0  0  0  0  0  0  0  0  0  0
   19.8344   15.3028   10.7839 H   0  0  0  0  0  0  0  0  0  0  0  0
   24.3534   18.6703   15.6789 H   0  0  0  0  0  0  0  0  0  0  0  0
   25.9791   16.9620   16.4151 H   0  0  0  0  0  0  0  0  0  0  0  0
   27.2617   17.7526   15.4383 H   0  0  0  0  0  0  0  0  0  0  0  0
   25.7063   18.9827   17.7673 H   0  0  0  0  0  0  0  0  0  0  0  0
   27.4444   18.4825   17.7540 H   0  0  0  0  0  0  0  0  0  0  0  0
   26.3532   21.6938   15.3295 H   0  0  0  0  0  0  0  0  0  0  0  0
   25.1100   18.8405   12.3005 H   0  0  0  0  0  0  0  0  0  0  0  0
   26.3666   17.6360   12.4510 H   0  0  0  0  0  0  0  0  0  0  0  0
   22.3302   15.6370    5.6139 H   0  0  0  0  0  0  0  0  0  0  0  0
  1  2  1  0
  2  3  1  0
  3  4  2  0
  4  5  1  0
  5  6  1  0
  6  7  2  0
  6  8  2  0
  6  9  1  0
  9 10  2  0
 10 11  1  0
 11 12  2  0
 12 13  1  0
 13 14  2  0
 14 15  1  0
 15 16  2  0
 16 17  1  0
 17 18  2  0
 18 19  1  0
 19 20  2  0
 12 21  1  0
 21 22  2  0
 21 23  1  0
 23 24  1  0
 24 25  1  0
 25 26  1  0
 26 27  1  0
 27 28  2  0
 27 29  1  0
 29 30  1  0
 30 31  2  0
 23 32  1  0
  5 33  1  0
 33 34  2  0
 34  3  1  0
 14  9  1  0
 20 15  1  0
 30 24  1  0
 32 11  1  0
  1 35  1  0
  1 36  1  0
  1 37  1  0
  2 38  1  0
  2 39  1  0
  4 40  1  0
 10 41  1  0
 13 42  1  0
 16 43  1  0
 17 44  1  0
 18 45  1  0
 19 46  1  0
 20 47  1  0
 24 48  1  1
 25 49  1  0
 25 50  1  0
 26 51  1  0
 26 52  1  0
 29 53  1  0
 32 54  1  0
 32 55  1  0
 33 56  1  0
M  END
>  <meeko>  (213) 
{"is_sidechain": [true], "free_energy": -11.11, "intermolecular_energy": 0.0, "internal_energy": -11.11, "cluster_size": 12, "cluster_id": 1, "rank_in_cluster": 1}

>  <_RMSD_MCS_to_ref>  (213) 
0.9600399586591295

$$$$
ligand
     RDKit          3D

 54 58  0  0  0  0  0  0  0  0999 V2000
   18.9090   19.1540    7.5370 C   0  0  0  0  0  0  0  0  0  0  0  0
   18.7730   17.6460    7.6780 C   0  0  0  0  0  0  0  0  0  0  0  0
   19.6830   16.9110    6.7580 C   0  0  0  0  0  0  0  0  0  0  0  0
   21.0210   17.1320    6.5020 C   0  0  0  0  0  0  0  0  0  0  0  0
   21.3570   16.1610    5.6010 N   0  0  0  0  0  0  0  0  0  0  0  0
   22.8110   16.0530    4.7620 S   0  0  0  0  0  6  0  0  0  0  0  0
   22.6200   14.9840    3.7990 O   0  0  0  0  0  0  0  0  0  0  0  0
   23.1400   17.4080    4.3610 O   0  0  0  0  0  0  0  0  0  0  0  0
   23.9740   15.5210    5.9630 C   0  0  0  0  0  0  0  0  0  0  0  0
   25.0350   14.7260    5.5970 C   0  0  0  0  0  0  0  0  0  0  0  0
   25.9130   14.2770    6.5210 N   0  0  0  0  0  0  0  0  0  0  0  0
   25.6710   14.6610    7.8070 C   0  0  0  0  0  0  0  0  0  0  0  0
   24.5990   15.4720    8.1850 C   0  0  0  0  0  0  0  0  0  0  0  0
   24.3080   15.8980    9.5720 C   0  0  0  0  0  0  0  0  0  0  0  0
   23.0750   15.6040   10.2120 C   0  0  0  0  0  0  0  0  0  0  0  0
   22.8070   16.0080   11.5270 C   0  0  0  0  0  0  0  0  0  0  0  0
   23.7940   16.7030   12.1940 C   0  0  0  0  0  0  0  0  0  0  0  0
   25.0160   17.0050   11.6100 C   0  0  0  0  0  0  0  0  0  0  0  0
   25.2830   16.6140   10.3090 C   0  0  0  0  0  0  0  0  0  0  0  0
   25.8710   17.7660   12.5680 C   0  0  0  0  0  0  0  0  0  0  0  0
   25.0500   17.7880   13.7730 N   0  0  0  0  0  0  0  0  0  0  0  0
   25.3380   18.6330   14.9250 C   0  0  1  0  0  0  0  0  0  0  0  0
   26.3340   17.9900   15.8870 C   0  0  0  0  0  0  0  0  0  0  0  0
   26.5140   18.8890   17.1010 C   0  0  0  0  0  0  0  0  0  0  0  0
   26.9410   20.2800   16.6930 C   0  0  0  0  0  0  0  0  0  0  0  0
   27.7130   20.9540   17.3670 O   0  0  0  0  0  0  0  0  0  0  0  0
   26.4030   20.7690   15.5300 N   0  0  0  0  0  0  0  0  0  0  0  0
   25.8660   20.0170   14.5110 C   0  0  0  0  0  0  0  0  0  0  0  0
   25.8380   20.4580   13.3640 O   0  0  0  0  0  0  0  0  0  0  0  0
   23.7930   17.2400   13.5590 C   0  0  0  0  0  0  0  0  0  0  0  0
   22.8520   17.1970   14.3260 O   0  0  0  0  0  0  0  0  0  0  0  0
   23.7250   15.9110    7.2410 N   0  0  0  0  0  0  0  0  0  0  0  0
   20.2510   15.4270    5.3090 C   0  0  0  0  0  0  0  0  0  0  0  0
   19.2140   15.8540    6.0010 N   0  0  0  0  0  0  0  0  0  0  0  0
   18.9504   19.6134    8.5356 H   0  0  0  0  0  0  0  0  0  0  0  0
   19.8320   19.3891    6.9867 H   0  0  0  0  0  0  0  0  0  0  0  0
   18.0430   19.5504    6.9867 H   0  0  0  0  0  0  0  0  0  0  0  0
   19.0131   17.3640    8.7138 H   0  0  0  0  0  0  0  0  0  0  0  0
   17.7391   17.3745    7.4185 H   0  0  0  0  0  0  0  0  0  0  0  0
   21.6696   17.9124    6.9267 H   0  0  0  0  0  0  0  0  0  0  0  0
   25.1704   14.4526    4.5402 H   0  0  0  0  0  0  0  0  0  0  0  0
   26.3593   14.3121    8.5909 H   0  0  0  0  0  0  0  0  0  0  0  0
   22.3074   15.0425    9.6593 H   0  0  0  0  0  0  0  0  0  0  0  0
   21.8451   15.7793   12.0092 H   0  0  0  0  0  0  0  0  0  0  0  0
   26.2513   16.8591    9.8481 H   0  0  0  0  0  0  0  0  0  0  0  0
   26.8255   17.2491   12.7464 H   0  0  0  0  0  0  0  0  0  0  0  0
   26.1494   18.7675   12.2081 H   0  0  0  0  0  0  0  0  0  0  0  0
   24.3753   18.7550   15.4431 H   0  0  0  0  0  0  0  0  0  0  0  0
   25.9529   17.0097   16.2092 H   0  0  0  0  0  0  0  0  0  0  0  0
   27.3015   17.8571   15.3807 H   0  0  0  0  0  0  0  0  0  0  0  0
   25.5603   18.9518   17.6455 H   0  0  0  0  0  0  0  0  0  0  0  0
   27.2982   18.4576   17.7404 H   0  0  0  0  0  0  0  0  0  0  0  0
   26.4009   21.7918   15.4086 H   0  0  0  0  0  0  0  0  0  0  0  0
   20.2251   14.5917    4.5937 H   0  0  0  0  0  0  0  0  0  0  0  0
  1  2  1  0
  2  3  1  0
  3  4  2  0
  4  5  1  0
  5  6  1  0
  6  7  2  0
  6  8  2  0
  6  9  1  0
  9 10  2  0
 10 11  1  0
 11 12  2  0
 12 13  1  0
 13 14  1  0
 14 15  2  0
 15 16  1  0
 16 17  2  0
 17 18  1  0
 18 19  2  0
 18 20  1  0
 20 21  1  0
 21 22  1  0
 22 23  1  0
 23 24  1  0
 24 25  1  0
 25 26  2  0
 25 27  1  0
 27 28  1  0
 28 29  2  0
 21 30  1  0
 30 31  2  0
 13 32  2  0
  5 33  1  0
 33 34  2  0
 34  3  1  0
 32  9  1  0
 19 14  1  0
 28 22  1  0
 30 17  1  0
  1 35  1  0
  1 36  1  0
  1 37  1  0
  2 38  1  0
  2 39  1  0
  4 40  1  0
 10 41  1  0
 12 42  1  0
 15 43  1  0
 16 44  1  0
 19 45  1  0
 20 46  1  0
 20 47  1  0
 22 48  1  1
 23 49  1  0
 23 50  1  0
 24 51  1  0
 24 52  1  0
 27 53  1  0
 33 54  1  0
M  END
>  <meeko>  (214) 
{"is_sidechain": [true], "free_energy": -11.11, "intermolecular_energy": 0.0, "internal_energy": -11.11, "cluster_size": 20, "cluster_id": 1, "rank_in_cluster": 1}

>  <_RMSD_MCS_to_ref>  (214) 
0.7220288544557387

$$$$
ligand
     RDKit          3D

 52 56  0  0  0  0  0  0  0  0999 V2000
   18.8250   19.0180    7.5350 C   0  0  0  0  0  0  0  0  0  0  0  0
   18.5200   17.5410    7.7330 C   0  0  0  0  0  0  0  0  0  0  0  0
   19.7580   16.7160    7.7590 C   0  0  0  0  0  0  0  0  0  0  0  0
   20.2290   15.8910    8.7620 C   0  0  0  0  0  0  0  0  0  0  0  0
   21.3650   15.3480    8.2360 N   0  0  0  0  0  0  0  0  0  0  0  0
   22.4070   14.2900    9.0170 S   0  0  0  0  0  6  0  0  0  0  0  0
   21.6540   13.0840    9.3000 O   0  0  0  0  0  0  0  0  0  0  0  0
   23.5900   14.2730    8.1790 O   0  0  0  0  0  0  0  0  0  0  0  0
   22.8350   15.0420   10.5700 C   0  0  0  0  0  0  0  0  0  0  0  0
   21.8130   15.1330   11.5480 C   0  0  0  0  0  0  0  0  0  0  0  0
   22.0720   15.6930   12.8010 C   0  0  0  0  0  0  0  0  0  0  0  0
   23.3540   16.1420   13.0410 C   0  0  0  0  0  0  0  0  0  0  0  0
   24.3690   16.0720   12.0900 C   0  0  0  0  0  0  0  0  0  0  0  0
   24.1250   15.5410   10.8270 C   0  0  0  0  0  0  0  0  0  0  0  0
   25.2130   15.4990    9.8770 C   0  0  0  0  0  0  0  0  0  0  0  0
   26.2200   14.5570    9.8970 C   0  0  0  0  0  0  0  0  0  0  0  0
   27.3090   14.8580    8.6040 S   0  0  0  0  0  0  0  0  0  0  0  0
   26.3450   16.1970    8.1280 C   0  0  0  0  0  0  0  0  0  0  0  0
   25.2650   16.4150    8.8500 N   0  0  0  0  0  0  0  0  0  0  0  0
   25.6280   16.6470   12.6560 C   0  0  0  0  0  0  0  0  0  0  0  0
   25.2520   16.9590   14.0290 N   0  0  0  0  0  0  0  0  0  0  0  0
   26.1180   17.7640   14.8840 C   0  0  2  0  0  0  0  0  0  0  0  0
   25.7110   17.7610   16.3560 C   0  0  0  0  0  0  0  0  0  0  0  0
   26.7140   18.5770   17.1570 C   0  0  0  0  0  0  0  0  0  0  0  0
   26.8260   19.9860   16.6220 C   0  0  0  0  0  0  0  0  0  0  0  0
   27.2160   20.9210   17.3160 O   0  0  0  0  0  0  0  0  0  0  0  0
   26.5500   20.1640   15.2890 N   0  0  0  0  0  0  0  0  0  0  0  0
   26.2260   19.2050   14.3580 C   0  0  0  0  0  0  0  0  0  0  0  0
   26.1340   19.5000   13.1670 O   0  0  0  0  0  0  0  0  0  0  0  0
   23.8990   16.7600   14.2540 C   0  0  0  0  0  0  0  0  0  0  0  0
   23.2420   17.0430   15.2360 O   0  0  0  0  0  0  0  0  0  0  0  0
   21.6000   15.8950    7.0160 C   0  0  0  0  0  0  0  0  0  0  0  0
   20.6220   16.7120    6.6800 N   0  0  0  0  0  0  0  0  0  0  0  0
   18.9258   19.5062    8.5155 H   0  0  0  0  0  0  0  0  0  0  0  0
   19.7645   19.1263    6.9731 H   0  0  0  0  0  0  0  0  0  0  0  0
   18.0053   19.4896    6.9731 H   0  0  0  0  0  0  0  0  0  0  0  0
   17.9875   17.4129    8.6869 H   0  0  0  0  0  0  0  0  0  0  0  0
   17.9043   17.2041    6.8860 H   0  0  0  0  0  0  0  0  0  0  0  0
   19.7900   15.7130    9.7548 H   0  0  0  0  0  0  0  0  0  0  0  0
   20.8047   14.7584   11.3176 H   0  0  0  0  0  0  0  0  0  0  0  0
   21.2853   15.7728   13.5657 H   0  0  0  0  0  0  0  0  0  0  0  0
   26.3114   13.7398   10.6277 H   0  0  0  0  0  0  0  0  0  0  0  0
   26.6131   16.8340    7.2722 H   0  0  0  0  0  0  0  0  0  0  0  0
   26.4469   15.9132   12.6265 H   0  0  0  0  0  0  0  0  0  0  0  0
   25.9981   17.5191   12.0970 H   0  0  0  0  0  0  0  0  0  0  0  0
   27.1067   17.2840   14.8392 H   0  0  0  0  0  0  0  0  0  0  0  0
   24.7096   18.2039   16.4612 H   0  0  0  0  0  0  0  0  0  0  0  0
   25.6939   16.7271   16.7313 H   0  0  0  0  0  0  0  0  0  0  0  0
   26.3870   18.6169   18.2065 H   0  0  0  0  0  0  0  0  0  0  0  0
   27.6992   18.0946   17.0750 H   0  0  0  0  0  0  0  0  0  0  0  0
   26.5905   21.1337   14.9442 H   0  0  0  0  0  0  0  0  0  0  0  0
   22.4833   15.6856    6.3947 H   0  0  0  0  0  0  0  0  0  0  0  0
  1  2  1  0
  2  3  1  0
  3  4  2  0
  4  5  1  0
  5  6  1  0
  6  7  2  0
  6  8  2  0
  6  9  1  0
  9 10  2  0
 10 11  1  0
 11 12  2  0
 12 13  1  0
 13 14  2  0
 14 15  1  0
 15 16  2  0
 16 17  1  0
 17 18  1  0
 18 19  2  0
 13 20  1  0
 20 21  1  0
 21 22  1  0
 22 23  1  0
 23 24  1  0
 24 25  1  0
 25 26  2  0
 25 27  1  0
 27 28  1  0
 28 29  2  0
 21 30  1  0
 30 31  2  0
  5 32  1  0
 32 33  2  0
 33  3  1  0
 14  9  1  0
 19 15  1  0
 28 22  1  0
 30 12  1  0
  1 34  1  0
  1 35  1  0
  1 36  1  0
  2 37  1  0
  2 38  1  0
  4 39  1  0
 10 40  1  0
 11 41  1  0
 16 42  1  0
 18 43  1  0
 20 44  1  0
 20 45  1  0
 22 46  1  1
 23 47  1  0
 23 48  1  0
 24 49  1  0
 24 50  1  0
 27 51  1  0
 32 52  1  0
M  END
>  <meeko>  (215) 
{"is_sidechain": [true], "free_energy": -11.1, "intermolecular_energy": 0.0, "internal_energy": -11.1, "cluster_size": 11, "cluster_id": 1, "rank_in_cluster": 1}

>  <_RMSD_MCS_to_ref>  (215) 
0.9117464011445292

$$$$
ligand
     RDKit          3D

 48 51  0  0  0  0  0  0  0  0999 V2000
   18.9090   19.1540    7.5370 C   0  0  0  0  0  0  0  0  0  0  0  0
   18.7730   17.6460    7.6780 C   0  0  0  0  0  0  0  0  0  0  0  0
   20.0480   16.9370    7.3810 C   0  0  0  0  0  0  0  0  0  0  0  0
   20.7000   15.9740    8.1240 C   0  0  0  0  0  0  0  0  0  0  0  0
   21.8040   15.6670    7.3800 N   0  0  0  0  0  0  0  0  0  0  0  0
   23.0860   14.7060    7.8840 S   0  0  0  0  0  6  0  0  0  0  0  0
   22.5210   13.3850    8.0770 O   0  0  0  0  0  0  0  0  0  0  0  0
   24.1720   14.9530    6.9550 O   0  0  0  0  0  0  0  0  0  0  0  0
   23.5150   15.3790    9.4680 C   0  0  0  0  0  0  0  0  0  0  0  0
   22.6240   15.1920   10.5410 C   0  0  0  0  0  0  0  0  0  0  0  0
   22.9110   15.7170   11.8040 C   0  0  0  0  0  0  0  0  0  0  0  0
   24.0930   16.4370   12.0480 C   0  0  0  0  0  0  0  0  0  0  0  0
   24.3530   16.9800   13.4020 C   0  0  0  0  0  0  0  0  0  0  0  0
   23.9100   16.4010   14.3890 O   0  0  0  0  0  0  0  0  0  0  0  0
   25.0920   18.1350   13.4940 N   0  0  0  0  0  0  0  0  0  0  0  0
   25.3020   18.8170   14.7610 C   0  0  1  0  0  0  0  0  0  0  0  0
   26.3360   18.1080   15.6300 C   0  0  0  0  0  0  0  0  0  0  0  0
   26.5240   18.8800   16.9270 C   0  0  0  0  0  0  0  0  0  0  0  0
   26.9050   20.3170   16.6590 C   0  0  0  0  0  0  0  0  0  0  0  0
   27.6570   20.9480   17.3960 O   0  0  0  0  0  0  0  0  0  0  0  0
   26.3430   20.9060   15.5540 N   0  0  0  0  0  0  0  0  0  0  0  0
   25.7800   20.2490   14.4890 C   0  0  0  0  0  0  0  0  0  0  0  0
   25.6660   20.8000   13.3950 O   0  0  0  0  0  0  0  0  0  0  0  0
   24.9620   16.5900   10.9610 C   0  0  0  0  0  0  0  0  0  0  0  0
   26.1610   17.2460   10.9760 O   0  0  0  0  0  0  0  0  0  0  0  0
   26.6900   17.1580    9.7330 C   0  0  0  0  0  0  0  0  0  0  0  0
   25.8520   16.4530    8.9040 C   0  0  0  0  0  0  0  0  0  0  0  0
   24.7170   16.0820    9.6840 C   0  0  0  0  0  0  0  0  0  0  0  0
   21.8180   16.4390    6.2650 C   0  0  0  0  0  0  0  0  0  0  0  0
   20.7580   17.2210    6.2310 N   0  0  0  0  0  0  0  0  0  0  0  0
   18.9504   19.6134    8.5356 H   0  0  0  0  0  0  0  0  0  0  0  0
   19.8320   19.3891    6.9867 H   0  0  0  0  0  0  0  0  0  0  0  0
   18.0430   19.5504    6.9867 H   0  0  0  0  0  0  0  0  0  0  0  0
   18.4695   17.4124    8.7092 H   0  0  0  0  0  0  0  0  0  0  0  0
   18.0197   17.3052    6.9525 H   0  0  0  0  0  0  0  0  0  0  0  0
   20.3995   15.5504    9.0937 H   0  0  0  0  0  0  0  0  0  0  0  0
   21.6931   14.6274   10.3842 H   0  0  0  0  0  0  0  0  0  0  0  0
   22.1958   15.5632   12.6255 H   0  0  0  0  0  0  0  0  0  0  0  0
   25.5099   18.5297   12.6393 H   0  0  0  0  0  0  0  0  0  0  0  0
   24.3450   18.8173   15.3034 H   0  0  0  0  0  0  0  0  0  0  0  0
   25.9878   17.0895   15.8568 H   0  0  0  0  0  0  0  0  0  0  0  0
   27.2940   18.0569   15.0918 H   0  0  0  0  0  0  0  0  0  0  0  0
   25.5831   18.8588   17.4964 H   0  0  0  0  0  0  0  0  0  0  0  0
   27.3353   18.4062   17.4991 H   0  0  0  0  0  0  0  0  0  0  0  0
   26.3439   21.9355   15.5212 H   0  0  0  0  0  0  0  0  0  0  0  0
   27.6550   17.5902    9.4297 H   0  0  0  0  0  0  0  0  0  0  0  0
   26.0233   16.2195    7.8428 H   0  0  0  0  0  0  0  0  0  0  0  0
   22.6045   16.4156    5.4963 H   0  0  0  0  0  0  0  0  0  0  0  0
  1  2  1  0
  2  3  1  0
  3  4  2  0
  4  5  1  0
  5  6  1  0
  6  7  2  0
  6  8  2  0
  6  9  1  0
  9 10  2  0
 10 11  1  0
 11 12  2  0
 12 13  1  0
 13 14  2  0
 13 15  1  0
 15 16  1  0
 16 17  1  0
 17 18  1  0
 18 19  1  0
 19 20  2  0
 19 21  1  0
 21 22  1  0
 22 23  2  0
 12 24  1  0
 24 25  1  0
 25 26  1  0
 26 27  2  0
 27 28  1  0
  5 29  1  0
 29 30  2  0
 30  3  1  0
 28  9  1  0
 22 16  1  0
 28 24  2  0
  1 31  1  0
  1 32  1  0
  1 33  1  0
  2 34  1  0
  2 35  1  0
  4 36  1  0
 10 37  1  0
 11 38  1  0
 15 39  1  0
 16 40  1  1
 17 41  1  0
 17 42  1  0
 18 43  1  0
 18 44  1  0
 21 45  1  0
 26 46  1  0
 27 47  1  0
 29 48  1  0
M  END
>  <meeko>  (216) 
{"is_sidechain": [true], "free_energy": -11.1, "intermolecular_energy": 0.0, "internal_energy": -11.1, "cluster_size": 19, "cluster_id": 1, "rank_in_cluster": 1}

>  <_RMSD_MCS_to_ref>  (216) 
0.7054120151451289

$$$$
ligand
     RDKit          3D

 50 53  0  0  0  0  0  0  0  0999 V2000
   18.9090   19.1540    7.5370 C   0  0  0  0  0  0  0  0  0  0  0  0
   18.7730   17.6460    7.6780 C   0  0  0  0  0  0  0  0  0  0  0  0
   20.0890   16.9550    7.6180 C   0  0  0  0  0  0  0  0  0  0  0  0
   20.6820   16.1350    8.5580 C   0  0  0  0  0  0  0  0  0  0  0  0
   21.8790   15.7920    7.9970 N   0  0  0  0  0  0  0  0  0  0  0  0
   23.0080   14.7230    8.6330 S   0  0  0  0  0  6  0  0  0  0  0  0
   22.3360   13.4350    8.6760 O   0  0  0  0  0  0  0  0  0  0  0  0
   24.2180   14.9380    7.8610 O   0  0  0  0  0  0  0  0  0  0  0  0
   23.3000   15.2560   10.3060 C   0  0  0  0  0  0  0  0  0  0  0  0
   24.4370   15.9890   10.4380 N   0  0  0  0  0  0  0  0  0  0  0  0
   24.7160   16.4320   11.6790 C   0  0  0  0  0  0  0  0  0  0  0  0
   23.9060   16.1930   12.7830 C   0  0  0  0  0  0  0  0  0  0  0  0
   24.3520   16.8150   14.0460 C   0  0  0  0  0  0  0  0  0  0  0  0
   24.3510   16.1650   15.0830 O   0  0  0  0  0  0  0  0  0  0  0  0
   24.8100   18.1080   13.9570 N   0  0  0  0  0  0  0  0  0  0  0  0
   25.2000   18.8630   15.1390 C   0  0  1  0  0  0  0  0  0  0  0  0
   26.2440   18.1250   15.9700 C   0  0  0  0  0  0  0  0  0  0  0  0
   26.6310   18.9780   17.1680 C   0  0  0  0  0  0  0  0  0  0  0  0
   27.1120   20.3450   16.7380 C   0  0  0  0  0  0  0  0  0  0  0  0
   27.9890   20.9540   17.3410 O   0  0  0  0  0  0  0  0  0  0  0  0
   26.4970   20.8960   15.6420 N   0  0  0  0  0  0  0  0  0  0  0  0
   25.7710   20.2140   14.6980 C   0  0  0  0  0  0  0  0  0  0  0  0
   25.5940   20.6770   13.5720 O   0  0  0  0  0  0  0  0  0  0  0  0
   22.7410   15.3980   12.6410 C   0  0  0  0  0  0  0  0  0  0  0  0
   21.9030   15.0340   13.7240 C   0  0  0  0  0  0  0  0  0  0  0  0
   20.7540   14.2640   13.5420 C   0  0  0  0  0  0  0  0  0  0  0  0
   20.4140   13.8240   12.2730 C   0  0  0  0  0  0  0  0  0  0  0  0
   21.2310   14.1410   11.1900 C   0  0  0  0  0  0  0  0  0  0  0  0
   22.4090   14.9180   11.3480 C   0  0  0  0  0  0  0  0  0  0  0  0
   21.9680   16.3550    6.7630 C   0  0  0  0  0  0  0  0  0  0  0  0
   20.9000   17.0830    6.5070 N   0  0  0  0  0  0  0  0  0  0  0  0
   18.9504   19.6134    8.5356 H   0  0  0  0  0  0  0  0  0  0  0  0
   19.8320   19.3891    6.9867 H   0  0  0  0  0  0  0  0  0  0  0  0
   18.0430   19.5504    6.9867 H   0  0  0  0  0  0  0  0  0  0  0  0
   18.2990   17.4220    8.6450 H   0  0  0  0  0  0  0  0  0  0  0  0
   18.1620   17.2821    6.8388 H   0  0  0  0  0  0  0  0  0  0  0  0
   20.2815   15.8282    9.5355 H   0  0  0  0  0  0  0  0  0  0  0  0
   25.6365   17.0157   11.8271 H   0  0  0  0  0  0  0  0  0  0  0  0
   24.8790   18.5537   13.0310 H   0  0  0  0  0  0  0  0  0  0  0  0
   24.3070   18.9993   15.7666 H   0  0  0  0  0  0  0  0  0  0  0  0
   25.8263   17.1693   16.3195 H   0  0  0  0  0  0  0  0  0  0  0  0
   27.1344   17.9314   15.3538 H   0  0  0  0  0  0  0  0  0  0  0  0
   25.7542   19.0962   17.8217 H   0  0  0  0  0  0  0  0  0  0  0  0
   27.4503   18.4744   17.7020 H   0  0  0  0  0  0  0  0  0  0  0  0
   26.5886   21.9142   15.5164 H   0  0  0  0  0  0  0  0  0  0  0  0
   22.1662   15.3685   14.7383 H   0  0  0  0  0  0  0  0  0  0  0  0
   20.1199   14.0070   14.4033 H   0  0  0  0  0  0  0  0  0  0  0  0
   19.5028   13.2268   12.1212 H   0  0  0  0  0  0  0  0  0  0  0  0
   20.9567   13.7804   10.1876 H   0  0  0  0  0  0  0  0  0  0  0  0
   22.8146   16.2213    6.0735 H   0  0  0  0  0  0  0  0  0  0  0  0
  1  2  1  0
  2  3  1  0
  3  4  2  0
  4  5  1  0
  5  6  1  0
  6  7  2  0
  6  8  2  0
  6  9  1  0
  9 10  2  0
 10 11  1  0
 11 12  2  0
 12 13  1  0
 13 14  2  0
 13 15  1  0
 15 16  1  0
 16 17  1  0
 17 18  1  0
 18 19  1  0
 19 20  2  0
 19 21  1  0
 21 22  1  0
 22 23  2  0
 12 24  1  0
 24 25  2  0
 25 26  1  0
 26 27  2  0
 27 28  1  0
 28 29  2  0
  5 30  1  0
 30 31  2  0
 31  3  1  0
 29  9  1  0
 22 16  1  0
 29 24  1  0
  1 32  1  0
  1 33  1  0
  1 34  1  0
  2 35  1  0
  2 36  1  0
  4 37  1  0
 11 38  1  0
 15 39  1  0
 16 40  1  1
 17 41  1  0
 17 42  1  0
 18 43  1  0
 18 44  1  0
 21 45  1  0
 25 46  1  0
 26 47  1  0
 27 48  1  0
 28 49  1  0
 30 50  1  0
M  END
>  <meeko>  (217) 
{"is_sidechain": [true], "free_energy": -11.1, "intermolecular_energy": 0.0, "internal_energy": -11.1, "cluster_size": 16, "cluster_id": 1, "rank_in_cluster": 1}

>  <_RMSD_MCS_to_ref>  (217) 
0.7707574917645053

$$$$
ligand
     RDKit          3D

 50 53  0  0  0  0  0  0  0  0999 V2000
   18.9090   19.1540    7.5370 C   0  0  0  0  0  0  0  0  0  0  0  0
   18.7730   17.6460    7.6780 C   0  0  0  0  0  0  0  0  0  0  0  0
   20.0910   16.9570    7.6260 C   0  0  0  0  0  0  0  0  0  0  0  0
   21.0290   16.8020    8.6280 C   0  0  0  0  0  0  0  0  0  0  0  0
   22.0340   16.0900    8.0370 N   0  0  0  0  0  0  0  0  0  0  0  0
   23.5170   15.7110    8.7290 S   0  0  0  0  0  6  0  0  0  0  0  0
   24.3950   16.8260    8.4250 O   0  0  0  0  0  0  0  0  0  0  0  0
   23.8090   14.3550    8.3010 O   0  0  0  0  0  0  0  0  0  0  0  0
   23.2340   15.6910   10.4760 C   0  0  0  0  0  0  0  0  0  0  0  0
   24.0460   16.4230   11.3090 C   0  0  0  0  0  0  0  0  0  0  0  0
   23.7490   16.3740   12.6700 C   0  0  0  0  0  0  0  0  0  0  0  0
   24.6080   17.2050   13.5410 C   0  0  0  0  0  0  0  0  0  0  0  0
   25.8210   17.2020   13.3850 O   0  0  0  0  0  0  0  0  0  0  0  0
   23.9540   17.9920   14.4560 N   0  0  0  0  0  0  0  0  0  0  0  0
   24.6790   18.8000   15.4240 C   0  0  1  0  0  0  0  0  0  0  0  0
   25.7260   17.9870   16.1780 C   0  0  0  0  0  0  0  0  0  0  0  0
   26.4690   18.8920   17.1480 C   0  0  0  0  0  0  0  0  0  0  0  0
   27.0780   20.0780   16.4370 C   0  0  0  0  0  0  0  0  0  0  0  0
   28.1410   20.5820   16.7850 O   0  0  0  0  0  0  0  0  0  0  0  0
   26.3650   20.5950   15.3830 N   0  0  0  0  0  0  0  0  0  0  0  0
   25.3710   19.9520   14.6900 C   0  0  0  0  0  0  0  0  0  0  0  0
   25.0600   20.2990   13.5510 O   0  0  0  0  0  0  0  0  0  0  0  0
   22.6910   15.5680   13.1640 C   0  0  0  0  0  0  0  0  0  0  0  0
   22.3640   15.3950   14.5330 C   0  0  0  0  0  0  0  0  0  0  0  0
   21.2970   14.5880   14.9260 C   0  0  0  0  0  0  0  0  0  0  0  0
   20.5470   13.9300   13.9630 C   0  0  0  0  0  0  0  0  0  0  0  0
   20.8740   14.0750   12.6140 C   0  0  0  0  0  0  0  0  0  0  0  0
   21.9310   14.8720   12.1970 C   0  0  0  0  0  0  0  0  0  0  0  0
   22.1870   14.9370   10.8830 N   0  0  0  0  0  0  0  0  0  0  0  0
   21.7190   15.8720    6.7350 C   0  0  0  0  0  0  0  0  0  0  0  0
   20.5330   16.3720    6.4550 N   0  0  0  0  0  0  0  0  0  0  0  0
   18.9504   19.6134    8.5356 H   0  0  0  0  0  0  0  0  0  0  0  0
   19.8320   19.3891    6.9867 H   0  0  0  0  0  0  0  0  0  0  0  0
   18.0430   19.5504    6.9867 H   0  0  0  0  0  0  0  0  0  0  0  0
   18.2936   17.4219    8.6423 H   0  0  0  0  0  0  0  0  0  0  0  0
   18.1667   17.2807    6.8360 H   0  0  0  0  0  0  0  0  0  0  0  0
   20.9784   17.1679    9.6641 H   0  0  0  0  0  0  0  0  0  0  0  0
   24.8869   17.0169   10.9216 H   0  0  0  0  0  0  0  0  0  0  0  0
   22.9242   18.0108   14.4571 H   0  0  0  0  0  0  0  0  0  0  0  0
   23.9551   19.1804   16.1597 H   0  0  0  0  0  0  0  0  0  0  0  0
   25.2305   17.1792   16.7365 H   0  0  0  0  0  0  0  0  0  0  0  0
   26.4393   17.5536   15.4615 H   0  0  0  0  0  0  0  0  0  0  0  0
   25.7643   19.2548   17.9107 H   0  0  0  0  0  0  0  0  0  0  0  0
   27.2802   18.3116   17.6117 H   0  0  0  0  0  0  0  0  0  0  0  0
   26.5980   21.5532   15.0857 H   0  0  0  0  0  0  0  0  0  0  0  0
   22.9637   15.9074   15.2997 H   0  0  0  0  0  0  0  0  0  0  0  0
   21.0520   14.4741   15.9923 H   0  0  0  0  0  0  0  0  0  0  0  0
   19.6983   13.2967   14.2609 H   0  0  0  0  0  0  0  0  0  0  0  0
   20.2767   13.5422   11.8594 H   0  0  0  0  0  0  0  0  0  0  0  0
   22.3647   15.3500    6.0135 H   0  0  0  0  0  0  0  0  0  0  0  0
  1  2  1  0
  2  3  1  0
  3  4  2  0
  4  5  1  0
  5  6  1  0
  6  7  2  0
  6  8  2  0
  6  9  1  0
  9 10  2  0
 10 11  1  0
 11 12  1  0
 12 13  2  0
 12 14  1  0
 14 15  1  0
 15 16  1  0
 16 17  1  0
 17 18  1  0
 18 19  2  0
 18 20  1  0
 20 21  1  0
 21 22  2  0
 11 23  2  0
 23 24  1  0
 24 25  2  0
 25 26  1  0
 26 27  2  0
 27 28  1  0
 28 29  2  0
  5 30  1  0
 30 31  2  0
 31  3  1  0
 29  9  1  0
 21 15  1  0
 28 23  1  0
  1 32  1  0
  1 33  1  0
  1 34  1  0
  2 35  1  0
  2 36  1  0
  4 37  1  0
 10 38  1  0
 14 39  1  0
 15 40  1  1
 16 41  1  0
 16 42  1  0
 17 43  1  0
 17 44  1  0
 20 45  1  0
 24 46  1  0
 25 47  1  0
 26 48  1  0
 27 49  1  0
 30 50  1  0
M  END
>  <meeko>  (218) 
{"is_sidechain": [true], "free_energy": -11.1, "intermolecular_energy": 0.0, "internal_energy": -11.1, "cluster_size": 20, "cluster_id": 1, "rank_in_cluster": 1}

>  <_RMSD_MCS_to_ref>  (218) 
0.7040202806422233

$$$$
ligand
     RDKit          3D

 51 54  0  0  0  0  0  0  0  0999 V2000
   18.7970   18.8170    7.7190 C   0  0  0  0  0  0  0  0  0  0  0  0
   18.5280   17.3290    7.8810 C   0  0  0  0  0  0  0  0  0  0  0  0
   19.7840   16.5450    8.0380 C   0  0  0  0  0  0  0  0  0  0  0  0
   20.1470   15.6800    9.0520 C   0  0  0  0  0  0  0  0  0  0  0  0
   21.3950   15.2570    8.6990 N   0  0  0  0  0  0  0  0  0  0  0  0
   22.2410   13.9910    9.4140 S   0  0  0  0  0  6  0  0  0  0  0  0
   23.6350   14.1960    9.0750 O   0  0  0  0  0  0  0  0  0  0  0  0
   21.5220   12.7860    9.0440 O   0  0  0  0  0  0  0  0  0  0  0  0
   22.0390   14.2810   11.1430 C   0  0  0  0  0  0  0  0  0  0  0  0
   23.1300   14.7940   11.8460 C   0  0  0  0  0  0  0  0  0  0  0  0
   22.9610   15.0520   13.1950 C   0  0  0  0  0  0  0  0  0  0  0  0
   24.0870   15.6320   13.9910 C   0  0  0  0  0  0  0  0  0  0  0  0
   24.8270   14.9220   14.6620 O   0  0  0  0  0  0  0  0  0  0  0  0
   24.2210   16.9970   13.8840 N   0  0  0  0  0  0  0  0  0  0  0  0
   25.3450   17.7220   14.4490 C   0  0  2  0  0  0  0  0  0  0  0  0
   25.4540   17.5240   15.9570 C   0  0  0  0  0  0  0  0  0  0  0  0
   26.6310   18.3260   16.4910 C   0  0  0  0  0  0  0  0  0  0  0  0
   26.5130   19.7850   16.1230 C   0  0  0  0  0  0  0  0  0  0  0  0
   26.9270   20.6840   16.8500 O   0  0  0  0  0  0  0  0  0  0  0  0
   25.9450   20.0690   14.9060 N   0  0  0  0  0  0  0  0  0  0  0  0
   25.1790   19.2170   14.1490 C   0  0  0  0  0  0  0  0  0  0  0  0
   24.4260   19.6490   13.2770 O   0  0  0  0  0  0  0  0  0  0  0  0
   21.8050   14.8220   13.8710 N   0  0  0  0  0  0  0  0  0  0  0  0
   20.7760   14.3060   13.1790 C   0  0  0  0  0  0  0  0  0  0  0  0
   20.8390   14.0240   11.8040 C   0  0  0  0  0  0  0  0  0  0  0  0
   19.6960   13.5040   11.1670 N   0  0  0  0  0  0  0  0  0  0  0  0
   18.4740   13.4040   11.7930 C   0  0  0  0  0  0  0  0  0  0  0  0
   17.5020   12.9400   11.2010 O   0  0  0  0  0  0  0  0  0  0  0  0
   18.3790   13.9940   13.2040 C   0  0  0  0  0  0  0  0  0  0  0  0
   19.6510   13.9730   13.9210 N   0  0  0  0  0  0  0  0  0  0  0  0
   21.7350   15.8140    7.5090 C   0  0  0  0  0  0  0  0  0  0  0  0
   20.7770   16.6080    7.0810 N   0  0  0  0  0  0  0  0  0  0  0  0
   18.8815   19.2845    8.7111 H   0  0  0  0  0  0  0  0  0  0  0  0
   19.7359   18.9616    7.1643 H   0  0  0  0  0  0  0  0  0  0  0  0
   17.9682   19.2812    7.1643 H   0  0  0  0  0  0  0  0  0  0  0  0
   17.9016   17.1771    8.7724 H   0  0  0  0  0  0  0  0  0  0  0  0
   18.0208   16.9761    6.9709 H   0  0  0  0  0  0  0  0  0  0  0  0
   19.5635   15.3971    9.9405 H   0  0  0  0  0  0  0  0  0  0  0  0
   24.0904   14.9865   11.3454 H   0  0  0  0  0  0  0  0  0  0  0  0
   23.4939   17.5266   13.3823 H   0  0  0  0  0  0  0  0  0  0  0  0
   26.2648   17.3300   13.9904 H   0  0  0  0  0  0  0  0  0  0  0  0
   24.5272   17.8677   16.4397 H   0  0  0  0  0  0  0  0  0  0  0  0
   25.6083   16.4571   16.1761 H   0  0  0  0  0  0  0  0  0  0  0  0
   26.6595   18.2341   17.5868 H   0  0  0  0  0  0  0  0  0  0  0  0
   27.5536   17.9286   16.0428 H   0  0  0  0  0  0  0  0  0  0  0  0
   26.1091   21.0114   14.5241 H   0  0  0  0  0  0  0  0  0  0  0  0
   19.7777   13.1848   10.1911 H   0  0  0  0  0  0  0  0  0  0  0  0
   18.0389   15.0371   13.1250 H   0  0  0  0  0  0  0  0  0  0  0  0
   17.6720   13.3720   13.7725 H   0  0  0  0  0  0  0  0  0  0  0  0
   19.7100   13.7255   14.9191 H   0  0  0  0  0  0  0  0  0  0  0  0
   22.6794   15.6277    6.9767 H   0  0  0  0  0  0  0  0  0  0  0  0
  1  2  1  0
  2  3  1  0
  3  4  2  0
  4  5  1  0
  5  6  1  0
  6  7  2  0
  6  8  2  0
  6  9  1  0
  9 10  2  0
 10 11  1  0
 11 12  1  0
 12 13  2  0
 12 14  1  0
 14 15  1  0
 15 16  1  0
 16 17  1  0
 17 18  1  0
 18 19  2  0
 18 20  1  0
 20 21  1  0
 21 22  2  0
 11 23  2  0
 23 24  1  0
 24 25  2  0
 25 26  1  0
 26 27  1  0
 27 28  2  0
 27 29  1  0
 29 30  1  0
  5 31  1  0
 31 32  2  0
 32  3  1  0
 25  9  1  0
 21 15  1  0
 30 24  1  0
  1 33  1  0
  1 34  1  0
  1 35  1  0
  2 36  1  0
  2 37  1  0
  4 38  1  0
 10 39  1  0
 14 40  1  0
 15 41  1  6
 16 42  1  0
 16 43  1  0
 17 44  1  0
 17 45  1  0
 20 46  1  0
 26 47  1  0
 29 48  1  0
 29 49  1  0
 30 50  1  0
 31 51  1  0
M  END
>  <meeko>  (219) 
{"is_sidechain": [true], "free_energy": -11.09, "intermolecular_energy": 0.0, "internal_energy": -11.09, "cluster_size": 17, "cluster_id": 1, "rank_in_cluster": 1}

>  <_RMSD_MCS_to_ref>  (219) 
0.6982179697868949

$$$$
ligand
     RDKit          3D

 47 50  0  0  0  0  0  0  0  0999 V2000
   18.9090   19.1540    7.5370 C   0  0  0  0  0  0  0  0  0  0  0  0
   18.7730   17.6460    7.6780 C   0  0  0  0  0  0  0  0  0  0  0  0
   20.0220   16.9310    7.3010 C   0  0  0  0  0  0  0  0  0  0  0  0
   20.6770   15.9150    7.9700 C   0  0  0  0  0  0  0  0  0  0  0  0
   21.7720   15.6580    7.1940 N   0  0  0  0  0  0  0  0  0  0  0  0
   22.8870   14.4360    7.4580 S   0  0  0  0  0  6  0  0  0  0  0  0
   22.4100   13.6540    8.5800 O   0  0  0  0  0  0  0  0  0  0  0  0
   23.1540   13.8580    6.1550 O   0  0  0  0  0  0  0  0  0  0  0  0
   24.3900   15.0760    7.9660 C   0  0  0  0  0  0  0  0  0  0  0  0
   25.6060   14.9710    7.3140 C   0  0  0  0  0  0  0  0  0  0  0  0
   26.5460   15.6140    8.0790 N   0  0  0  0  0  0  0  0  0  0  0  0
   25.9510   16.1260    9.2100 C   0  0  0  0  0  0  0  0  0  0  0  0
   26.4660   16.8490   10.2800 C   0  0  0  0  0  0  0  0  0  0  0  0
   25.5170   17.1770   11.2390 C   0  0  0  0  0  0  0  0  0  0  0  0
   25.9260   17.9540   12.4470 C   0  0  0  0  0  0  0  0  0  0  0  0
   27.0740   18.3660   12.5790 O   0  0  0  0  0  0  0  0  0  0  0  0
   24.9390   18.1620   13.3850 N   0  0  0  0  0  0  0  0  0  0  0  0
   25.2070   18.7870   14.6700 C   0  0  1  0  0  0  0  0  0  0  0  0
   26.2330   18.0040   15.4810 C   0  0  0  0  0  0  0  0  0  0  0  0
   26.4850   18.7130   16.8020 C   0  0  0  0  0  0  0  0  0  0  0  0
   26.9170   20.1440   16.5840 C   0  0  0  0  0  0  0  0  0  0  0  0
   27.6960   20.7180   17.3380 O   0  0  0  0  0  0  0  0  0  0  0  0
   26.3640   20.7950   15.5110 N   0  0  0  0  0  0  0  0  0  0  0  0
   25.7280   20.2110   14.4430 C   0  0  0  0  0  0  0  0  0  0  0  0
   25.5790   20.8200   13.3860 O   0  0  0  0  0  0  0  0  0  0  0  0
   24.2010   16.8370   11.1660 N   0  0  0  0  0  0  0  0  0  0  0  0
   23.7360   16.1490   10.1360 N   0  0  0  0  0  0  0  0  0  0  0  0
   24.6000   15.7920    9.1570 C   0  0  0  0  0  0  0  0  0  0  0  0
   21.7350   16.4490    6.0920 C   0  0  0  0  0  0  0  0  0  0  0  0
   20.6910   17.2510    6.1370 N   0  0  0  0  0  0  0  0  0  0  0  0
   18.9504   19.6134    8.5356 H   0  0  0  0  0  0  0  0  0  0  0  0
   19.8320   19.3891    6.9867 H   0  0  0  0  0  0  0  0  0  0  0  0
   18.0430   19.5504    6.9867 H   0  0  0  0  0  0  0  0  0  0  0  0
   18.5311   17.4085    8.7245 H   0  0  0  0  0  0  0  0  0  0  0  0
   17.9754   17.3139    6.9972 H   0  0  0  0  0  0  0  0  0  0  0  0
   20.3844   15.4257    8.9107 H   0  0  0  0  0  0  0  0  0  0  0  0
   25.7865   14.4634    6.3550 H   0  0  0  0  0  0  0  0  0  0  0  0
   27.5449   15.7005    7.8431 H   0  0  0  0  0  0  0  0  0  0  0  0
   27.5254   17.1343   10.3594 H   0  0  0  0  0  0  0  0  0  0  0  0
   23.9771   17.8642   13.1684 H   0  0  0  0  0  0  0  0  0  0  0  0
   24.2652   18.8038   15.2382 H   0  0  0  0  0  0  0  0  0  0  0  0
   25.8504   16.9913   15.6759 H   0  0  0  0  0  0  0  0  0  0  0  0
   27.1741   17.9387   14.9153 H   0  0  0  0  0  0  0  0  0  0  0  0
   25.5587   18.7049   17.3953 H   0  0  0  0  0  0  0  0  0  0  0  0
   27.2912   18.1841   17.3313 H   0  0  0  0  0  0  0  0  0  0  0  0
   26.4324   21.8227   15.5056 H   0  0  0  0  0  0  0  0  0  0  0  0
   22.4726   16.4240    5.2763 H   0  0  0  0  0  0  0  0  0  0  0  0
  1  2  1  0
  2  3  1  0
  3  4  2  0
  4  5  1  0
  5  6  1  0
  6  7  2  0
  6  8  2  0
  6  9  1  0
  9 10  2  0
 10 11  1  0
 11 12  1  0
 12 13  2  0
 13 14  1  0
 14 15  1  0
 15 16  2  0
 15 17  1  0
 17 18  1  0
 18 19  1  0
 19 20  1  0
 20 21  1  0
 21 22  2  0
 21 23  1  0
 23 24  1  0
 24 25  2  0
 14 26  2  0
 26 27  1  0
 27 28  2  0
  5 29  1  0
 29 30  2  0
 30  3  1  0
 28  9  1  0
 28 12  1  0
 24 18  1  0
  1 31  1  0
  1 32  1  0
  1 33  1  0
  2 34  1  0
  2 35  1  0
  4 36  1  0
 10 37  1  0
 11 38  1  0
 13 39  1  0
 17 40  1  0
 18 41  1  1
 19 42  1  0
 19 43  1  0
 20 44  1  0
 20 45  1  0
 23 46  1  0
 29 47  1  0
M  END
>  <meeko>  (220) 
{"is_sidechain": [true], "free_energy": -11.09, "intermolecular_energy": 0.0, "internal_energy": -11.09, "cluster_size": 17, "cluster_id": 1, "rank_in_cluster": 1}

>  <_RMSD_MCS_to_ref>  (220) 
0.6334418328114715

$$$$
ligand
     RDKit          3D

 45 48  0  0  0  0  0  0  0  0999 V2000
   18.9090   19.1540    7.5370 C   0  0  0  0  0  0  0  0  0  0  0  0
   18.7730   17.6460    7.6780 C   0  0  0  0  0  0  0  0  0  0  0  0
   20.0260   16.9320    7.3140 C   0  0  0  0  0  0  0  0  0  0  0  0
   20.7270   15.9830    8.0330 C   0  0  0  0  0  0  0  0  0  0  0  0
   21.7930   15.6810    7.2340 N   0  0  0  0  0  0  0  0  0  0  0  0
   22.9950   14.5550    7.5910 S   0  0  0  0  0  6  0  0  0  0  0  0
   22.5830   13.3060    6.9750 O   0  0  0  0  0  0  0  0  0  0  0  0
   24.2170   15.2130    7.1620 O   0  0  0  0  0  0  0  0  0  0  0  0
   23.0930   14.3660    9.2040 O   0  0  0  0  0  0  0  0  0  0  0  0
   23.8410   15.2390    9.9510 C   0  0  0  0  0  0  0  0  0  0  0  0
   23.2720   15.7120   11.1220 C   0  0  0  0  0  0  0  0  0  0  0  0
   24.0710   16.5540   11.8620 C   0  0  0  0  0  0  0  0  0  0  0  0
   25.3480   16.8830   11.4690 C   0  0  0  0  0  0  0  0  0  0  0  0
   25.8530   16.3640   10.3120 C   0  0  0  0  0  0  0  0  0  0  0  0
   25.1030   15.5350    9.5410 N   0  0  0  0  0  0  0  0  0  0  0  0
   25.9200   17.7650   12.4720 C   0  0  0  0  0  0  0  0  0  0  0  0
   27.0510   18.2050   12.4310 O   0  0  0  0  0  0  0  0  0  0  0  0
   24.9440   17.9670   13.4120 N   0  0  0  0  0  0  0  0  0  0  0  0
   25.1940   18.6620   14.6660 C   0  0  1  0  0  0  0  0  0  0  0  0
   26.1840   17.9600   15.5910 C   0  0  0  0  0  0  0  0  0  0  0  0
   26.3310   18.7680   16.8720 C   0  0  0  0  0  0  0  0  0  0  0  0
   26.7540   20.1890   16.5790 C   0  0  0  0  0  0  0  0  0  0  0  0
   27.4110   20.8550   17.3740 O   0  0  0  0  0  0  0  0  0  0  0  0
   26.3230   20.7280   15.3920 N   0  0  0  0  0  0  0  0  0  0  0  0
   25.6780   20.0830   14.3600 C   0  0  0  0  0  0  0  0  0  0  0  0
   25.4740   20.6580   13.2920 O   0  0  0  0  0  0  0  0  0  0  0  0
   23.8250   17.2300   13.1320 C   0  0  0  0  0  0  0  0  0  0  0  0
   22.8050   17.0940   13.7800 O   0  0  0  0  0  0  0  0  0  0  0  0
   21.7220   16.4130    6.0940 C   0  0  0  0  0  0  0  0  0  0  0  0
   20.6560   17.1880    6.1100 N   0  0  0  0  0  0  0  0  0  0  0  0
   18.9504   19.6134    8.5356 H   0  0  0  0  0  0  0  0  0  0  0  0
   19.8320   19.3891    6.9867 H   0  0  0  0  0  0  0  0  0  0  0  0
   18.0430   19.5504    6.9867 H   0  0  0  0  0  0  0  0  0  0  0  0
   18.5210   17.4092    8.7222 H   0  0  0  0  0  0  0  0  0  0  0  0
   17.9824   17.3126    6.9897 H   0  0  0  0  0  0  0  0  0  0  0  0
   20.4829   15.5665    9.0214 H   0  0  0  0  0  0  0  0  0  0  0  0
   22.2554   15.4349   11.4377 H   0  0  0  0  0  0  0  0  0  0  0  0
   26.8768   16.6196   10.0013 H   0  0  0  0  0  0  0  0  0  0  0  0
   24.2401   18.6741   15.2136 H   0  0  0  0  0  0  0  0  0  0  0  0
   25.8122   16.9531   15.8317 H   0  0  0  0  0  0  0  0  0  0  0  0
   27.1609   17.8769   15.0922 H   0  0  0  0  0  0  0  0  0  0  0  0
   25.3656   18.7829   17.3991 H   0  0  0  0  0  0  0  0  0  0  0  0
   27.1062   18.2959   17.4934 H   0  0  0  0  0  0  0  0  0  0  0  0
   26.5033   21.7331   15.2575 H   0  0  0  0  0  0  0  0  0  0  0  0
   22.4514   16.3663    5.2720 H   0  0  0  0  0  0  0  0  0  0  0  0
  1  2  1  0
  2  3  1  0
  3  4  2  0
  4  5  1  0
  5  6  1  0
  6  7  2  0
  6  8  2  0
  6  9  1  0
  9 10  1  0
 10 11  2  0
 11 12  1  0
 12 13  2  0
 13 14  1  0
 14 15  2  0
 13 16  1  0
 16 17  2  0
 16 18  1  0
 18 19  1  0
 19 20  1  0
 20 21  1  0
 21 22  1  0
 22 23  2  0
 22 24  1  0
 24 25  1  0
 25 26  2  0
 18 27  1  0
 27 28  2  0
  5 29  1  0
 29 30  2  0
 30  3  1  0
 15 10  1  0
 25 19  1  0
 27 12  1  0
  1 31  1  0
  1 32  1  0
  1 33  1  0
  2 34  1  0
  2 35  1  0
  4 36  1  0
 11 37  1  0
 14 38  1  0
 19 39  1  1
 20 40  1  0
 20 41  1  0
 21 42  1  0
 21 43  1  0
 24 44  1  0
 29 45  1  0
M  END
>  <meeko>  (221) 
{"is_sidechain": [true], "free_energy": -11.09, "intermolecular_energy": 0.0, "internal_energy": -11.09, "cluster_size": 20, "cluster_id": 1, "rank_in_cluster": 1}

>  <_RMSD_MCS_to_ref>  (221) 
1.9919104062850483

$$$$
ligand
     RDKit          3D

 50 53  0  0  0  0  0  0  0  0999 V2000
   18.9090   19.1540    7.5370 C   0  0  0  0  0  0  0  0  0  0  0  0
   18.7730   17.6460    7.6780 C   0  0  0  0  0  0  0  0  0  0  0  0
   20.0270   16.9320    7.3150 C   0  0  0  0  0  0  0  0  0  0  0  0
   20.9330   16.2920    8.1390 C   0  0  0  0  0  0  0  0  0  0  0  0
   21.8980   15.8380    7.2860 N   0  0  0  0  0  0  0  0  0  0  0  0
   23.1610   14.8050    7.6860 S   0  0  0  0  0  6  0  0  0  0  0  0
   24.0160   14.7880    6.5160 O   0  0  0  0  0  0  0  0  0  0  0  0
   22.5190   13.6120    8.2040 O   0  0  0  0  0  0  0  0  0  0  0  0
   24.0810   15.5420    9.0180 C   0  0  0  0  0  0  0  0  0  0  0  0
   25.2420   16.2610    8.7410 C   0  0  0  0  0  0  0  0  0  0  0  0
   25.9130   16.8090    9.8050 C   0  0  0  0  0  0  0  0  0  0  0  0
   25.5020   16.6850   11.0800 N   0  0  0  0  0  0  0  0  0  0  0  0
   24.3800   15.9890   11.3800 C   0  0  0  0  0  0  0  0  0  0  0  0
   23.9560   15.8500   12.7170 C   0  0  0  0  0  0  0  0  0  0  0  0
   24.6970   16.4460   13.8790 C   0  0  0  0  0  0  0  0  0  0  0  0
   24.7090   15.8740   14.9660 O   0  0  0  0  0  0  0  0  0  0  0  0
   25.3490   17.6400   13.6840 N   0  0  0  0  0  0  0  0  0  0  0  0
   26.2230   18.2260   14.6830 C   0  0  2  0  0  0  0  0  0  0  0  0
   25.6500   18.0960   16.0900 C   0  0  0  0  0  0  0  0  0  0  0  0
   26.6010   18.7370   17.0880 C   0  0  0  0  0  0  0  0  0  0  0  0
   26.8820   20.1770   16.7290 C   0  0  0  0  0  0  0  0  0  0  0  0
   27.0810   21.0410   17.5780 O   0  0  0  0  0  0  0  0  0  0  0  0
   26.9380   20.4770   15.3920 N   0  0  0  0  0  0  0  0  0  0  0  0
   26.4350   19.7130   14.3660 C   0  0  0  0  0  0  0  0  0  0  0  0
   26.1970   20.2160   13.2690 O   0  0  0  0  0  0  0  0  0  0  0  0
   22.7980   15.1240   13.0400 C   0  0  0  0  0  0  0  0  0  0  0  0
   22.0420   14.5320   12.0440 C   0  0  0  0  0  0  0  0  0  0  0  0
   22.4440   14.6610   10.7190 C   0  0  0  0  0  0  0  0  0  0  0  0
   23.6130   15.3820   10.3560 C   0  0  0  0  0  0  0  0  0  0  0  0
   21.5630   16.1720    6.0120 C   0  0  0  0  0  0  0  0  0  0  0  0
   20.4210   16.8290    5.9950 N   0  0  0  0  0  0  0  0  0  0  0  0
   18.9504   19.6134    8.5356 H   0  0  0  0  0  0  0  0  0  0  0  0
   19.8320   19.3891    6.9867 H   0  0  0  0  0  0  0  0  0  0  0  0
   18.0430   19.5504    6.9867 H   0  0  0  0  0  0  0  0  0  0  0  0
   18.5201   17.4092    8.7220 H   0  0  0  0  0  0  0  0  0  0  0  0
   17.9830   17.3124    6.9891 H   0  0  0  0  0  0  0  0  0  0  0  0
   20.8874   16.1750    9.2318 H   0  0  0  0  0  0  0  0  0  0  0  0
   25.6061   16.3844    7.7104 H   0  0  0  0  0  0  0  0  0  0  0  0
   26.8329   17.3781    9.6055 H   0  0  0  0  0  0  0  0  0  0  0  0
   25.2118   18.1387   12.7933 H   0  0  0  0  0  0  0  0  0  0  0  0
   27.1779   17.6809   14.6514 H   0  0  0  0  0  0  0  0  0  0  0  0
   24.6745   18.6022   16.1364 H   0  0  0  0  0  0  0  0  0  0  0  0
   25.5239   17.0315   16.3367 H   0  0  0  0  0  0  0  0  0  0  0  0
   26.1485   18.6989   18.0899 H   0  0  0  0  0  0  0  0  0  0  0  0
   27.5506   18.1822   17.0694 H   0  0  0  0  0  0  0  0  0  0  0  0
   27.4013   21.3593   15.1317 H   0  0  0  0  0  0  0  0  0  0  0  0
   22.4902   15.0254   14.0914 H   0  0  0  0  0  0  0  0  0  0  0  0
   21.1335   13.9659   12.2972 H   0  0  0  0  0  0  0  0  0  0  0  0
   21.8394   14.1912    9.9292 H   0  0  0  0  0  0  0  0  0  0  0  0
   22.1606   15.9284    5.1212 H   0  0  0  0  0  0  0  0  0  0  0  0
  1  2  1  0
  2  3  1  0
  3  4  2  0
  4  5  1  0
  5  6  1  0
  6  7  2  0
  6  8  2  0
  6  9  1  0
  9 10  2  0
 10 11  1  0
 11 12  2  0
 12 13  1  0
 13 14  2  0
 14 15  1  0
 15 16  2  0
 15 17  1  0
 17 18  1  0
 18 19  1  0
 19 20  1  0
 20 21  1  0
 21 22  2  0
 21 23  1  0
 23 24  1  0
 24 25  2  0
 14 26  1  0
 26 27  2  0
 27 28  1  0
 28 29  2  0
  5 30  1  0
 30 31  2  0
 31  3  1  0
 29  9  1  0
 29 13  1  0
 24 18  1  0
  1 32  1  0
  1 33  1  0
  1 34  1  0
  2 35  1  0
  2 36  1  0
  4 37  1  0
 10 38  1  0
 11 39  1  0
 17 40  1  0
 18 41  1  1
 19 42  1  0
 19 43  1  0
 20 44  1  0
 20 45  1  0
 23 46  1  0
 26 47  1  0
 27 48  1  0
 28 49  1  0
 30 50  1  0
M  END
>  <meeko>  (222) 
{"is_sidechain": [true], "free_energy": -11.09, "intermolecular_energy": 0.0, "internal_energy": -11.09, "cluster_size": 10, "cluster_id": 1, "rank_in_cluster": 1}

>  <_RMSD_MCS_to_ref>  (222) 
0.974977207710803

$$$$
ligand
     RDKit          3D

 50 53  0  0  0  0  0  0  0  0999 V2000
   18.9090   19.1540    7.5370 C   0  0  0  0  0  0  0  0  0  0  0  0
   18.7730   17.6460    7.6780 C   0  0  0  0  0  0  0  0  0  0  0  0
   20.0890   16.9540    7.6070 C   0  0  0  0  0  0  0  0  0  0  0  0
   20.8480   16.4220    8.6310 C   0  0  0  0  0  0  0  0  0  0  0  0
   21.9450   15.9100    8.0020 N   0  0  0  0  0  0  0  0  0  0  0  0
   23.2710   15.2110    8.7590 S   0  0  0  0  0  6  0  0  0  0  0  0
   23.1620   13.7990    8.4430 O   0  0  0  0  0  0  0  0  0  0  0  0
   24.4320   15.9900    8.3830 O   0  0  0  0  0  0  0  0  0  0  0  0
   22.9610   15.4300   10.4950 C   0  0  0  0  0  0  0  0  0  0  0  0
   23.7850   16.3380   11.1640 C   0  0  0  0  0  0  0  0  0  0  0  0
   23.5920   16.4900   12.5190 C   0  0  0  0  0  0  0  0  0  0  0  0
   24.4550   17.4320   13.3030 C   0  0  0  0  0  0  0  0  0  0  0  0
   25.5890   17.7180   12.9380 O   0  0  0  0  0  0  0  0  0  0  0  0
   23.8750   17.9190   14.4510 N   0  0  0  0  0  0  0  0  0  0  0  0
   24.6070   18.7130   15.4210 C   0  0  1  0  0  0  0  0  0  0  0  0
   25.7200   17.9140   16.0900 C   0  0  0  0  0  0  0  0  0  0  0  0
   26.4620   18.8030   17.0760 C   0  0  0  0  0  0  0  0  0  0  0  0
   26.9910   20.0470   16.4020 C   0  0  0  0  0  0  0  0  0  0  0  0
   28.0390   20.5850   16.7440 O   0  0  0  0  0  0  0  0  0  0  0  0
   26.2210   20.5770   15.3980 N   0  0  0  0  0  0  0  0  0  0  0  0
   25.2180   19.9300   14.7170 C   0  0  0  0  0  0  0  0  0  0  0  0
   24.8380   20.3360   13.6200 O   0  0  0  0  0  0  0  0  0  0  0  0
   22.6560   15.8110   13.2270 N   0  0  0  0  0  0  0  0  0  0  0  0
   21.8570   14.9570   12.5750 C   0  0  0  0  0  0  0  0  0  0  0  0
   20.9060   14.2850   13.3290 C   0  0  0  0  0  0  0  0  0  0  0  0
   20.0140   13.3790   12.7580 C   0  0  0  0  0  0  0  0  0  0  0  0
   20.0650   13.1410   11.3950 C   0  0  0  0  0  0  0  0  0  0  0  0
   21.0130   13.8030   10.6150 C   0  0  0  0  0  0  0  0  0  0  0  0
   21.9430   14.7160   11.1840 C   0  0  0  0  0  0  0  0  0  0  0  0
   21.8300   16.1130    6.6650 C   0  0  0  0  0  0  0  0  0  0  0  0
   20.7180   16.7630    6.3930 N   0  0  0  0  0  0  0  0  0  0  0  0
   18.9504   19.6134    8.5356 H   0  0  0  0  0  0  0  0  0  0  0  0
   19.8320   19.3891    6.9867 H   0  0  0  0  0  0  0  0  0  0  0  0
   18.0430   19.5504    6.9867 H   0  0  0  0  0  0  0  0  0  0  0  0
   18.3066   17.4215    8.6486 H   0  0  0  0  0  0  0  0  0  0  0  0
   18.1550   17.2830    6.8435 H   0  0  0  0  0  0  0  0  0  0  0  0
   20.6202   16.4132    9.7071 H   0  0  0  0  0  0  0  0  0  0  0  0
   24.5580   16.9094   10.6293 H   0  0  0  0  0  0  0  0  0  0  0  0
   22.8819   17.7121   14.6296 H   0  0  0  0  0  0  0  0  0  0  0  0
   23.8990   19.0273   16.2020 H   0  0  0  0  0  0  0  0  0  0  0  0
   25.2851   17.0569   16.6249 H   0  0  0  0  0  0  0  0  0  0  0  0
   26.4216   17.5515   15.3242 H   0  0  0  0  0  0  0  0  0  0  0  0
   25.7734   19.0972   17.8818 H   0  0  0  0  0  0  0  0  0  0  0  0
   27.3146   18.2375   17.4801 H   0  0  0  0  0  0  0  0  0  0  0  0
   26.4129   21.5526   15.1290 H   0  0  0  0  0  0  0  0  0  0  0  0
   20.8543   14.4731   14.4116 H   0  0  0  0  0  0  0  0  0  0  0  0
   19.2758   12.8575   13.3849 H   0  0  0  0  0  0  0  0  0  0  0  0
   19.3621   12.4341   10.9301 H   0  0  0  0  0  0  0  0  0  0  0  0
   21.0420   13.6140    9.5317 H   0  0  0  0  0  0  0  0  0  0  0  0
   22.5626   15.7812    5.9145 H   0  0  0  0  0  0  0  0  0  0  0  0
  1  2  1  0
  2  3  1  0
  3  4  2  0
  4  5  1  0
  5  6  1  0
  6  7  2  0
  6  8  2  0
  6  9  1  0
  9 10  2  0
 10 11  1  0
 11 12  1  0
 12 13  2  0
 12 14  1  0
 14 15  1  0
 15 16  1  0
 16 17  1  0
 17 18  1  0
 18 19  2  0
 18 20  1  0
 20 21  1  0
 21 22  2  0
 11 23  2  0
 23 24  1  0
 24 25  2  0
 25 26  1  0
 26 27  2  0
 27 28  1  0
 28 29  2  0
  5 30  1  0
 30 31  2  0
 31  3  1  0
 29  9  1  0
 21 15  1  0
 29 24  1  0
  1 32  1  0
  1 33  1  0
  1 34  1  0
  2 35  1  0
  2 36  1  0
  4 37  1  0
 10 38  1  0
 14 39  1  0
 15 40  1  1
 16 41  1  0
 16 42  1  0
 17 43  1  0
 17 44  1  0
 20 45  1  0
 25 46  1  0
 26 47  1  0
 27 48  1  0
 28 49  1  0
 30 50  1  0
M  END
>  <meeko>  (223) 
{"is_sidechain": [true], "free_energy": -11.09, "intermolecular_energy": 0.0, "internal_energy": -11.09, "cluster_size": 18, "cluster_id": 1, "rank_in_cluster": 1}

>  <_RMSD_MCS_to_ref>  (223) 
0.65053405410905

$$$$
ligand
     RDKit          3D

 49 52  0  0  0  0  0  0  0  0999 V2000
   18.9090   19.1540    7.5370 C   0  0  0  0  0  0  0  0  0  0  0  0
   18.7730   17.6460    7.6780 C   0  0  0  0  0  0  0  0  0  0  0  0
   20.0950   16.9640    7.7200 C   0  0  0  0  0  0  0  0  0  0  0  0
   20.8240   16.5570    8.8190 C   0  0  0  0  0  0  0  0  0  0  0  0
   21.9360   15.9640    8.2880 N   0  0  0  0  0  0  0  0  0  0  0  0
   23.3290   15.5440    9.1380 S   0  0  0  0  0  6  0  0  0  0  0  0
   23.6530   14.1950    8.7140 O   0  0  0  0  0  0  0  0  0  0  0  0
   24.2380   16.6620    8.9730 O   0  0  0  0  0  0  0  0  0  0  0  0
   22.8080   15.4880   10.8350 C   0  0  0  0  0  0  0  0  0  0  0  0
   21.9310   14.5140   11.2640 C   0  0  0  0  0  0  0  0  0  0  0  0
   21.6440   14.5710   12.6110 C   0  0  0  0  0  0  0  0  0  0  0  0
   22.1890   15.5190   13.4750 C   0  0  0  0  0  0  0  0  0  0  0  0
   23.0450   16.4470   12.9460 C   0  0  0  0  0  0  0  0  0  0  0  0
   23.7200   17.4860   13.7830 C   0  0  0  0  0  0  0  0  0  0  0  0
   23.1880   17.9420   14.7880 O   0  0  0  0  0  0  0  0  0  0  0  0
   24.9760   17.8470   13.3330 N   0  0  0  0  0  0  0  0  0  0  0  0
   25.9480   18.4340   14.2400 C   0  0  2  0  0  0  0  0  0  0  0  0
   25.6970   17.9810   15.6710 C   0  0  0  0  0  0  0  0  0  0  0  0
   26.7160   18.6280   16.5940 C   0  0  0  0  0  0  0  0  0  0  0  0
   26.6920   20.1340   16.4700 C   0  0  0  0  0  0  0  0  0  0  0  0
   26.9470   20.8740   17.4150 O   0  0  0  0  0  0  0  0  0  0  0  0
   26.4080   20.6450   15.2290 N   0  0  0  0  0  0  0  0  0  0  0  0
   25.8410   19.9660   14.1750 C   0  0  0  0  0  0  0  0  0  0  0  0
   25.3050   20.5770   13.2510 O   0  0  0  0  0  0  0  0  0  0  0  0
   23.3640   16.4550   11.6230 N   0  0  0  0  0  0  0  0  0  0  0  0
   21.7070   15.3020   14.8640 C   0  0  0  0  0  0  0  0  0  0  0  0
   20.8270   14.1650   14.6980 N   0  0  0  0  0  0  0  0  0  0  0  0
   20.7720   13.7020   13.4030 C   0  0  0  0  0  0  0  0  0  0  0  0
   20.1340   12.7640   12.9750 O   0  0  0  0  0  0  0  0  0  0  0  0
   21.8750   16.0480    6.9310 C   0  0  0  0  0  0  0  0  0  0  0  0
   20.7750   16.6690    6.5540 N   0  0  0  0  0  0  0  0  0  0  0  0
   18.9504   19.6134    8.5356 H   0  0  0  0  0  0  0  0  0  0  0  0
   19.8320   19.3891    6.9867 H   0  0  0  0  0  0  0  0  0  0  0  0
   18.0430   19.5504    6.9867 H   0  0  0  0  0  0  0  0  0  0  0  0
   18.2305   17.4247    8.6090 H   0  0  0  0  0  0  0  0  0  0  0  0
   18.2280   17.2723    6.7986 H   0  0  0  0  0  0  0  0  0  0  0  0
   20.5684   16.6815    9.8816 H   0  0  0  0  0  0  0  0  0  0  0  0
   21.4989   13.7587   10.5911 H   0  0  0  0  0  0  0  0  0  0  0  0
   25.2256   17.6985   12.3448 H   0  0  0  0  0  0  0  0  0  0  0  0
   26.9527   18.1058   13.9354 H   0  0  0  0  0  0  0  0  0  0  0  0
   24.6835   18.2792   15.9774 H   0  0  0  0  0  0  0  0  0  0  0  0
   25.7914   16.8867   15.7307 H   0  0  0  0  0  0  0  0  0  0  0  0
   26.4852   18.3504   17.6331 H   0  0  0  0  0  0  0  0  0  0  0  0
   27.7172   18.2724   16.3090 H   0  0  0  0  0  0  0  0  0  0  0  0
   26.6425   21.6353   15.0704 H   0  0  0  0  0  0  0  0  0  0  0  0
   22.5389   15.0685   15.5447 H   0  0  0  0  0  0  0  0  0  0  0  0
   21.2189   16.1818   15.3086 H   0  0  0  0  0  0  0  0  0  0  0  0
   20.2944   13.7439   15.4725 H   0  0  0  0  0  0  0  0  0  0  0  0
   22.6378   15.6526    6.2441 H   0  0  0  0  0  0  0  0  0  0  0  0
  1  2  1  0
  2  3  1  0
  3  4  2  0
  4  5  1  0
  5  6  1  0
  6  7  2  0
  6  8  2  0
  6  9  1  0
  9 10  2  0
 10 11  1  0
 11 12  2  0
 12 13  1  0
 13 14  1  0
 14 15  2  0
 14 16  1  0
 16 17  1  0
 17 18  1  0
 18 19  1  0
 19 20  1  0
 20 21  2  0
 20 22  1  0
 22 23  1  0
 23 24  2  0
 13 25  2  0
 12 26  1  0
 26 27  1  0
 27 28  1  0
 28 29  2  0
  5 30  1  0
 30 31  2  0
 31  3  1  0
 25  9  1  0
 28 11  1  0
 23 17  1  0
  1 32  1  0
  1 33  1  0
  1 34  1  0
  2 35  1  0
  2 36  1  0
  4 37  1  0
 10 38  1  0
 16 39  1  0
 17 40  1  6
 18 41  1  0
 18 42  1  0
 19 43  1  0
 19 44  1  0
 22 45  1  0
 26 46  1  0
 26 47  1  0
 27 48  1  0
 30 49  1  0
M  END
>  <meeko>  (224) 
{"is_sidechain": [true], "free_energy": -11.09, "intermolecular_energy": 0.0, "internal_energy": -11.09, "cluster_size": 19, "cluster_id": 1, "rank_in_cluster": 1}

>  <_RMSD_MCS_to_ref>  (224) 
0.6547884306315206

$$$$
ligand
     RDKit          3D

 55 59  0  0  0  0  0  0  0  0999 V2000
   18.9090   19.1540    7.5370 C   0  0  0  0  0  0  0  0  0  0  0  0
   18.7730   17.6460    7.6780 C   0  0  0  0  0  0  0  0  0  0  0  0
   20.0940   16.9610    7.6620 C   0  0  0  0  0  0  0  0  0  0  0  0
   21.0160   16.8300    8.6820 C   0  0  0  0  0  0  0  0  0  0  0  0
   22.0370   16.1170    8.1190 N   0  0  0  0  0  0  0  0  0  0  0  0
   23.4540   15.6580    8.8930 S   0  0  0  0  0  6  0  0  0  0  0  0
   24.4090   16.7320    8.7020 O   0  0  0  0  0  0  0  0  0  0  0  0
   23.7150   14.3110    8.4130 O   0  0  0  0  0  0  0  0  0  0  0  0
   23.0990   15.5350   10.6100 C   0  0  0  0  0  0  0  0  0  0  0  0
   24.0230   16.0630   11.5330 C   0  0  0  0  0  0  0  0  0  0  0  0
   23.7830   15.9790   12.9120 C   0  0  0  0  0  0  0  0  0  0  0  0
   24.7410   16.5330   13.9100 C   0  0  0  0  0  0  0  0  0  0  0  0
   25.3420   15.7840   14.6710 O   0  0  0  0  0  0  0  0  0  0  0  0
   24.9300   17.8980   13.8980 N   0  0  0  0  0  0  0  0  0  0  0  0
   25.9460   18.5200   14.7370 C   0  0  2  0  0  0  0  0  0  0  0  0
   25.7800   18.1510   16.2080 C   0  0  0  0  0  0  0  0  0  0  0  0
   26.8430   18.8600   17.0310 C   0  0  0  0  0  0  0  0  0  0  0  0
   26.7980   20.3550   16.8180 C   0  0  0  0  0  0  0  0  0  0  0  0
   27.0860   21.1550   17.7030 O   0  0  0  0  0  0  0  0  0  0  0  0
   26.4500   20.7880   15.5640 N   0  0  0  0  0  0  0  0  0  0  0  0
   25.8400   20.0410   14.5860 C   0  0  0  0  0  0  0  0  0  0  0  0
   25.2630   20.5750   13.6410 O   0  0  0  0  0  0  0  0  0  0  0  0
   22.6050   15.3870   13.4010 C   0  0  0  0  0  0  0  0  0  0  0  0
   21.7080   14.8770   12.4610 C   0  0  0  0  0  0  0  0  0  0  0  0
   21.9260   14.9340   11.0760 C   0  0  0  0  0  0  0  0  0  0  0  0
   20.8800   14.3590   10.3790 N   0  0  0  0  0  0  0  0  0  0  0  0
   20.0530   13.9590   11.3070 C   0  0  0  0  0  0  0  0  0  0  0  0
   20.5130   14.2580   12.5510 N   0  0  0  0  0  0  0  0  0  0  0  0
   19.6230   13.8290   13.6070 C   0  0  0  0  0  0  0  0  0  0  0  0
   18.6830   12.8630   12.8600 C   0  0  0  0  0  0  0  0  0  0  0  0
   18.7520   13.2680   11.3640 C   0  0  0  0  0  0  0  0  0  0  0  0
   21.7360   15.8570    6.8200 C   0  0  0  0  0  0  0  0  0  0  0  0
   20.5490   16.3430    6.5140 N   0  0  0  0  0  0  0  0  0  0  0  0
   18.9504   19.6134    8.5356 H   0  0  0  0  0  0  0  0  0  0  0  0
   19.8320   19.3891    6.9867 H   0  0  0  0  0  0  0  0  0  0  0  0
   18.0430   19.5504    6.9867 H   0  0  0  0  0  0  0  0  0  0  0  0
   18.2692   17.4228    8.6300 H   0  0  0  0  0  0  0  0  0  0  0  0
   18.1896   17.2769    6.8216 H   0  0  0  0  0  0  0  0  0  0  0  0
   20.9449   17.2118    9.7111 H   0  0  0  0  0  0  0  0  0  0  0  0
   24.9417   16.5459   11.1684 H   0  0  0  0  0  0  0  0  0  0  0  0
   24.3451   18.4865   13.2877 H   0  0  0  0  0  0  0  0  0  0  0  0
   26.9312   18.1553   14.4108 H   0  0  0  0  0  0  0  0  0  0  0  0
   24.7823   18.4599   16.5532 H   0  0  0  0  0  0  0  0  0  0  0  0
   25.8886   17.0629   16.3277 H   0  0  0  0  0  0  0  0  0  0  0  0
   26.6735   18.6449   18.0964 H   0  0  0  0  0  0  0  0  0  0  0  0
   27.8299   18.4940   16.7114 H   0  0  0  0  0  0  0  0  0  0  0  0
   26.6671   21.7681   15.3334 H   0  0  0  0  0  0  0  0  0  0  0  0
   22.3989   15.3282   14.4799 H   0  0  0  0  0  0  0  0  0  0  0  0
   20.1725   13.3127   14.4079 H   0  0  0  0  0  0  0  0  0  0  0  0
   19.1007   14.6559   14.1105 H   0  0  0  0  0  0  0  0  0  0  0  0
   19.0207   11.8243   12.9904 H   0  0  0  0  0  0  0  0  0  0  0  0
   17.6547   12.9233   13.2461 H   0  0  0  0  0  0  0  0  0  0  0  0
   18.7365   12.3855   10.7075 H   0  0  0  0  0  0  0  0  0  0  0  0
   17.9034   13.8804   11.0253 H   0  0  0  0  0  0  0  0  0  0  0  0
   22.3911   15.3165    6.1210 H   0  0  0  0  0  0  0  0  0  0  0  0
  1  2  1  0
  2  3  1  0
  3  4  2  0
  4  5  1  0
  5  6  1  0
  6  7  2  0
  6  8  2  0
  6  9  1  0
  9 10  2  0
 10 11  1  0
 11 12  1  0
 12 13  2  0
 12 14  1  0
 14 15  1  0
 15 16  1  0
 16 17  1  0
 17 18  1  0
 18 19  2  0
 18 20  1  0
 20 21  1  0
 21 22  2  0
 11 23  2  0
 23 24  1  0
 24 25  2  0
 25 26  1  0
 26 27  2  0
 27 28  1  0
 28 29  1  0
 29 30  1  0
 30 31  1  0
  5 32  1  0
 32 33  2  0
 33  3  1  0
 25  9  1  0
 31 27  1  0
 21 15  1  0
 28 24  1  0
  1 34  1  0
  1 35  1  0
  1 36  1  0
  2 37  1  0
  2 38  1  0
  4 39  1  0
 10 40  1  0
 14 41  1  0
 15 42  1  6
 16 43  1  0
 16 44  1  0
 17 45  1  0
 17 46  1  0
 20 47  1  0
 23 48  1  0
 29 49  1  0
 29 50  1  0
 30 51  1  0
 30 52  1  0
 31 53  1  0
 31 54  1  0
 32 55  1  0
M  END
>  <meeko>  (225) 
{"is_sidechain": [true], "free_energy": -11.09, "intermolecular_energy": 0.0, "internal_energy": -11.09, "cluster_size": 20, "cluster_id": 1, "rank_in_cluster": 1}

>  <_RMSD_MCS_to_ref>  (225) 
0.7523715098864984

$$$$
ligand
     RDKit          3D

 56 60  0  0  0  0  0  0  0  0999 V2000
   18.9090   19.1540    7.5370 C   0  0  0  0  0  0  0  0  0  0  0  0
   18.7730   17.6460    7.6780 C   0  0  0  0  0  0  0  0  0  0  0  0
   19.6480   16.9110    6.7250 C   0  0  0  0  0  0  0  0  0  0  0  0
   20.1010   15.6080    6.7890 C   0  0  0  0  0  0  0  0  0  0  0  0
   20.8440   15.4550    5.6530 N   0  0  0  0  0  0  0  0  0  0  0  0
   21.8280   14.1420    5.2920 S   0  0  0  0  0  6  0  0  0  0  0  0
   22.2340   14.3190    3.9110 O   0  0  0  0  0  0  0  0  0  0  0  0
   21.1040   12.9700    5.7460 O   0  0  0  0  0  0  0  0  0  0  0  0
   23.2370   14.3850    6.3370 C   0  0  0  0  0  0  0  0  0  0  0  0
   24.5150   14.1070    5.8480 C   0  0  0  0  0  0  0  0  0  0  0  0
   25.6160   14.2950    6.6800 C   0  0  0  0  0  0  0  0  0  0  0  0
   25.4380   14.7630    7.9850 C   0  0  0  0  0  0  0  0  0  0  0  0
   24.1570   15.0610    8.4840 C   0  0  0  0  0  0  0  0  0  0  0  0
   23.9770   15.5610    9.8570 C   0  0  0  0  0  0  0  0  0  0  0  0
   22.7810   15.2910   10.5680 C   0  0  0  0  0  0  0  0  0  0  0  0
   22.5840   15.7540   11.8730 C   0  0  0  0  0  0  0  0  0  0  0  0
   23.6060   16.4840   12.4460 C   0  0  0  0  0  0  0  0  0  0  0  0
   24.7930   16.7680   11.7760 C   0  0  0  0  0  0  0  0  0  0  0  0
   24.9910   16.3160   10.4820 C   0  0  0  0  0  0  0  0  0  0  0  0
   25.6880   17.5840   12.6490 C   0  0  0  0  0  0  0  0  0  0  0  0
   24.9360   17.6570   13.8960 N   0  0  0  0  0  0  0  0  0  0  0  0
   25.2770   18.5590   14.9900 C   0  0  1  0  0  0  0  0  0  0  0  0
   26.2920   17.9500   15.9530 C   0  0  0  0  0  0  0  0  0  0  0  0
   26.5280   18.9080   17.1100 C   0  0  0  0  0  0  0  0  0  0  0  0
   26.9650   20.2660   16.6130 C   0  0  0  0  0  0  0  0  0  0  0  0
   27.7840   20.9540   17.2140 O   0  0  0  0  0  0  0  0  0  0  0  0
   26.3840   20.7090   15.4520 N   0  0  0  0  0  0  0  0  0  0  0  0
   25.8160   19.9090   14.4860 C   0  0  0  0  0  0  0  0  0  0  0  0
   25.7770   20.2820   13.3160 O   0  0  0  0  0  0  0  0  0  0  0  0
   23.6760   17.0910   13.7790 C   0  0  0  0  0  0  0  0  0  0  0  0
   22.7800   17.0800   14.6010 O   0  0  0  0  0  0  0  0  0  0  0  0
   23.0550   14.8700    7.6380 C   0  0  0  0  0  0  0  0  0  0  0  0
   20.8670   16.6320    4.9760 C   0  0  0  0  0  0  0  0  0  0  0  0
   20.1400   17.5370    5.5960 N   0  0  0  0  0  0  0  0  0  0  0  0
   18.9504   19.6134    8.5356 H   0  0  0  0  0  0  0  0  0  0  0  0
   19.8320   19.3891    6.9867 H   0  0  0  0  0  0  0  0  0  0  0  0
   18.0430   19.5504    6.9867 H   0  0  0  0  0  0  0  0  0  0  0  0
   19.0478   17.3600    8.7040 H   0  0  0  0  0  0  0  0  0  0  0  0
   17.7299   17.3786    7.4536 H   0  0  0  0  0  0  0  0  0  0  0  0
   19.9077   14.8634    7.5752 H   0  0  0  0  0  0  0  0  0  0  0  0
   24.6505   13.7440    4.8185 H   0  0  0  0  0  0  0  0  0  0  0  0
   26.6279   14.0747    6.3093 H   0  0  0  0  0  0  0  0  0  0  0  0
   26.3157   14.9008    8.6336 H   0  0  0  0  0  0  0  0  0  0  0  0
   21.9886   14.7031   10.0817 H   0  0  0  0  0  0  0  0  0  0  0  0
   21.6530   15.5450   12.4203 H   0  0  0  0  0  0  0  0  0  0  0  0
   25.9262   16.5427    9.9491 H   0  0  0  0  0  0  0  0  0  0  0  0
   26.6577   17.0868   12.7987 H   0  0  0  0  0  0  0  0  0  0  0  0
   25.9309   18.5701   12.2263 H   0  0  0  0  0  0  0  0  0  0  0  0
   24.3333   18.7282   15.5293 H   0  0  0  0  0  0  0  0  0  0  0  0
   25.9045   16.9959   16.3397 H   0  0  0  0  0  0  0  0  0  0  0  0
   27.2398   17.7722   15.4239 H   0  0  0  0  0  0  0  0  0  0  0  0
   25.5943   19.0181   17.6811 H   0  0  0  0  0  0  0  0  0  0  0  0
   27.3251   18.4965   17.7465 H   0  0  0  0  0  0  0  0  0  0  0  0
   26.3716   21.7260   15.2891 H   0  0  0  0  0  0  0  0  0  0  0  0
   22.0420   15.1024    7.9984 H   0  0  0  0  0  0  0  0  0  0  0  0
   21.4171   16.8050    4.0392 H   0  0  0  0  0  0  0  0  0  0  0  0
  1  2  1  0
  2  3  1  0
  3  4  2  0
  4  5  1  0
  5  6  1  0
  6  7  2  0
  6  8  2  0
  6  9  1  0
  9 10  2  0
 10 11  1  0
 11 12  2  0
 12 13  1  0
 13 14  1  0
 14 15  2  0
 15 16  1  0
 16 17  2  0
 17 18  1  0
 18 19  2  0
 18 20  1  0
 20 21  1  0
 21 22  1  0
 22 23  1  0
 23 24  1  0
 24 25  1  0
 25 26  2  0
 25 27  1  0
 27 28  1  0
 28 29  2  0
 21 30  1  0
 30 31  2  0
 13 32  2  0
  5 33  1  0
 33 34  2  0
 34  3  1  0
 32  9  1  0
 19 14  1  0
 28 22  1  0
 30 17  1  0
  1 35  1  0
  1 36  1  0
  1 37  1  0
  2 38  1  0
  2 39  1  0
  4 40  1  0
 10 41  1  0
 11 42  1  0
 12 43  1  0
 15 44  1  0
 16 45  1  0
 19 46  1  0
 20 47  1  0
 20 48  1  0
 22 49  1  1
 23 50  1  0
 23 51  1  0
 24 52  1  0
 24 53  1  0
 27 54  1  0
 32 55  1  0
 33 56  1  0
M  END
>  <meeko>  (226) 
{"is_sidechain": [true], "free_energy": -11.09, "intermolecular_energy": 0.0, "internal_energy": -11.09, "cluster_size": 19, "cluster_id": 1, "rank_in_cluster": 1}

>  <_RMSD_MCS_to_ref>  (226) 
0.741969675930223

$$$$
ligand
     RDKit          3D

 54 58  0  0  0  0  0  0  0  0999 V2000
   18.9090   19.1540    7.5370 C   0  0  0  0  0  0  0  0  0  0  0  0
   18.7730   17.6460    7.6780 C   0  0  0  0  0  0  0  0  0  0  0  0
   20.0900   16.9560    7.6390 C   0  0  0  0  0  0  0  0  0  0  0  0
   20.5580   15.9320    8.4400 C   0  0  0  0  0  0  0  0  0  0  0  0
   21.8090   15.6750    7.9560 N   0  0  0  0  0  0  0  0  0  0  0  0
   22.9110   14.5910    8.6050 S   0  0  0  0  0  6  0  0  0  0  0  0
   23.6520   14.1040    7.4580 O   0  0  0  0  0  0  0  0  0  0  0  0
   22.1700   13.6860    9.4630 O   0  0  0  0  0  0  0  0  0  0  0  0
   24.0160   15.5460    9.6230 C   0  0  0  0  0  0  0  0  0  0  0  0
   23.5950   15.8440   10.9300 C   0  0  0  0  0  0  0  0  0  0  0  0
   24.4320   16.6150   11.7080 C   0  0  0  0  0  0  0  0  0  0  0  0
   25.6480   17.1080   11.2460 C   0  0  0  0  0  0  0  0  0  0  0  0
   26.0650   16.8300    9.9550 C   0  0  0  0  0  0  0  0  0  0  0  0
   25.2480   16.0400    9.1130 C   0  0  0  0  0  0  0  0  0  0  0  0
   25.7330   15.7450    7.7640 C   0  0  0  0  0  0  0  0  0  0  0  0
   26.5920   14.6970    7.4940 C   0  0  0  0  0  0  0  0  0  0  0  0
   26.9460   14.5380    6.1750 C   0  0  0  0  0  0  0  0  0  0  0  0
   26.4920   15.3280    5.1850 N   0  0  0  0  0  0  0  0  0  0  0  0
   25.6640   16.3140    5.5550 C   0  0  0  0  0  0  0  0  0  0  0  0
   25.2560   16.5650    6.8090 N   0  0  0  0  0  0  0  0  0  0  0  0
   26.3120   17.9170   12.3100 C   0  0  0  0  0  0  0  0  0  0  0  0
   25.4010   17.7640   13.4370 N   0  0  0  0  0  0  0  0  0  0  0  0
   25.4670   18.5860   14.6410 C   0  0  1  0  0  0  0  0  0  0  0  0
   26.3480   17.9700   15.7230 C   0  0  0  0  0  0  0  0  0  0  0  0
   26.2990   18.8410   16.9700 C   0  0  0  0  0  0  0  0  0  0  0  0
   26.6940   20.2650   16.6570 C   0  0  0  0  0  0  0  0  0  0  0  0
   27.3410   20.9550   17.4390 O   0  0  0  0  0  0  0  0  0  0  0  0
   26.2820   20.7650   15.4480 N   0  0  0  0  0  0  0  0  0  0  0  0
   25.9650   20.0100   14.3420 C   0  0  0  0  0  0  0  0  0  0  0  0
   26.1000   20.4750   13.2120 O   0  0  0  0  0  0  0  0  0  0  0  0
   24.2510   17.0730   13.0890 C   0  0  0  0  0  0  0  0  0  0  0  0
   23.2640   16.8630   13.7670 O   0  0  0  0  0  0  0  0  0  0  0  0
   22.0950   16.5630    6.9700 C   0  0  0  0  0  0  0  0  0  0  0  0
   21.0550   17.3340    6.7250 N   0  0  0  0  0  0  0  0  0  0  0  0
   18.9504   19.6134    8.5356 H   0  0  0  0  0  0  0  0  0  0  0  0
   19.8320   19.3891    6.9867 H   0  0  0  0  0  0  0  0  0  0  0  0
   18.0430   19.5504    6.9867 H   0  0  0  0  0  0  0  0  0  0  0  0
   18.2846   17.4228    8.6380 H   0  0  0  0  0  0  0  0  0  0  0  0
   18.1755   17.2805    6.8298 H   0  0  0  0  0  0  0  0  0  0  0  0
   20.0415   15.4373    9.2758 H   0  0  0  0  0  0  0  0  0  0  0  0
   22.6337   15.4759   11.3178 H   0  0  0  0  0  0  0  0  0  0  0  0
   27.0251   17.2209    9.5869 H   0  0  0  0  0  0  0  0  0  0  0  0
   26.9690   14.0316    8.2847 H   0  0  0  0  0  0  0  0  0  0  0  0
   27.6366   13.7221    5.9155 H   0  0  0  0  0  0  0  0  0  0  0  0
   25.2854   16.9757    4.7620 H   0  0  0  0  0  0  0  0  0  0  0  0
   27.3093   17.5187   12.5481 H   0  0  0  0  0  0  0  0  0  0  0  0
   26.4817   18.9651   12.0224 H   0  0  0  0  0  0  0  0  0  0  0  0
   24.4338   18.6357   15.0152 H   0  0  0  0  0  0  0  0  0  0  0  0
   25.9814   16.9615   15.9649 H   0  0  0  0  0  0  0  0  0  0  0  0
   27.3845   17.9047   15.3604 H   0  0  0  0  0  0  0  0  0  0  0  0
   25.2757   18.8328   17.3735 H   0  0  0  0  0  0  0  0  0  0  0  0
   27.0091   18.4361   17.7060 H   0  0  0  0  0  0  0  0  0  0  0  0
   26.2035   21.7883   15.3609 H   0  0  0  0  0  0  0  0  0  0  0  0
   23.0609   16.6297    6.4480 H   0  0  0  0  0  0  0  0  0  0  0  0
  1  2  1  0
  2  3  1  0
  3  4  2  0
  4  5  1  0
  5  6  1  0
  6  7  2  0
  6  8  2  0
  6  9  1  0
  9 10  2  0
 10 11  1  0
 11 12  2  0
 12 13  1  0
 13 14  2  0
 14 15  1  0
 15 16  2  0
 16 17  1  0
 17 18  2  0
 18 19  1  0
 19 20  2  0
 12 21  1  0
 21 22  1  0
 22 23  1  0
 23 24  1  0
 24 25  1  0
 25 26  1  0
 26 27  2  0
 26 28  1  0
 28 29  1  0
 29 30  2  0
 22 31  1  0
 31 32  2  0
  5 33  1  0
 33 34  2  0
 34  3  1  0
 14  9  1  0
 20 15  1  0
 29 23  1  0
 31 11  1  0
  1 35  1  0
  1 36  1  0
  1 37  1  0
  2 38  1  0
  2 39  1  0
  4 40  1  0
 10 41  1  0
 13 42  1  0
 16 43  1  0
 17 44  1  0
 19 45  1  0
 21 46  1  0
 21 47  1  0
 23 48  1  1
 24 49  1  0
 24 50  1  0
 25 51  1  0
 25 52  1  0
 28 53  1  0
 33 54  1  0
M  END
>  <meeko>  (227) 
{"is_sidechain": [true], "free_energy": -11.09, "intermolecular_energy": 0.0, "internal_energy": -11.09, "cluster_size": 15, "cluster_id": 1, "rank_in_cluster": 1}

>  <_RMSD_MCS_to_ref>  (227) 
0.778179570821828

$$$$
ligand
     RDKit          3D

 61 65  0  0  0  0  0  0  0  0999 V2000
   18.8250   19.0170    7.5350 C   0  0  0  0  0  0  0  0  0  0  0  0
   18.5200   17.5420    7.7330 C   0  0  0  0  0  0  0  0  0  0  0  0
   19.7460   16.7000    7.6690 C   0  0  0  0  0  0  0  0  0  0  0  0
   20.3080   15.9090    8.6510 C   0  0  0  0  0  0  0  0  0  0  0  0
   21.3990   15.3490    8.0470 N   0  0  0  0  0  0  0  0  0  0  0  0
   22.5870   14.4260    8.8030 S   0  0  0  0  0  6  0  0  0  0  0  0
   21.9560   13.1320    8.9950 O   0  0  0  0  0  0  0  0  0  0  0  0
   23.7620   14.6230    7.9730 O   0  0  0  0  0  0  0  0  0  0  0  0
   22.8790   15.1600   10.4050 C   0  0  0  0  0  0  0  0  0  0  0  0
   21.8120   15.3480   11.3160 C   0  0  0  0  0  0  0  0  0  0  0  0
   22.0450   15.9240   12.5640 C   0  0  0  0  0  0  0  0  0  0  0  0
   23.3410   16.2890   12.8610 C   0  0  0  0  0  0  0  0  0  0  0  0
   24.4090   16.1160   11.9770 C   0  0  0  0  0  0  0  0  0  0  0  0
   24.2080   15.5470   10.7210 C   0  0  0  0  0  0  0  0  0  0  0  0
   25.2340   15.3530    9.8000 N   0  0  0  0  0  0  0  0  0  0  0  0
   26.0120   14.1170    9.9520 C   0  0  0  0  0  0  0  0  0  0  0  0
   26.7310   13.8140    8.6370 C   0  0  0  0  0  0  0  0  0  0  0  0
   27.5710   15.0050    8.1760 C   0  0  0  0  0  0  0  0  0  0  0  0
   26.7230   16.2750    8.1000 C   0  0  0  0  0  0  0  0  0  0  0  0
   26.0080   16.5420    9.4250 C   0  0  0  0  0  0  0  0  0  0  0  0
   25.6530   16.6460   12.6160 C   0  0  0  0  0  0  0  0  0  0  0  0
   25.2150   17.0110   13.9570 N   0  0  0  0  0  0  0  0  0  0  0  0
   26.0740   17.7830   14.8490 C   0  0  2  0  0  0  0  0  0  0  0  0
   25.5720   17.8400   16.2920 C   0  0  0  0  0  0  0  0  0  0  0  0
   26.5700   18.6110   17.1410 C   0  0  0  0  0  0  0  0  0  0  0  0
   26.8070   19.9970   16.5880 C   0  0  0  0  0  0  0  0  0  0  0  0
   27.2180   20.9180   17.2860 O   0  0  0  0  0  0  0  0  0  0  0  0
   26.6220   20.1610   15.2380 N   0  0  0  0  0  0  0  0  0  0  0  0
   26.3120   19.2000   14.3050 C   0  0  0  0  0  0  0  0  0  0  0  0
   26.3350   19.4690   13.1040 O   0  0  0  0  0  0  0  0  0  0  0  0
   23.8420   16.9090   14.0910 C   0  0  0  0  0  0  0  0  0  0  0  0
   23.1420   17.2630   15.0190 O   0  0  0  0  0  0  0  0  0  0  0  0
   21.4880   15.8100    6.7720 C   0  0  0  0  0  0  0  0  0  0  0  0
   20.5010   16.6430    6.5140 N   0  0  0  0  0  0  0  0  0  0  0  0
   18.9260   19.5054    8.5155 H   0  0  0  0  0  0  0  0  0  0  0  0
   19.7645   19.1250    6.9731 H   0  0  0  0  0  0  0  0  0  0  0  0
   18.0054   19.4887    6.9731 H   0  0  0  0  0  0  0  0  0  0  0  0
   18.0487   17.4069    8.7177 H   0  0  0  0  0  0  0  0  0  0  0  0
   17.8496   17.2241    6.9209 H   0  0  0  0  0  0  0  0  0  0  0  0
   19.9579   15.7628    9.6835 H   0  0  0  0  0  0  0  0  0  0  0  0
   20.7939   15.0381   11.0378 H   0  0  0  0  0  0  0  0  0  0  0  0
   21.2275   16.0810   13.2831 H   0  0  0  0  0  0  0  0  0  0  0  0
   26.7521   14.2440   10.7558 H   0  0  0  0  0  0  0  0  0  0  0  0
   25.3396   13.2847   10.2073 H   0  0  0  0  0  0  0  0  0  0  0  0
   27.3900   12.9451    8.7809 H   0  0  0  0  0  0  0  0  0  0  0  0
   25.9735   13.6048    7.8673 H   0  0  0  0  0  0  0  0  0  0  0  0
   28.3932   15.1633    8.8894 H   0  0  0  0  0  0  0  0  0  0  0  0
   27.9681   14.7875    7.1735 H   0  0  0  0  0  0  0  0  0  0  0  0
   27.3757   17.1289    7.8660 H   0  0  0  0  0  0  0  0  0  0  0  0
   25.9640   16.1408    7.3152 H   0  0  0  0  0  0  0  0  0  0  0  0
   26.7503   16.7602   10.2069 H   0  0  0  0  0  0  0  0  0  0  0  0
   25.3338   17.4042    9.3156 H   0  0  0  0  0  0  0  0  0  0  0  0
   26.4355   15.8739   12.6541 H   0  0  0  0  0  0  0  0  0  0  0  0
   26.0935   17.4892   12.0638 H   0  0  0  0  0  0  0  0  0  0  0  0
   27.0314   17.2421   14.8760 H   0  0  0  0  0  0  0  0  0  0  0  0
   24.5959   18.3462   16.3217 H   0  0  0  0  0  0  0  0  0  0  0  0
   25.4650   16.8184   16.6856 H   0  0  0  0  0  0  0  0  0  0  0  0
   26.1784   18.6962   18.1654 H   0  0  0  0  0  0  0  0  0  0  0  0
   27.5257   18.0664   17.1334 H   0  0  0  0  0  0  0  0  0  0  0  0
   26.7284   21.1210   14.8803 H   0  0  0  0  0  0  0  0  0  0  0  0
   22.2738   15.5273    6.0560 H   0  0  0  0  0  0  0  0  0  0  0  0
  1  2  1  0
  2  3  1  0
  3  4  2  0
  4  5  1  0
  5  6  1  0
  6  7  2  0
  6  8  2  0
  6  9  1  0
  9 10  2  0
 10 11  1  0
 11 12  2  0
 12 13  1  0
 13 14  2  0
 14 15  1  0
 15 16  1  0
 16 17  1  0
 17 18  1  0
 18 19  1  0
 19 20  1  0
 13 21  1  0
 21 22  1  0
 22 23  1  0
 23 24  1  0
 24 25  1  0
 25 26  1  0
 26 27  2  0
 26 28  1  0
 28 29  1  0
 29 30  2  0
 22 31  1  0
 31 32  2  0
  5 33  1  0
 33 34  2  0
 34  3  1  0
 14  9  1  0
 20 15  1  0
 29 23  1  0
 31 12  1  0
  1 35  1  0
  1 36  1  0
  1 37  1  0
  2 38  1  0
  2 39  1  0
  4 40  1  0
 10 41  1  0
 11 42  1  0
 16 43  1  0
 16 44  1  0
 17 45  1  0
 17 46  1  0
 18 47  1  0
 18 48  1  0
 19 49  1  0
 19 50  1  0
 20 51  1  0
 20 52  1  0
 21 53  1  0
 21 54  1  0
 23 55  1  1
 24 56  1  0
 24 57  1  0
 25 58  1  0
 25 59  1  0
 28 60  1  0
 33 61  1  0
M  END
>  <meeko>  (228) 
{"is_sidechain": [true], "free_energy": -11.08, "intermolecular_energy": 0.0, "internal_energy": -11.08, "cluster_size": 9, "cluster_id": 1, "rank_in_cluster": 1}

>  <_RMSD_MCS_to_ref>  (228) 
0.8856856695595557

$$$$
ligand
     RDKit          3D

 53 57  0  0  0  0  0  0  0  0999 V2000
   18.8250   19.0170    7.5350 C   0  0  0  0  0  0  0  0  0  0  0  0
   18.5200   17.5420    7.7330 C   0  0  0  0  0  0  0  0  0  0  0  0
   19.7220   16.6880    7.5340 C   0  0  0  0  0  0  0  0  0  0  0  0
   20.5470   16.1190    8.4840 C   0  0  0  0  0  0  0  0  0  0  0  0
   21.4940   15.4650    7.7540 N   0  0  0  0  0  0  0  0  0  0  0  0
   22.8190   14.6220    8.3440 S   0  0  0  0  0  6  0  0  0  0  0  0
   22.4030   13.2500    8.5590 O   0  0  0  0  0  0  0  0  0  0  0  0
   23.8970   14.9670    7.4380 O   0  0  0  0  0  0  0  0  0  0  0  0
   23.1740   15.3290    9.9400 C   0  0  0  0  0  0  0  0  0  0  0  0
   22.0690   15.5200   10.8090 C   0  0  0  0  0  0  0  0  0  0  0  0
   22.2460   16.0690   12.0790 C   0  0  0  0  0  0  0  0  0  0  0  0
   23.5300   16.4140   12.4420 C   0  0  0  0  0  0  0  0  0  0  0  0
   24.6310   16.2420   11.6000 C   0  0  0  0  0  0  0  0  0  0  0  0
   24.4820   15.7010   10.3220 C   0  0  0  0  0  0  0  0  0  0  0  0
   25.6630   15.5630    9.4820 C   0  0  0  0  0  0  0  0  0  0  0  0
   26.7260   16.4220    9.2710 C   0  0  0  0  0  0  0  0  0  0  0  0
   27.5410   15.7760    8.3260 C   0  0  0  0  0  0  0  0  0  0  0  0
   27.0430   14.5980    7.9520 N   0  0  0  0  0  0  0  0  0  0  0  0
   25.9050   14.4870    8.6580 N   0  0  0  0  0  0  0  0  0  0  0  0
   25.8570   16.7680   12.2840 C   0  0  0  0  0  0  0  0  0  0  0  0
   25.3670   17.1340   13.6050 N   0  0  0  0  0  0  0  0  0  0  0  0
   26.1870   17.9210   14.5210 C   0  0  2  0  0  0  0  0  0  0  0  0
   25.7970   17.7610   15.9900 C   0  0  0  0  0  0  0  0  0  0  0  0
   26.7510   18.5710   16.8550 C   0  0  0  0  0  0  0  0  0  0  0  0
   26.7620   20.0250   16.4450 C   0  0  0  0  0  0  0  0  0  0  0  0
   27.0900   20.9210   17.2180 O   0  0  0  0  0  0  0  0  0  0  0  0
   26.4650   20.2980   15.1320 N   0  0  0  0  0  0  0  0  0  0  0  0
   26.1890   19.4060   14.1230 C   0  0  0  0  0  0  0  0  0  0  0  0
   26.0560   19.7960   12.9650 O   0  0  0  0  0  0  0  0  0  0  0  0
   23.9890   17.0260   13.6930 C   0  0  0  0  0  0  0  0  0  0  0  0
   23.2560   17.3760   14.5960 O   0  0  0  0  0  0  0  0  0  0  0  0
   21.2120   15.5960    6.4330 C   0  0  0  0  0  0  0  0  0  0  0  0
   20.1550   16.3630    6.2620 N   0  0  0  0  0  0  0  0  0  0  0  0
   18.9260   19.5054    8.5155 H   0  0  0  0  0  0  0  0  0  0  0  0
   19.7645   19.1250    6.9731 H   0  0  0  0  0  0  0  0  0  0  0  0
   18.0054   19.4887    6.9731 H   0  0  0  0  0  0  0  0  0  0  0  0
   18.1444   17.3921    8.7559 H   0  0  0  0  0  0  0  0  0  0  0  0
   17.7696   17.2488    6.9840 H   0  0  0  0  0  0  0  0  0  0  0  0
   20.4598   16.1797    9.5789 H   0  0  0  0  0  0  0  0  0  0  0  0
   21.0606   15.2317   10.4773 H   0  0  0  0  0  0  0  0  0  0  0  0
   21.3969   16.2202   12.7618 H   0  0  0  0  0  0  0  0  0  0  0  0
   26.8969   17.4012    9.7420 H   0  0  0  0  0  0  0  0  0  0  0  0
   28.4819   16.1946    7.9394 H   0  0  0  0  0  0  0  0  0  0  0  0
   25.2747   13.6753    8.5893 H   0  0  0  0  0  0  0  0  0  0  0  0
   26.6344   15.9928   12.3521 H   0  0  0  0  0  0  0  0  0  0  0  0
   26.3243   17.6075   11.7484 H   0  0  0  0  0  0  0  0  0  0  0  0
   27.2064   17.5185   14.4275 H   0  0  0  0  0  0  0  0  0  0  0  0
   24.7690   18.1230   16.1387 H   0  0  0  0  0  0  0  0  0  0  0  0
   25.8545   16.6995   16.2728 H   0  0  0  0  0  0  0  0  0  0  0  0
   26.4330   18.4971   17.9054 H   0  0  0  0  0  0  0  0  0  0  0  0
   27.7656   18.1659   16.7267 H   0  0  0  0  0  0  0  0  0  0  0  0
   26.4468   21.2943   14.8711 H   0  0  0  0  0  0  0  0  0  0  0  0
   21.7855   15.1275    5.6196 H   0  0  0  0  0  0  0  0  0  0  0  0
  1  2  1  0
  2  3  1  0
  3  4  2  0
  4  5  1  0
  5  6  1  0
  6  7  2  0
  6  8  2  0
  6  9  1  0
  9 10  2  0
 10 11  1  0
 11 12  2  0
 12 13  1  0
 13 14  2  0
 14 15  1  0
 15 16  2  0
 16 17  1  0
 17 18  2  0
 18 19  1  0
 13 20  1  0
 20 21  1  0
 21 22  1  0
 22 23  1  0
 23 24  1  0
 24 25  1  0
 25 26  2  0
 25 27  1  0
 27 28  1  0
 28 29  2  0
 21 30  1  0
 30 31  2  0
  5 32  1  0
 32 33  2  0
 33  3  1  0
 14  9  1  0
 19 15  1  0
 28 22  1  0
 30 12  1  0
  1 34  1  0
  1 35  1  0
  1 36  1  0
  2 37  1  0
  2 38  1  0
  4 39  1  0
 10 40  1  0
 11 41  1  0
 16 42  1  0
 17 43  1  0
 19 44  1  0
 20 45  1  0
 20 46  1  0
 22 47  1  1
 23 48  1  0
 23 49  1  0
 24 50  1  0
 24 51  1  0
 27 52  1  0
 32 53  1  0
M  END
>  <meeko>  (229) 
{"is_sidechain": [true], "free_energy": -11.08, "intermolecular_energy": 0.0, "internal_energy": -11.08, "cluster_size": 19, "cluster_id": 1, "rank_in_cluster": 1}

>  <_RMSD_MCS_to_ref>  (229) 
0.8312088586310108

$$$$
ligand
     RDKit          3D

 52 56  0  0  0  0  0  0  0  0999 V2000
   18.7970   18.8170    7.7190 C   0  0  0  0  0  0  0  0  0  0  0  0
   18.5280   17.3290    7.8810 C   0  0  0  0  0  0  0  0  0  0  0  0
   19.7830   16.5320    7.9530 C   0  0  0  0  0  0  0  0  0  0  0  0
   20.3730   15.9470    9.0560 C   0  0  0  0  0  0  0  0  0  0  0  0
   21.4720   15.3110    8.5530 N   0  0  0  0  0  0  0  0  0  0  0  0
   22.6260   14.4740    9.4420 S   0  0  0  0  0  6  0  0  0  0  0  0
   23.0770   13.4040    8.5670 O   0  0  0  0  0  0  0  0  0  0  0  0
   23.5340   15.4810    9.9580 O   0  0  0  0  0  0  0  0  0  0  0  0
   21.7480   13.7470   10.7980 C   0  0  0  0  0  0  0  0  0  0  0  0
   20.9870   12.6170   10.5950 C   0  0  0  0  0  0  0  0  0  0  0  0
   20.3480   12.0850   11.7060 C   0  0  0  0  0  0  0  0  0  0  0  0
   20.4980   12.6860   12.9660 C   0  0  0  0  0  0  0  0  0  0  0  0
   19.8740   12.1230   14.0900 C   0  0  0  0  0  0  0  0  0  0  0  0
   20.0340   12.6910   15.3480 C   0  0  0  0  0  0  0  0  0  0  0  0
   20.8160   13.8310   15.4860 C   0  0  0  0  0  0  0  0  0  0  0  0
   21.4330   14.4180   14.3660 C   0  0  0  0  0  0  0  0  0  0  0  0
   22.2330   15.6060   14.5940 C   0  0  0  0  0  0  0  0  0  0  0  0
   23.6040   15.6930   14.5860 C   0  0  0  0  0  0  0  0  0  0  0  0
   23.8530   17.0040   14.8650 N   0  0  0  0  0  0  0  0  0  0  0  0
   25.1400   17.6270   15.1070 C   0  0  2  0  0  0  0  0  0  0  0  0
   25.3870   17.8740   16.5970 C   0  0  0  0  0  0  0  0  0  0  0  0
   26.7460   18.5290   16.7830 C   0  0  0  0  0  0  0  0  0  0  0  0
   26.8400   19.8120   15.9930 C   0  0  0  0  0  0  0  0  0  0  0  0
   27.6600   20.6860   16.2540 O   0  0  0  0  0  0  0  0  0  0  0  0
   26.0150   19.9170   14.9010 N   0  0  0  0  0  0  0  0  0  0  0  0
   25.2860   18.9100   14.3080 C   0  0  0  0  0  0  0  0  0  0  0  0
   24.8880   19.0430   13.1520 O   0  0  0  0  0  0  0  0  0  0  0  0
   22.7080   17.7010   14.9960 N   0  0  0  0  0  0  0  0  0  0  0  0
   21.7040   16.8530   14.8150 N   0  0  0  0  0  0  0  0  0  0  0  0
   21.2950   13.8550   13.0830 C   0  0  0  0  0  0  0  0  0  0  0  0
   21.9060   14.3780   11.9880 N   0  0  0  0  0  0  0  0  0  0  0  0
   21.5550   15.5560    7.2190 C   0  0  0  0  0  0  0  0  0  0  0  0
   20.5400   16.2980    6.8190 N   0  0  0  0  0  0  0  0  0  0  0  0
   18.8815   19.2845    8.7111 H   0  0  0  0  0  0  0  0  0  0  0  0
   19.7359   18.9616    7.1643 H   0  0  0  0  0  0  0  0  0  0  0  0
   17.9682   19.2812    7.1643 H   0  0  0  0  0  0  0  0  0  0  0  0
   17.9557   17.1719    8.8072 H   0  0  0  0  0  0  0  0  0  0  0  0
   17.9652   16.9910    6.9984 H   0  0  0  0  0  0  0  0  0  0  0  0
   20.0347   15.9847   10.1020 H   0  0  0  0  0  0  0  0  0  0  0  0
   20.8904   12.1583    9.5999 H   0  0  0  0  0  0  0  0  0  0  0  0
   19.7207   11.1878   11.5990 H   0  0  0  0  0  0  0  0  0  0  0  0
   19.2521   11.2231   13.9739 H   0  0  0  0  0  0  0  0  0  0  0  0
   19.5463   12.2424   16.2260 H   0  0  0  0  0  0  0  0  0  0  0  0
   20.9542   14.2792   16.4810 H   0  0  0  0  0  0  0  0  0  0  0  0
   24.3324   14.8905   14.3980 H   0  0  0  0  0  0  0  0  0  0  0  0
   25.9108   16.9213   14.7637 H   0  0  0  0  0  0  0  0  0  0  0  0
   24.6033   18.5361   16.9939 H   0  0  0  0  0  0  0  0  0  0  0  0
   25.3647   16.9156   17.1364 H   0  0  0  0  0  0  0  0  0  0  0  0
   26.8952   18.7516   17.8499 H   0  0  0  0  0  0  0  0  0  0  0  0
   27.5212   17.8371   16.4220 H   0  0  0  0  0  0  0  0  0  0  0  0
   25.9319   20.8525   14.4782 H   0  0  0  0  0  0  0  0  0  0  0  0
   22.3574   15.1868    6.5633 H   0  0  0  0  0  0  0  0  0  0  0  0
  1  2  1  0
  2  3  1  0
  3  4  2  0
  4  5  1  0
  5  6  1  0
  6  7  2  0
  6  8  2  0
  6  9  1  0
  9 10  2  0
 10 11  1  0
 11 12  2  0
 12 13  1  0
 13 14  2  0
 14 15  1  0
 15 16  2  0
 16 17  1  0
 17 18  2  0
 18 19  1  0
 19 20  1  0
 20 21  1  0
 21 22  1  0
 22 23  1  0
 23 24  2  0
 23 25  1  0
 25 26  1  0
 26 27  2  0
 19 28  1  0
 28 29  2  0
 16 30  1  0
 30 31  2  0
  5 32  1  0
 32 33  2  0
 33  3  1  0
 31  9  1  0
 30 12  1  0
 29 17  1  0
 26 20  1  0
  1 34  1  0
  1 35  1  0
  1 36  1  0
  2 37  1  0
  2 38  1  0
  4 39  1  0
 10 40  1  0
 11 41  1  0
 13 42  1  0
 14 43  1  0
 15 44  1  0
 18 45  1  0
 20 46  1  6
 21 47  1  0
 21 48  1  0
 22 49  1  0
 22 50  1  0
 25 51  1  0
 32 52  1  0
M  END
>  <meeko>  (230) 
{"is_sidechain": [true], "free_energy": -11.08, "intermolecular_energy": 0.0, "internal_energy": -11.08, "cluster_size": 12, "cluster_id": 1, "rank_in_cluster": 1}

>  <_RMSD_MCS_to_ref>  (230) 
0.9125977573206425

$$$$
ligand
     RDKit          3D

 54 58  0  0  0  0  0  0  0  0999 V2000
   18.9090   19.1540    7.5370 C   0  0  0  0  0  0  0  0  0  0  0  0
   18.7730   17.6460    7.6780 C   0  0  0  0  0  0  0  0  0  0  0  0
   20.0920   16.9580    7.6300 C   0  0  0  0  0  0  0  0  0  0  0  0
   21.0360   16.8240    8.6300 C   0  0  0  0  0  0  0  0  0  0  0  0
   22.0300   16.0900    8.0530 N   0  0  0  0  0  0  0  0  0  0  0  0
   23.4070   15.4930    8.8020 S   0  0  0  0  0  6  0  0  0  0  0  0
   24.4890   16.4080    8.5000 O   0  0  0  0  0  0  0  0  0  0  0  0
   23.4520   14.0950    8.4150 O   0  0  0  0  0  0  0  0  0  0  0  0
   23.0670   15.5750   10.5490 C   0  0  0  0  0  0  0  0  0  0  0  0
   23.8810   16.4290   11.3190 C   0  0  0  0  0  0  0  0  0  0  0  0
   23.6920   16.5480   12.6900 C   0  0  0  0  0  0  0  0  0  0  0  0
   24.5450   17.4270   13.5380 C   0  0  0  0  0  0  0  0  0  0  0  0
   25.7570   17.4610   13.3640 O   0  0  0  0  0  0  0  0  0  0  0  0
   23.9060   18.1510   14.5190 N   0  0  0  0  0  0  0  0  0  0  0  0
   24.6660   18.9250   15.4930 C   0  0  1  0  0  0  0  0  0  0  0  0
   25.6890   18.0720   16.2330 C   0  0  0  0  0  0  0  0  0  0  0  0
   26.4720   18.9460   17.2010 C   0  0  0  0  0  0  0  0  0  0  0  0
   27.1190   20.1100   16.4880 C   0  0  0  0  0  0  0  0  0  0  0  0
   28.1980   20.5810   16.8390 O   0  0  0  0  0  0  0  0  0  0  0  0
   26.4260   20.6500   15.4350 N   0  0  0  0  0  0  0  0  0  0  0  0
   25.3930   20.0520   14.7560 C   0  0  0  0  0  0  0  0  0  0  0  0
   25.0720   20.4220   13.6270 O   0  0  0  0  0  0  0  0  0  0  0  0
   22.6930   15.7950   13.3170 C   0  0  0  0  0  0  0  0  0  0  0  0
   21.8370   14.9390   12.5750 C   0  0  0  0  0  0  0  0  0  0  0  0
   22.0330   14.8490   11.1910 C   0  0  0  0  0  0  0  0  0  0  0  0
   20.8710   13.7870   10.4960 S   0  0  0  0  0  0  0  0  0  0  0  0
   20.1350   13.4170   11.9910 C   0  0  0  0  0  0  0  0  0  0  0  0
   19.0480   12.5450   12.2060 C   0  0  0  0  0  0  0  0  0  0  0  0
   18.5710   12.3620   13.5040 C   0  0  0  0  0  0  0  0  0  0  0  0
   19.1570   13.0300   14.5690 C   0  0  0  0  0  0  0  0  0  0  0  0
   20.2350   13.8950   14.3480 C   0  0  0  0  0  0  0  0  0  0  0  0
   20.7450   14.1020   13.0390 C   0  0  0  0  0  0  0  0  0  0  0  0
   21.7000   15.8260    6.7620 C   0  0  0  0  0  0  0  0  0  0  0  0
   20.5180   16.3300    6.4770 N   0  0  0  0  0  0  0  0  0  0  0  0
   18.9504   19.6134    8.5356 H   0  0  0  0  0  0  0  0  0  0  0  0
   19.8320   19.3891    6.9867 H   0  0  0  0  0  0  0  0  0  0  0  0
   18.0430   19.5504    6.9867 H   0  0  0  0  0  0  0  0  0  0  0  0
   18.2909   17.4218    8.6410 H   0  0  0  0  0  0  0  0  0  0  0  0
   18.1691   17.2800    6.8346 H   0  0  0  0  0  0  0  0  0  0  0  0
   20.9951   17.2187    9.6559 H   0  0  0  0  0  0  0  0  0  0  0  0
   24.6764   17.0090   10.8282 H   0  0  0  0  0  0  0  0  0  0  0  0
   22.8771   18.1458   14.5655 H   0  0  0  0  0  0  0  0  0  0  0  0
   23.9632   19.3233   16.2396 H   0  0  0  0  0  0  0  0  0  0  0  0
   25.1700   17.2794   16.7920 H   0  0  0  0  0  0  0  0  0  0  0  0
   26.3802   17.6168   15.5083 H   0  0  0  0  0  0  0  0  0  0  0  0
   25.7866   19.3326   17.9696 H   0  0  0  0  0  0  0  0  0  0  0  0
   27.2641   18.3348   17.6583 H   0  0  0  0  0  0  0  0  0  0  0  0
   26.7063   21.5913   15.1247 H   0  0  0  0  0  0  0  0  0  0  0  0
   22.5683   15.8678   14.4075 H   0  0  0  0  0  0  0  0  0  0  0  0
   18.5823   12.0161   11.3614 H   0  0  0  0  0  0  0  0  0  0  0  0
   17.7243   11.6833   13.6842 H   0  0  0  0  0  0  0  0  0  0  0  0
   18.7739   12.8797   15.5891 H   0  0  0  0  0  0  0  0  0  0  0  0
   20.6928   14.4209   15.1988 H   0  0  0  0  0  0  0  0  0  0  0  0
   22.3318   15.2693    6.0543 H   0  0  0  0  0  0  0  0  0  0  0  0
  1  2  1  0
  2  3  1  0
  3  4  2  0
  4  5  1  0
  5  6  1  0
  6  7  2  0
  6  8  2  0
  6  9  1  0
  9 10  2  0
 10 11  1  0
 11 12  1  0
 12 13  2  0
 12 14  1  0
 14 15  1  0
 15 16  1  0
 16 17  1  0
 17 18  1  0
 18 19  2  0
 18 20  1  0
 20 21  1  0
 21 22  2  0
 11 23  2  0
 23 24  1  0
 24 25  2  0
 25 26  1  0
 26 27  1  0
 27 28  2  0
 28 29  1  0
 29 30  2  0
 30 31  1  0
 31 32  2  0
  5 33  1  0
 33 34  2  0
 34  3  1  0
 25  9  1  0
 32 27  1  0
 21 15  1  0
 32 24  1  0
  1 35  1  0
  1 36  1  0
  1 37  1  0
  2 38  1  0
  2 39  1  0
  4 40  1  0
 10 41  1  0
 14 42  1  0
 15 43  1  1
 16 44  1  0
 16 45  1  0
 17 46  1  0
 17 47  1  0
 20 48  1  0
 23 49  1  0
 28 50  1  0
 29 51  1  0
 30 52  1  0
 31 53  1  0
 33 54  1  0
M  END
>  <meeko>  (231) 
{"is_sidechain": [true], "free_energy": -11.08, "intermolecular_energy": 0.0, "internal_energy": -11.08, "cluster_size": 20, "cluster_id": 1, "rank_in_cluster": 1}

>  <_RMSD_MCS_to_ref>  (231) 
0.7913928649328773

$$$$
ligand
     RDKit          3D

 60 64  0  0  0  0  0  0  0  0999 V2000
   18.9090   19.1540    7.5370 C   0  0  0  0  0  0  0  0  0  0  0  0
   18.7730   17.6460    7.6780 C   0  0  0  0  0  0  0  0  0  0  0  0
   20.0690   16.9450    7.4780 C   0  0  0  0  0  0  0  0  0  0  0  0
   21.0240   16.5960    8.4140 C   0  0  0  0  0  0  0  0  0  0  0  0
   22.0110   16.0030    7.6790 N   0  0  0  0  0  0  0  0  0  0  0  0
   23.3430   15.1970    8.3080 S   0  0  0  0  0  6  0  0  0  0  0  0
   23.0020   13.7900    8.1850 O   0  0  0  0  0  0  0  0  0  0  0  0
   24.5280   15.7360    7.6700 O   0  0  0  0  0  0  0  0  0  0  0  0
   23.4050   15.5820   10.0400 C   0  0  0  0  0  0  0  0  0  0  0  0
   24.4020   16.4670   10.4920 C   0  0  0  0  0  0  0  0  0  0  0  0
   24.4170   16.8040   11.8360 C   0  0  0  0  0  0  0  0  0  0  0  0
   23.4630   16.2770   12.7040 C   0  0  0  0  0  0  0  0  0  0  0  0
   22.4660   15.4170   12.2910 C   0  0  0  0  0  0  0  0  0  0  0  0
   22.4320   15.0830   10.9300 C   0  0  0  0  0  0  0  0  0  0  0  0
   21.4080   14.1290   10.4870 C   0  0  0  0  0  0  0  0  0  0  0  0
   20.2960   14.5900   10.2620 O   0  0  0  0  0  0  0  0  0  0  0  0
   21.7520   12.8030   10.3700 N   0  0  0  0  0  0  0  0  0  0  0  0
   20.7490   11.8080   10.0300 C   0  0  0  0  0  0  0  0  0  0  0  0
   21.3320   10.4900   10.5170 C   0  0  0  0  0  0  0  0  0  0  0  0
   22.8340   10.7140   10.3910 C   0  0  0  0  0  0  0  0  0  0  0  0
   22.9930   12.1710   10.7990 C   0  0  0  0  0  0  0  0  0  0  0  0
   23.7200   16.8120   14.0440 C   0  0  0  0  0  0  0  0  0  0  0  0
   23.0290   16.5990   15.0210 O   0  0  0  0  0  0  0  0  0  0  0  0
   24.8660   17.5880   13.9540 N   0  0  0  0  0  0  0  0  0  0  0  0
   25.2560   18.4990   15.0260 C   0  0  1  0  0  0  0  0  0  0  0  0
   26.3390   17.9130   15.9280 C   0  0  0  0  0  0  0  0  0  0  0  0
   26.6310   18.8860   17.0600 C   0  0  0  0  0  0  0  0  0  0  0  0
   27.0130   20.2470   16.5270 C   0  0  0  0  0  0  0  0  0  0  0  0
   27.8540   20.9540   17.0740 O   0  0  0  0  0  0  0  0  0  0  0  0
   26.3600   20.6690   15.3970 N   0  0  0  0  0  0  0  0  0  0  0  0
   25.7390   19.8540   14.4790 C   0  0  0  0  0  0  0  0  0  0  0  0
   25.6100   20.2150   13.3110 O   0  0  0  0  0  0  0  0  0  0  0  0
   25.3310   17.7240   12.5790 C   0  0  0  0  0  0  0  0  0  0  0  0
   21.6260   15.9490    6.3780 C   0  0  0  0  0  0  0  0  0  0  0  0
   20.4510   16.5250    6.2190 N   0  0  0  0  0  0  0  0  0  0  0  0
   18.9504   19.6134    8.5356 H   0  0  0  0  0  0  0  0  0  0  0  0
   19.8320   19.3891    6.9867 H   0  0  0  0  0  0  0  0  0  0  0  0
   18.0430   19.5504    6.9867 H   0  0  0  0  0  0  0  0  0  0  0  0
   18.3979   17.4167    8.6863 H   0  0  0  0  0  0  0  0  0  0  0  0
   18.0758   17.2954    6.9028 H   0  0  0  0  0  0  0  0  0  0  0  0
   20.9958   16.7585    9.5016 H   0  0  0  0  0  0  0  0  0  0  0  0
   25.1486   16.8797    9.7975 H   0  0  0  0  0  0  0  0  0  0  0  0
   21.7292   15.0108   12.9996 H   0  0  0  0  0  0  0  0  0  0  0  0
   19.7992   12.0244   10.5409 H   0  0  0  0  0  0  0  0  0  0  0  0
   20.5269   11.7921    8.9528 H   0  0  0  0  0  0  0  0  0  0  0  0
   21.0476   10.2934   11.5612 H   0  0  0  0  0  0  0  0  0  0  0  0
   20.9736    9.6199    9.9473 H   0  0  0  0  0  0  0  0  0  0  0  0
   23.3918   10.0499   11.0677 H   0  0  0  0  0  0  0  0  0  0  0  0
   23.2235   10.4985    9.3851 H   0  0  0  0  0  0  0  0  0  0  0  0
   23.1188   12.2591   11.8882 H   0  0  0  0  0  0  0  0  0  0  0  0
   23.8805   12.6390   10.3481 H   0  0  0  0  0  0  0  0  0  0  0  0
   24.3467   18.6523   15.6258 H   0  0  0  0  0  0  0  0  0  0  0  0
   25.9914   16.9567   16.3459 H   0  0  0  0  0  0  0  0  0  0  0  0
   27.2546   17.7436   15.3423 H   0  0  0  0  0  0  0  0  0  0  0  0
   25.7332   18.9857   17.6877 H   0  0  0  0  0  0  0  0  0  0  0  0
   27.4740   18.4933   17.6475 H   0  0  0  0  0  0  0  0  0  0  0  0
   26.3322   21.6834   15.2206 H   0  0  0  0  0  0  0  0  0  0  0  0
   25.2263   18.7601   12.2246 H   0  0  0  0  0  0  0  0  0  0  0  0
   26.3963   17.4820   12.4504 H   0  0  0  0  0  0  0  0  0  0  0  0
   22.2128   15.4887    5.5694 H   0  0  0  0  0  0  0  0  0  0  0  0
  1  2  1  0
  2  3  1  0
  3  4  2  0
  4  5  1  0
  5  6  1  0
  6  7  2  0
  6  8  2  0
  6  9  1  0
  9 10  2  0
 10 11  1  0
 11 12  2  0
 12 13  1  0
 13 14  2  0
 14 15  1  0
 15 16  2  0
 15 17  1  0
 17 18  1  0
 18 19  1  0
 19 20  1  0
 20 21  1  0
 12 22  1  0
 22 23  2  0
 22 24  1  0
 24 25  1  0
 25 26  1  0
 26 27  1  0
 27 28  1  0
 28 29  2  0
 28 30  1  0
 30 31  1  0
 31 32  2  0
 24 33  1  0
  5 34  1  0
 34 35  2  0
 35  3  1  0
 14  9  1  0
 21 17  1  0
 31 25  1  0
 33 11  1  0
  1 36  1  0
  1 37  1  0
  1 38  1  0
  2 39  1  0
  2 40  1  0
  4 41  1  0
 10 42  1  0
 13 43  1  0
 18 44  1  0
 18 45  1  0
 19 46  1  0
 19 47  1  0
 20 48  1  0
 20 49  1  0
 21 50  1  0
 21 51  1  0
 25 52  1  1
 26 53  1  0
 26 54  1  0
 27 55  1  0
 27 56  1  0
 30 57  1  0
 33 58  1  0
 33 59  1  0
 34 60  1  0
M  END
>  <meeko>  (232) 
{"is_sidechain": [true], "free_energy": -11.08, "intermolecular_energy": 0.0, "internal_energy": -11.08, "cluster_size": 12, "cluster_id": 1, "rank_in_cluster": 1}

>  <_RMSD_MCS_to_ref>  (232) 
0.9244260982420991

$$$$
ligand
     RDKit          3D

 48 51  0  0  0  0  0  0  0  0999 V2000
   18.9090   19.1540    7.5370 C   0  0  0  0  0  0  0  0  0  0  0  0
   18.7730   17.6460    7.6780 C   0  0  0  0  0  0  0  0  0  0  0  0
   20.0620   16.9410    7.4390 C   0  0  0  0  0  0  0  0  0  0  0  0
   20.7540   16.0880    8.2760 C   0  0  0  0  0  0  0  0  0  0  0  0
   21.8690   15.7520    7.5620 N   0  0  0  0  0  0  0  0  0  0  0  0
   23.0350   14.6380    8.0200 S   0  0  0  0  0  6  0  0  0  0  0  0
   23.8780   14.4500    6.8480 O   0  0  0  0  0  0  0  0  0  0  0  0
   22.3330   13.5280    8.6360 O   0  0  0  0  0  0  0  0  0  0  0  0
   23.9960   15.4810    9.2390 C   0  0  0  0  0  0  0  0  0  0  0  0
   25.1550   16.0270    8.7840 N   0  0  0  0  0  0  0  0  0  0  0  0
   25.9440   16.6870    9.6580 C   0  0  0  0  0  0  0  0  0  0  0  0
   25.6640   16.8450   11.0080 C   0  0  0  0  0  0  0  0  0  0  0  0
   24.4760   16.2710   11.4920 C   0  0  0  0  0  0  0  0  0  0  0  0
   23.8450   16.2010   12.7840 C   0  0  0  0  0  0  0  0  0  0  0  0
   24.3470   16.7850   14.0290 C   0  0  0  0  0  0  0  0  0  0  0  0
   24.3720   16.1620   15.0870 O   0  0  0  0  0  0  0  0  0  0  0  0
   24.7790   18.0880   13.9420 N   0  0  0  0  0  0  0  0  0  0  0  0
   25.1580   18.8450   15.1260 C   0  0  1  0  0  0  0  0  0  0  0  0
   26.1890   18.1120   15.9770 C   0  0  0  0  0  0  0  0  0  0  0  0
   26.5680   18.9760   17.1690 C   0  0  0  0  0  0  0  0  0  0  0  0
   27.0630   20.3340   16.7280 C   0  0  0  0  0  0  0  0  0  0  0  0
   27.9360   20.9460   17.3350 O   0  0  0  0  0  0  0  0  0  0  0  0
   26.4640   20.8750   15.6180 N   0  0  0  0  0  0  0  0  0  0  0  0
   25.7460   20.1850   14.6740 C   0  0  0  0  0  0  0  0  0  0  0  0
   25.5850   20.6340   13.5390 O   0  0  0  0  0  0  0  0  0  0  0  0
   22.6730   15.4800   12.6020 C   0  0  0  0  0  0  0  0  0  0  0  0
   22.5780   15.1150   11.2840 N   0  0  0  0  0  0  0  0  0  0  0  0
   23.6620   15.5920   10.5860 C   0  0  0  0  0  0  0  0  0  0  0  0
   21.8080   16.3370    6.3380 C   0  0  0  0  0  0  0  0  0  0  0  0
   20.7300   17.0880    6.2400 N   0  0  0  0  0  0  0  0  0  0  0  0
   18.9504   19.6134    8.5356 H   0  0  0  0  0  0  0  0  0  0  0  0
   19.8320   19.3891    6.9867 H   0  0  0  0  0  0  0  0  0  0  0  0
   18.0430   19.5504    6.9867 H   0  0  0  0  0  0  0  0  0  0  0  0
   18.4263   17.4151    8.6961 H   0  0  0  0  0  0  0  0  0  0  0  0
   18.0530   17.2995    6.9220 H   0  0  0  0  0  0  0  0  0  0  0  0
   20.4720   15.7554    9.2859 H   0  0  0  0  0  0  0  0  0  0  0  0
   26.8741   17.1307    9.2732 H   0  0  0  0  0  0  0  0  0  0  0  0
   26.3446   17.3974   11.6726 H   0  0  0  0  0  0  0  0  0  0  0  0
   24.8356   18.5385   13.0175 H   0  0  0  0  0  0  0  0  0  0  0  0
   24.2594   18.9865   15.7444 H   0  0  0  0  0  0  0  0  0  0  0  0
   25.7625   17.1626   16.3330 H   0  0  0  0  0  0  0  0  0  0  0  0
   27.0850   17.9074   15.3725 H   0  0  0  0  0  0  0  0  0  0  0  0
   25.6847   19.1078   17.8112 H   0  0  0  0  0  0  0  0  0  0  0  0
   27.3774   18.4733   17.7186 H   0  0  0  0  0  0  0  0  0  0  0  0
   26.5623   21.8911   15.4812 H   0  0  0  0  0  0  0  0  0  0  0  0
   21.9404   15.2407   13.3868 H   0  0  0  0  0  0  0  0  0  0  0  0
   21.8083   14.5648   10.8769 H   0  0  0  0  0  0  0  0  0  0  0  0
   22.5537   16.2027    5.5406 H   0  0  0  0  0  0  0  0  0  0  0  0
  1  2  1  0
  2  3  1  0
  3  4  2  0
  4  5  1  0
  5  6  1  0
  6  7  2  0
  6  8  2  0
  6  9  1  0
  9 10  2  0
 10 11  1  0
 11 12  2  0
 12 13  1  0
 13 14  1  0
 14 15  1  0
 15 16  2  0
 15 17  1  0
 17 18  1  0
 18 19  1  0
 19 20  1  0
 20 21  1  0
 21 22  2  0
 21 23  1  0
 23 24  1  0
 24 25  2  0
 14 26  2  0
 26 27  1  0
 27 28  1  0
  5 29  1  0
 29 30  2  0
 30  3  1  0
 28  9  1  0
 28 13  2  0
 24 18  1  0
  1 31  1  0
  1 32  1  0
  1 33  1  0
  2 34  1  0
  2 35  1  0
  4 36  1  0
 11 37  1  0
 12 38  1  0
 17 39  1  0
 18 40  1  1
 19 41  1  0
 19 42  1  0
 20 43  1  0
 20 44  1  0
 23 45  1  0
 26 46  1  0
 27 47  1  0
 29 48  1  0
M  END
>  <meeko>  (233) 
{"is_sidechain": [true], "free_energy": -11.08, "intermolecular_energy": 0.0, "internal_energy": -11.08, "cluster_size": 12, "cluster_id": 1, "rank_in_cluster": 1}

>  <_RMSD_MCS_to_ref>  (233) 
0.7324132106339365

$$$$
ligand
     RDKit          3D

 47 50  0  0  0  0  0  0  0  0999 V2000
   18.9090   19.1540    7.5370 C   0  0  0  0  0  0  0  0  0  0  0  0
   18.7730   17.6460    7.6780 C   0  0  0  0  0  0  0  0  0  0  0  0
   20.0150   16.9310    7.2760 C   0  0  0  0  0  0  0  0  0  0  0  0
   20.9800   16.3490    8.0750 C   0  0  0  0  0  0  0  0  0  0  0  0
   21.8930   15.8540    7.1900 N   0  0  0  0  0  0  0  0  0  0  0  0
   23.1630   14.8210    7.5550 S   0  0  0  0  0  6  0  0  0  0  0  0
   24.1030   14.9070    6.4570 O   0  0  0  0  0  0  0  0  0  0  0  0
   22.5590   13.5770    7.9850 O   0  0  0  0  0  0  0  0  0  0  0  0
   24.0000   15.4360    8.9440 C   0  0  0  0  0  0  0  0  0  0  0  0
   25.2560   15.9870    8.8550 C   0  0  0  0  0  0  0  0  0  0  0  0
   25.8580   16.4390   10.3710 S   0  0  0  0  0  0  0  0  0  0  0  0
   24.4280   15.9330   11.2070 C   0  0  0  0  0  0  0  0  0  0  0  0
   24.1480   15.9840   12.5890 C   0  0  0  0  0  0  0  0  0  0  0  0
   25.0260   16.5180   13.6510 C   0  0  0  0  0  0  0  0  0  0  0  0
   25.5230   15.7520   14.4700 O   0  0  0  0  0  0  0  0  0  0  0  0
   25.2310   17.8750   13.7060 N   0  0  0  0  0  0  0  0  0  0  0  0
   26.1610   18.4730   14.6550 C   0  0  2  0  0  0  0  0  0  0  0  0
   25.8310   18.0990   16.0970 C   0  0  0  0  0  0  0  0  0  0  0  0
   26.8230   18.7730   17.0340 C   0  0  0  0  0  0  0  0  0  0  0  0
   26.8400   20.2700   16.8290 C   0  0  0  0  0  0  0  0  0  0  0  0
   27.0250   21.0590   17.7500 O   0  0  0  0  0  0  0  0  0  0  0  0
   26.6640   20.7160   15.5430 N   0  0  0  0  0  0  0  0  0  0  0  0
   26.1050   19.9980   14.5150 C   0  0  0  0  0  0  0  0  0  0  0  0
   25.6030   20.5640   13.5450 O   0  0  0  0  0  0  0  0  0  0  0  0
   22.9250   15.4540   12.9770 C   0  0  0  0  0  0  0  0  0  0  0  0
   22.0050   14.9470   12.1340 N   0  0  0  0  0  0  0  0  0  0  0  0
   22.2680   14.9310   10.8110 C   0  0  0  0  0  0  0  0  0  0  0  0
   23.4930   15.3990   10.2960 C   0  0  0  0  0  0  0  0  0  0  0  0
   21.4630   16.0920    5.9250 C   0  0  0  0  0  0  0  0  0  0  0  0
   20.3260   16.7560    5.9420 N   0  0  0  0  0  0  0  0  0  0  0  0
   18.9504   19.6134    8.5356 H   0  0  0  0  0  0  0  0  0  0  0  0
   19.8320   19.3891    6.9867 H   0  0  0  0  0  0  0  0  0  0  0  0
   18.0430   19.5504    6.9867 H   0  0  0  0  0  0  0  0  0  0  0  0
   18.5504   17.4068    8.7283 H   0  0  0  0  0  0  0  0  0  0  0  0
   17.9619   17.3157    7.0124 H   0  0  0  0  0  0  0  0  0  0  0  0
   21.0064   16.2966    9.1734 H   0  0  0  0  0  0  0  0  0  0  0  0
   25.8048   16.1186    7.9108 H   0  0  0  0  0  0  0  0  0  0  0  0
   24.7132   18.4865   13.0588 H   0  0  0  0  0  0  0  0  0  0  0  0
   27.1665   18.0898   14.4266 H   0  0  0  0  0  0  0  0  0  0  0  0
   24.8117   18.4343   16.3390 H   0  0  0  0  0  0  0  0  0  0  0  0
   25.8954   17.0075   16.2173 H   0  0  0  0  0  0  0  0  0  0  0  0
   26.5376   18.5568   18.0741 H   0  0  0  0  0  0  0  0  0  0  0  0
   27.8276   18.3809   16.8172 H   0  0  0  0  0  0  0  0  0  0  0  0
   26.9789   21.6734   15.3305 H   0  0  0  0  0  0  0  0  0  0  0  0
   22.6901   15.4476   14.0516 H   0  0  0  0  0  0  0  0  0  0  0  0
   21.5075   14.5431   10.1174 H   0  0  0  0  0  0  0  0  0  0  0  0
   21.9903   15.7747    5.0133 H   0  0  0  0  0  0  0  0  0  0  0  0
  1  2  1  0
  2  3  1  0
  3  4  2  0
  4  5  1  0
  5  6  1  0
  6  7  2  0
  6  8  2  0
  6  9  1  0
  9 10  2  0
 10 11  1  0
 11 12  1  0
 12 13  2  0
 13 14  1  0
 14 15  2  0
 14 16  1  0
 16 17  1  0
 17 18  1  0
 18 19  1  0
 19 20  1  0
 20 21  2  0
 20 22  1  0
 22 23  1  0
 23 24  2  0
 13 25  1  0
 25 26  2  0
 26 27  1  0
 27 28  2  0
  5 29  1  0
 29 30  2  0
 30  3  1  0
 28  9  1  0
 28 12  1  0
 23 17  1  0
  1 31  1  0
  1 32  1  0
  1 33  1  0
  2 34  1  0
  2 35  1  0
  4 36  1  0
 10 37  1  0
 16 38  1  0
 17 39  1  6
 18 40  1  0
 18 41  1  0
 19 42  1  0
 19 43  1  0
 22 44  1  0
 25 45  1  0
 27 46  1  0
 29 47  1  0
M  END
>  <meeko>  (234) 
{"is_sidechain": [true], "free_energy": -11.08, "intermolecular_energy": 0.0, "internal_energy": -11.08, "cluster_size": 11, "cluster_id": 1, "rank_in_cluster": 1}

>  <_RMSD_MCS_to_ref>  (234) 
0.8519660269700386

$$$$
ligand
     RDKit          3D

 46 49  0  0  0  0  0  0  0  0999 V2000
   18.9090   19.1540    7.5370 C   0  0  0  0  0  0  0  0  0  0  0  0
   18.7730   17.6460    7.6780 C   0  0  0  0  0  0  0  0  0  0  0  0
   20.0640   16.9420    7.4510 C   0  0  0  0  0  0  0  0  0  0  0  0
   21.1500   16.8230    8.2970 C   0  0  0  0  0  0  0  0  0  0  0  0
   22.0580   16.1010    7.5770 N   0  0  0  0  0  0  0  0  0  0  0  0
   23.4850   15.4450    8.1720 S   0  0  0  0  0  6  0  0  0  0  0  0
   24.5560   16.2700    7.6510 O   0  0  0  0  0  0  0  0  0  0  0  0
   23.4040   14.0190    7.9230 O   0  0  0  0  0  0  0  0  0  0  0  0
   23.3730   15.7200    9.9240 C   0  0  0  0  0  0  0  0  0  0  0  0
   22.3400   15.0990   10.6590 C   0  0  0  0  0  0  0  0  0  0  0  0
   22.2440   15.2940   12.0400 C   0  0  0  0  0  0  0  0  0  0  0  0
   23.1980   16.1010   12.6360 C   0  0  0  0  0  0  0  0  0  0  0  0
   24.2270   16.7020   11.9220 C   0  0  0  0  0  0  0  0  0  0  0  0
   24.3370   16.5220   10.5520 C   0  0  0  0  0  0  0  0  0  0  0  0
   25.1230   17.5090   12.7700 C   0  0  0  0  0  0  0  0  0  0  0  0
   26.0640   18.1620   12.3650 O   0  0  0  0  0  0  0  0  0  0  0  0
   24.7130   17.4070   14.1200 N   0  0  0  0  0  0  0  0  0  0  0  0
   25.0870   18.3300   15.2020 C   0  0  1  0  0  0  0  0  0  0  0  0
   26.3100   17.8030   15.9450 C   0  0  0  0  0  0  0  0  0  0  0  0
   26.7040   18.7870   17.0350 C   0  0  0  0  0  0  0  0  0  0  0  0
   26.9530   20.1640   16.4640 C   0  0  0  0  0  0  0  0  0  0  0  0
   27.7390   20.9550   16.9780 O   0  0  0  0  0  0  0  0  0  0  0  0
   26.2090   20.5170   15.3670 N   0  0  0  0  0  0  0  0  0  0  0  0
   25.3650   19.7180   14.6300 C   0  0  0  0  0  0  0  0  0  0  0  0
   24.8580   20.1390   13.5910 O   0  0  0  0  0  0  0  0  0  0  0  0
   23.3050   16.5060   14.3240 S   0  0  0  0  0  6  0  0  0  0  0  0
   22.2110   17.3800   14.6640 O   0  0  0  0  0  0  0  0  0  0  0  0
   23.6320   15.3130   15.0680 O   0  0  0  0  0  0  0  0  0  0  0  0
   21.5130   15.7690    6.3790 C   0  0  0  0  0  0  0  0  0  0  0  0
   20.3030   16.2730    6.2670 N   0  0  0  0  0  0  0  0  0  0  0  0
   18.9504   19.6134    8.5356 H   0  0  0  0  0  0  0  0  0  0  0  0
   19.8320   19.3891    6.9867 H   0  0  0  0  0  0  0  0  0  0  0  0
   18.0430   19.5504    6.9867 H   0  0  0  0  0  0  0  0  0  0  0  0
   18.4175   17.4157    8.6932 H   0  0  0  0  0  0  0  0  0  0  0  0
   18.0600   17.2983    6.9159 H   0  0  0  0  0  0  0  0  0  0  0  0
   21.2583   17.2194    9.3174 H   0  0  0  0  0  0  0  0  0  0  0  0
   21.6083   14.4596   10.1434 H   0  0  0  0  0  0  0  0  0  0  0  0
   21.4425   14.8250   12.6295 H   0  0  0  0  0  0  0  0  0  0  0  0
   25.1503   16.9908    9.9786 H   0  0  0  0  0  0  0  0  0  0  0  0
   24.2524   18.4033   15.9148 H   0  0  0  0  0  0  0  0  0  0  0  0
   26.0722   16.8294   16.3985 H   0  0  0  0  0  0  0  0  0  0  0  0
   27.1450   17.6845   15.2388 H   0  0  0  0  0  0  0  0  0  0  0  0
   25.8923   18.8468   17.7750 H   0  0  0  0  0  0  0  0  0  0  0  0
   27.6326   18.4319   17.5058 H   0  0  0  0  0  0  0  0  0  0  0  0
   26.2918   21.4961   15.0583 H   0  0  0  0  0  0  0  0  0  0  0  0
   22.0133   15.1631    5.6092 H   0  0  0  0  0  0  0  0  0  0  0  0
  1  2  1  0
  2  3  1  0
  3  4  2  0
  4  5  1  0
  5  6  1  0
  6  7  2  0
  6  8  2  0
  6  9  1  0
  9 10  2  0
 10 11  1  0
 11 12  2  0
 12 13  1  0
 13 14  2  0
 13 15  1  0
 15 16  2  0
 15 17  1  0
 17 18  1  0
 18 19  1  0
 19 20  1  0
 20 21  1  0
 21 22  2  0
 21 23  1  0
 23 24  1  0
 24 25  2  0
 17 26  1  0
 26 27  2  0
 26 28  2  0
  5 29  1  0
 29 30  2  0
 30  3  1  0
 14  9  1  0
 24 18  1  0
 26 12  1  0
  1 31  1  0
  1 32  1  0
  1 33  1  0
  2 34  1  0
  2 35  1  0
  4 36  1  0
 10 37  1  0
 11 38  1  0
 14 39  1  0
 18 40  1  1
 19 41  1  0
 19 42  1  0
 20 43  1  0
 20 44  1  0
 23 45  1  0
 29 46  1  0
M  END
>  <meeko>  (235) 
{"is_sidechain": [true], "free_energy": -11.08, "intermolecular_energy": 0.0, "internal_energy": -11.08, "cluster_size": 20, "cluster_id": 1, "rank_in_cluster": 1}

>  <_RMSD_MCS_to_ref>  (235) 
0.4411138678895099

$$$$
ligand
     RDKit          3D

 50 53  0  0  0  0  0  0  0  0999 V2000
   18.9090   19.1540    7.5370 C   0  0  0  0  0  0  0  0  0  0  0  0
   18.7730   17.6460    7.6780 C   0  0  0  0  0  0  0  0  0  0  0  0
   20.0880   16.9530    7.5950 C   0  0  0  0  0  0  0  0  0  0  0  0
   21.0190   16.7340    8.5920 C   0  0  0  0  0  0  0  0  0  0  0  0
   22.0160   16.0390    7.9710 N   0  0  0  0  0  0  0  0  0  0  0  0
   23.5180   15.6680    8.6260 S   0  0  0  0  0  6  0  0  0  0  0  0
   23.8590   14.3480    8.1360 O   0  0  0  0  0  0  0  0  0  0  0  0
   24.3500   16.8300    8.3760 O   0  0  0  0  0  0  0  0  0  0  0  0
   23.2100   15.5590   10.3660 C   0  0  0  0  0  0  0  0  0  0  0  0
   22.0090   14.9970   10.8080 C   0  0  0  0  0  0  0  0  0  0  0  0
   21.8040   14.9360   12.1700 C   0  0  0  0  0  0  0  0  0  0  0  0
   22.7370   15.4030   13.0870 C   0  0  0  0  0  0  0  0  0  0  0  0
   23.9420   15.9480   12.6580 C   0  0  0  0  0  0  0  0  0  0  0  0
   24.9270   16.4670   13.6430 C   0  0  0  0  0  0  0  0  0  0  0  0
   25.6870   15.7070   14.2300 O   0  0  0  0  0  0  0  0  0  0  0  0
   24.9410   17.8320   13.8270 N   0  0  0  0  0  0  0  0  0  0  0  0
   25.9590   18.4660   14.6540 C   0  0  2  0  0  0  0  0  0  0  0  0
   25.8320   18.0760   16.1230 C   0  0  0  0  0  0  0  0  0  0  0  0
   26.8950   18.8010   16.9340 C   0  0  0  0  0  0  0  0  0  0  0  0
   26.8090   20.2970   16.7400 C   0  0  0  0  0  0  0  0  0  0  0  0
   27.0870   21.0930   17.6310 O   0  0  0  0  0  0  0  0  0  0  0  0
   26.4340   20.7350   15.4950 N   0  0  0  0  0  0  0  0  0  0  0  0
   25.8140   19.9860   14.5270 C   0  0  0  0  0  0  0  0  0  0  0  0
   25.1960   20.5180   13.6050 O   0  0  0  0  0  0  0  0  0  0  0  0
   24.1790   16.0240   11.2760 C   0  0  0  0  0  0  0  0  0  0  0  0
   22.1760   15.2540   14.4520 C   0  0  0  0  0  0  0  0  0  0  0  0
   21.0070   14.3180   14.1440 C   0  0  0  0  0  0  0  0  0  0  0  0
   20.6660   14.4330   12.7420 O   0  0  0  0  0  0  0  0  0  0  0  0
   21.7090   15.8980    6.6560 C   0  0  0  0  0  0  0  0  0  0  0  0
   20.5360   16.4360    6.3950 N   0  0  0  0  0  0  0  0  0  0  0  0
   18.9504   19.6134    8.5356 H   0  0  0  0  0  0  0  0  0  0  0  0
   19.8320   19.3891    6.9867 H   0  0  0  0  0  0  0  0  0  0  0  0
   18.0430   19.5504    6.9867 H   0  0  0  0  0  0  0  0  0  0  0  0
   18.3149   17.4211    8.6524 H   0  0  0  0  0  0  0  0  0  0  0  0
   18.1474   17.2842    6.8487 H   0  0  0  0  0  0  0  0  0  0  0  0
   20.9683   17.0479    9.6450 H   0  0  0  0  0  0  0  0  0  0  0  0
   21.2583   14.6189   10.0984 H   0  0  0  0  0  0  0  0  0  0  0  0
   24.2214   18.4128   13.3734 H   0  0  0  0  0  0  0  0  0  0  0  0
   26.9448   18.1274   14.3025 H   0  0  0  0  0  0  0  0  0  0  0  0
   24.8345   18.3567   16.4919 H   0  0  0  0  0  0  0  0  0  0  0  0
   25.9692   16.9896   16.2270 H   0  0  0  0  0  0  0  0  0  0  0  0
   26.7525   18.5692   17.9998 H   0  0  0  0  0  0  0  0  0  0  0  0
   27.8839   18.4629   16.5908 H   0  0  0  0  0  0  0  0  0  0  0  0
   26.6370   21.7184   15.2655 H   0  0  0  0  0  0  0  0  0  0  0  0
   25.1234   16.4476   10.9035 H   0  0  0  0  0  0  0  0  0  0  0  0
   22.8974   14.7954   15.1443 H   0  0  0  0  0  0  0  0  0  0  0  0
   21.9029   16.1954   14.9511 H   0  0  0  0  0  0  0  0  0  0  0  0
   21.2962   13.2808   14.3690 H   0  0  0  0  0  0  0  0  0  0  0  0
   20.1388   14.5934   14.7607 H   0  0  0  0  0  0  0  0  0  0  0  0
   22.3509   15.4032    5.9122 H   0  0  0  0  0  0  0  0  0  0  0  0
  1  2  1  0
  2  3  1  0
  3  4  2  0
  4  5  1  0
  5  6  1  0
  6  7  2  0
  6  8  2  0
  6  9  1  0
  9 10  2  0
 10 11  1  0
 11 12  2  0
 12 13  1  0
 13 14  1  0
 14 15  2  0
 14 16  1  0
 16 17  1  0
 17 18  1  0
 18 19  1  0
 19 20  1  0
 20 21  2  0
 20 22  1  0
 22 23  1  0
 23 24  2  0
 13 25  2  0
 12 26  1  0
 26 27  1  0
 27 28  1  0
  5 29  1  0
 29 30  2  0
 30  3  1  0
 25  9  1  0
 28 11  1  0
 23 17  1  0
  1 31  1  0
  1 32  1  0
  1 33  1  0
  2 34  1  0
  2 35  1  0
  4 36  1  0
 10 37  1  0
 16 38  1  0
 17 39  1  6
 18 40  1  0
 18 41  1  0
 19 42  1  0
 19 43  1  0
 22 44  1  0
 25 45  1  0
 26 46  1  0
 26 47  1  0
 27 48  1  0
 27 49  1  0
 29 50  1  0
M  END
>  <meeko>  (236) 
{"is_sidechain": [true], "free_energy": -11.07, "intermolecular_energy": 0.0, "internal_energy": -11.07, "cluster_size": 20, "cluster_id": 1, "rank_in_cluster": 1}

>  <_RMSD_MCS_to_ref>  (236) 
0.6963961197160392

$$$$
ligand
     RDKit          3D

 50 53  0  0  0  0  0  0  0  0999 V2000
   18.9090   19.1540    7.5370 C   0  0  0  0  0  0  0  0  0  0  0  0
   18.7730   17.6460    7.6780 C   0  0  0  0  0  0  0  0  0  0  0  0
   20.0890   16.9530    7.6020 C   0  0  0  0  0  0  0  0  0  0  0  0
   21.0040   16.7130    8.6070 C   0  0  0  0  0  0  0  0  0  0  0  0
   22.0080   16.0250    7.9880 N   0  0  0  0  0  0  0  0  0  0  0  0
   23.5010   15.6450    8.6570 S   0  0  0  0  0  6  0  0  0  0  0  0
   23.8690   14.3550    8.1100 O   0  0  0  0  0  0  0  0  0  0  0  0
   24.3220   16.8280    8.4910 O   0  0  0  0  0  0  0  0  0  0  0  0
   23.1460   15.4430   10.3840 C   0  0  0  0  0  0  0  0  0  0  0  0
   21.9730   14.7820   10.7660 C   0  0  0  0  0  0  0  0  0  0  0  0
   21.7240   14.6450   12.1210 C   0  0  0  0  0  0  0  0  0  0  0  0
   22.6070   15.1380   13.0750 C   0  0  0  0  0  0  0  0  0  0  0  0
   23.7870   15.7780   12.7070 C   0  0  0  0  0  0  0  0  0  0  0  0
   24.7060   16.3060   13.7490 C   0  0  0  0  0  0  0  0  0  0  0  0
   25.2470   15.5460   14.5430 O   0  0  0  0  0  0  0  0  0  0  0  0
   24.9230   17.6650   13.7400 N   0  0  0  0  0  0  0  0  0  0  0  0
   25.9210   18.2690   14.6150 C   0  0  2  0  0  0  0  0  0  0  0  0
   25.6620   17.9600   16.0850 C   0  0  0  0  0  0  0  0  0  0  0  0
   26.7120   18.6510   16.9410 C   0  0  0  0  0  0  0  0  0  0  0  0
   26.7420   20.1380   16.6760 C   0  0  0  0  0  0  0  0  0  0  0  0
   27.0030   20.9590   17.5510 O   0  0  0  0  0  0  0  0  0  0  0  0
   26.4930   20.5390   15.3880 N   0  0  0  0  0  0  0  0  0  0  0  0
   25.8900   19.7870   14.4110 C   0  0  0  0  0  0  0  0  0  0  0  0
   25.3730   20.3140   13.4260 O   0  0  0  0  0  0  0  0  0  0  0  0
   24.0570   15.9320   11.3400 C   0  0  0  0  0  0  0  0  0  0  0  0
   22.0580   14.8620   14.4290 C   0  0  0  0  0  0  0  0  0  0  0  0
   20.9550   13.9540   14.1890 O   0  0  0  0  0  0  0  0  0  0  0  0
   20.5600   14.0230   12.8030 C   0  0  0  0  0  0  0  0  0  0  0  0
   21.7190   15.9090    6.6670 C   0  0  0  0  0  0  0  0  0  0  0  0
   20.5530   16.4560    6.3990 N   0  0  0  0  0  0  0  0  0  0  0  0
   18.9504   19.6134    8.5356 H   0  0  0  0  0  0  0  0  0  0  0  0
   19.8320   19.3891    6.9867 H   0  0  0  0  0  0  0  0  0  0  0  0
   18.0430   19.5504    6.9867 H   0  0  0  0  0  0  0  0  0  0  0  0
   18.3100   17.4214    8.6502 H   0  0  0  0  0  0  0  0  0  0  0  0
   18.1519   17.2836    6.8456 H   0  0  0  0  0  0  0  0  0  0  0  0
   20.9393   17.0084    9.6646 H   0  0  0  0  0  0  0  0  0  0  0  0
   21.2733   14.3851   10.0158 H   0  0  0  0  0  0  0  0  0  0  0  0
   24.3733   18.2633   13.1069 H   0  0  0  0  0  0  0  0  0  0  0  0
   26.9038   17.8487   14.3552 H   0  0  0  0  0  0  0  0  0  0  0  0
   24.6626   18.3240   16.3656 H   0  0  0  0  0  0  0  0  0  0  0  0
   25.7150   16.8731   16.2460 H   0  0  0  0  0  0  0  0  0  0  0  0
   26.4784   18.4805   18.0023 H   0  0  0  0  0  0  0  0  0  0  0  0
   27.6974   18.2326   16.6882 H   0  0  0  0  0  0  0  0  0  0  0  0
   26.7856   21.4924   15.1304 H   0  0  0  0  0  0  0  0  0  0  0  0
   24.9798   16.4344   11.0144 H   0  0  0  0  0  0  0  0  0  0  0  0
   22.8183   14.3910   15.0693 H   0  0  0  0  0  0  0  0  0  0  0  0
   21.7428   15.7782   14.9498 H   0  0  0  0  0  0  0  0  0  0  0  0
   20.3654   13.0171   12.4026 H   0  0  0  0  0  0  0  0  0  0  0  0
   19.6322   14.5958   12.6581 H   0  0  0  0  0  0  0  0  0  0  0  0
   22.3694   15.4248    5.9237 H   0  0  0  0  0  0  0  0  0  0  0  0
  1  2  1  0
  2  3  1  0
  3  4  2  0
  4  5  1  0
  5  6  1  0
  6  7  2  0
  6  8  2  0
  6  9  1  0
  9 10  2  0
 10 11  1  0
 11 12  2  0
 12 13  1  0
 13 14  1  0
 14 15  2  0
 14 16  1  0
 16 17  1  0
 17 18  1  0
 18 19  1  0
 19 20  1  0
 20 21  2  0
 20 22  1  0
 22 23  1  0
 23 24  2  0
 13 25  2  0
 12 26  1  0
 26 27  1  0
 27 28  1  0
  5 29  1  0
 29 30  2  0
 30  3  1  0
 25  9  1  0
 28 11  1  0
 23 17  1  0
  1 31  1  0
  1 32  1  0
  1 33  1  0
  2 34  1  0
  2 35  1  0
  4 36  1  0
 10 37  1  0
 16 38  1  0
 17 39  1  6
 18 40  1  0
 18 41  1  0
 19 42  1  0
 19 43  1  0
 22 44  1  0
 25 45  1  0
 26 46  1  0
 26 47  1  0
 28 48  1  0
 28 49  1  0
 29 50  1  0
M  END
>  <meeko>  (237) 
{"is_sidechain": [true], "free_energy": -11.07, "intermolecular_energy": 0.0, "internal_energy": -11.07, "cluster_size": 20, "cluster_id": 1, "rank_in_cluster": 1}

>  <_RMSD_MCS_to_ref>  (237) 
0.6395636533345734

$$$$
ligand
     RDKit          3D

 51 54  0  0  0  0  0  0  0  0999 V2000
   18.9090   19.1540    7.5370 C   0  0  0  0  0  0  0  0  0  0  0  0
   18.7730   17.6460    7.6780 C   0  0  0  0  0  0  0  0  0  0  0  0
   20.0870   16.9540    7.5860 C   0  0  0  0  0  0  0  0  0  0  0  0
   21.0720   16.8280    8.5470 C   0  0  0  0  0  0  0  0  0  0  0  0
   22.0410   16.0890    7.9340 N   0  0  0  0  0  0  0  0  0  0  0  0
   23.4800   15.5820    8.6350 S   0  0  0  0  0  6  0  0  0  0  0  0
   23.8220   14.3100    8.0310 O   0  0  0  0  0  0  0  0  0  0  0  0
   24.3530   16.7380    8.5320 O   0  0  0  0  0  0  0  0  0  0  0  0
   23.0870   15.3200   10.3520 C   0  0  0  0  0  0  0  0  0  0  0  0
   24.0060   15.8310   11.2880 C   0  0  0  0  0  0  0  0  0  0  0  0
   23.7410   15.7310   12.6520 C   0  0  0  0  0  0  0  0  0  0  0  0
   24.6700   16.2740   13.6800 C   0  0  0  0  0  0  0  0  0  0  0  0
   25.2080   15.5220   14.4840 O   0  0  0  0  0  0  0  0  0  0  0  0
   24.8990   17.6310   13.6490 N   0  0  0  0  0  0  0  0  0  0  0  0
   25.9050   18.2390   14.5110 C   0  0  2  0  0  0  0  0  0  0  0  0
   25.6530   17.9440   15.9860 C   0  0  0  0  0  0  0  0  0  0  0  0
   26.7120   18.6390   16.8290 C   0  0  0  0  0  0  0  0  0  0  0  0
   26.7470   20.1230   16.5510 C   0  0  0  0  0  0  0  0  0  0  0  0
   27.0190   20.9490   17.4180 O   0  0  0  0  0  0  0  0  0  0  0  0
   26.4890   20.5140   15.2620 N   0  0  0  0  0  0  0  0  0  0  0  0
   25.8800   19.7550   14.2940 C   0  0  0  0  0  0  0  0  0  0  0  0
   25.3630   20.2750   13.3050 O   0  0  0  0  0  0  0  0  0  0  0  0
   22.5480   15.1410   13.0760 C   0  0  0  0  0  0  0  0  0  0  0  0
   21.6320   14.6060   12.1580 C   0  0  0  0  0  0  0  0  0  0  0  0
   20.4560   14.0070   12.6380 C   0  0  0  0  0  0  0  0  0  0  0  0
   19.5260   13.4440   11.7680 C   0  0  0  0  0  0  0  0  0  0  0  0
   19.7670   13.4670   10.4040 C   0  0  0  0  0  0  0  0  0  0  0  0
   20.9310   14.0620    9.9090 C   0  0  0  0  0  0  0  0  0  0  0  0
   21.8900   14.6650   10.7630 C   0  0  0  0  0  0  0  0  0  0  0  0
   21.6670   15.8290    6.6560 C   0  0  0  0  0  0  0  0  0  0  0  0
   20.4700   16.3230    6.4190 N   0  0  0  0  0  0  0  0  0  0  0  0
   18.9504   19.6134    8.5356 H   0  0  0  0  0  0  0  0  0  0  0  0
   19.8320   19.3891    6.9867 H   0  0  0  0  0  0  0  0  0  0  0  0
   18.0430   19.5504    6.9867 H   0  0  0  0  0  0  0  0  0  0  0  0
   18.3211   17.4205    8.6552 H   0  0  0  0  0  0  0  0  0  0  0  0
   18.1415   17.2845    6.8531 H   0  0  0  0  0  0  0  0  0  0  0  0
   21.0742   17.2308    9.5706 H   0  0  0  0  0  0  0  0  0  0  0  0
   24.9340   16.3096   10.9421 H   0  0  0  0  0  0  0  0  0  0  0  0
   24.3525   18.2243   13.0085 H   0  0  0  0  0  0  0  0  0  0  0  0
   26.8844   17.8129   14.2480 H   0  0  0  0  0  0  0  0  0  0  0  0
   24.6569   18.3148   16.2694 H   0  0  0  0  0  0  0  0  0  0  0  0
   25.7017   16.8585   16.1569 H   0  0  0  0  0  0  0  0  0  0  0  0
   26.4848   18.4790   17.8933 H   0  0  0  0  0  0  0  0  0  0  0  0
   27.6938   18.2143   16.5728 H   0  0  0  0  0  0  0  0  0  0  0  0
   26.7792   21.4657   14.9956 H   0  0  0  0  0  0  0  0  0  0  0  0
   22.3222   15.0949   14.1516 H   0  0  0  0  0  0  0  0  0  0  0  0
   20.2661   13.9821   13.7212 H   0  0  0  0  0  0  0  0  0  0  0  0
   18.6070   12.9845   12.1608 H   0  0  0  0  0  0  0  0  0  0  0  0
   19.0419   13.0168    9.7100 H   0  0  0  0  0  0  0  0  0  0  0  0
   21.1089   14.0627    8.8235 H   0  0  0  0  0  0  0  0  0  0  0  0
   22.2775   15.2828    5.9219 H   0  0  0  0  0  0  0  0  0  0  0  0
  1  2  1  0
  2  3  1  0
  3  4  2  0
  4  5  1  0
  5  6  1  0
  6  7  2  0
  6  8  2  0
  6  9  1  0
  9 10  2  0
 10 11  1  0
 11 12  1  0
 12 13  2  0
 12 14  1  0
 14 15  1  0
 15 16  1  0
 16 17  1  0
 17 18  1  0
 18 19  2  0
 18 20  1  0
 20 21  1  0
 21 22  2  0
 11 23  2  0
 23 24  1  0
 24 25  2  0
 25 26  1  0
 26 27  2  0
 27 28  1  0
 28 29  2  0
  5 30  1  0
 30 31  2  0
 31  3  1  0
 29  9  1  0
 21 15  1  0
 29 24  1  0
  1 32  1  0
  1 33  1  0
  1 34  1  0
  2 35  1  0
  2 36  1  0
  4 37  1  0
 10 38  1  0
 14 39  1  0
 15 40  1  6
 16 41  1  0
 16 42  1  0
 17 43  1  0
 17 44  1  0
 20 45  1  0
 23 46  1  0
 25 47  1  0
 26 48  1  0
 27 49  1  0
 28 50  1  0
 30 51  1  0
M  END
>  <meeko>  (238) 
{"is_sidechain": [true], "free_energy": -11.07, "intermolecular_energy": 0.0, "internal_energy": -11.07, "cluster_size": 20, "cluster_id": 1, "rank_in_cluster": 1}

>  <_RMSD_MCS_to_ref>  (238) 
0.611431653307765

$$$$
ligand
     RDKit          3D

 54 57  0  0  0  0  0  0  0  0999 V2000
   18.9090   19.1540    7.5370 C   0  0  0  0  0  0  0  0  0  0  0  0
   18.7730   17.6460    7.6780 C   0  0  0  0  0  0  0  0  0  0  0  0
   20.0890   16.9540    7.6200 C   0  0  0  0  0  0  0  0  0  0  0  0
   21.0170   16.7680    8.6250 C   0  0  0  0  0  0  0  0  0  0  0  0
   22.0160   16.0490    8.0300 N   0  0  0  0  0  0  0  0  0  0  0  0
   23.4930   15.6630    8.7340 S   0  0  0  0  0  6  0  0  0  0  0  0
   24.3440   16.8280    8.5720 O   0  0  0  0  0  0  0  0  0  0  0  0
   23.8600   14.3710    8.1810 O   0  0  0  0  0  0  0  0  0  0  0  0
   23.1010   15.4540   10.4520 C   0  0  0  0  0  0  0  0  0  0  0  0
   24.0030   15.9840   11.3910 C   0  0  0  0  0  0  0  0  0  0  0  0
   23.7720   15.8020   12.7550 C   0  0  0  0  0  0  0  0  0  0  0  0
   24.6900   16.3420   13.7980 C   0  0  0  0  0  0  0  0  0  0  0  0
   25.2160   15.5910   14.6100 O   0  0  0  0  0  0  0  0  0  0  0  0
   24.9320   17.6980   13.7650 N   0  0  0  0  0  0  0  0  0  0  0  0
   25.9290   18.3030   14.6380 C   0  0  2  0  0  0  0  0  0  0  0  0
   25.6680   18.0050   16.1100 C   0  0  0  0  0  0  0  0  0  0  0  0
   26.7160   18.7030   16.9620 C   0  0  0  0  0  0  0  0  0  0  0  0
   26.7480   20.1880   16.6860 C   0  0  0  0  0  0  0  0  0  0  0  0
   27.0110   21.0150   17.5550 O   0  0  0  0  0  0  0  0  0  0  0  0
   26.5010   20.5790   15.3940 N   0  0  0  0  0  0  0  0  0  0  0  0
   25.8980   19.8190   14.4220 C   0  0  0  0  0  0  0  0  0  0  0  0
   25.3800   20.3390   13.4330 O   0  0  0  0  0  0  0  0  0  0  0  0
   22.6380   15.1000   13.1680 C   0  0  0  0  0  0  0  0  0  0  0  0
   21.7360   14.5680   12.2290 C   0  0  0  0  0  0  0  0  0  0  0  0
   21.9280   14.7830   10.8480 C   0  0  0  0  0  0  0  0  0  0  0  0
   21.0480   14.2180    9.9110 N   0  0  0  0  0  0  0  0  0  0  0  0
   19.7400   13.7860   10.3970 C   0  0  0  0  0  0  0  0  0  0  0  0
   19.8990   12.9550   11.6560 C   0  0  0  0  0  0  0  0  0  0  0  0
   20.5300   13.8150   12.7410 C   0  0  0  0  0  0  0  0  0  0  0  0
   21.7160   15.8720    6.7190 C   0  0  0  0  0  0  0  0  0  0  0  0
   20.5380   16.3940    6.4400 N   0  0  0  0  0  0  0  0  0  0  0  0
   18.9504   19.6134    8.5356 H   0  0  0  0  0  0  0  0  0  0  0  0
   19.8320   19.3891    6.9867 H   0  0  0  0  0  0  0  0  0  0  0  0
   18.0430   19.5504    6.9867 H   0  0  0  0  0  0  0  0  0  0  0  0
   18.2976   17.4222    8.6444 H   0  0  0  0  0  0  0  0  0  0  0  0
   18.1635   17.2824    6.8376 H   0  0  0  0  0  0  0  0  0  0  0  0
   20.9646   17.1182    9.6664 H   0  0  0  0  0  0  0  0  0  0  0  0
   24.8887   16.5408   11.0513 H   0  0  0  0  0  0  0  0  0  0  0  0
   24.4002   18.2927   13.1135 H   0  0  0  0  0  0  0  0  0  0  0  0
   26.9115   17.8778   14.3852 H   0  0  0  0  0  0  0  0  0  0  0  0
   24.6680   18.3705   16.3864 H   0  0  0  0  0  0  0  0  0  0  0  0
   25.7214   16.9194   16.2794 H   0  0  0  0  0  0  0  0  0  0  0  0
   26.4802   18.5410   18.0241 H   0  0  0  0  0  0  0  0  0  0  0  0
   27.7016   18.2825   16.7135 H   0  0  0  0  0  0  0  0  0  0  0  0
   26.7949   21.5299   15.1289 H   0  0  0  0  0  0  0  0  0  0  0  0
   22.4474   14.9611   14.2424 H   0  0  0  0  0  0  0  0  0  0  0  0
   21.3139   14.1125    8.9215 H   0  0  0  0  0  0  0  0  0  0  0  0
   19.1248   14.6702   10.6202 H   0  0  0  0  0  0  0  0  0  0  0  0
   19.2522   13.1758    9.6226 H   0  0  0  0  0  0  0  0  0  0  0  0
   18.9128   12.6023   11.9920 H   0  0  0  0  0  0  0  0  0  0  0  0
   20.5419   12.0867   11.4493 H   0  0  0  0  0  0  0  0  0  0  0  0
   19.7840   14.5392   13.1002 H   0  0  0  0  0  0  0  0  0  0  0  0
   20.8605   13.1520   13.5541 H   0  0  0  0  0  0  0  0  0  0  0  0
   22.3649   15.3639    5.9905 H   0  0  0  0  0  0  0  0  0  0  0  0
  1  2  1  0
  2  3  1  0
  3  4  2  0
  4  5  1  0
  5  6  1  0
  6  7  2  0
  6  8  2  0
  6  9  1  0
  9 10  2  0
 10 11  1  0
 11 12  1  0
 12 13  2  0
 12 14  1  0
 14 15  1  0
 15 16  1  0
 16 17  1  0
 17 18  1  0
 18 19  2  0
 18 20  1  0
 20 21  1  0
 21 22  2  0
 11 23  2  0
 23 24  1  0
 24 25  2  0
 25 26  1  0
 26 27  1  0
 27 28  1  0
 28 29  1  0
  5 30  1  0
 30 31  2  0
 31  3  1  0
 25  9  1  0
 21 15  1  0
 29 24  1  0
  1 32  1  0
  1 33  1  0
  1 34  1  0
  2 35  1  0
  2 36  1  0
  4 37  1  0
 10 38  1  0
 14 39  1  0
 15 40  1  6
 16 41  1  0
 16 42  1  0
 17 43  1  0
 17 44  1  0
 20 45  1  0
 23 46  1  0
 26 47  1  0
 27 48  1  0
 27 49  1  0
 28 50  1  0
 28 51  1  0
 29 52  1  0
 29 53  1  0
 30 54  1  0
M  END
>  <meeko>  (239) 
{"is_sidechain": [true], "free_energy": -11.07, "intermolecular_energy": 0.0, "internal_energy": -11.07, "cluster_size": 20, "cluster_id": 1, "rank_in_cluster": 1}

>  <_RMSD_MCS_to_ref>  (239) 
0.6566977996003942

$$$$
ligand
     RDKit          3D

 62 66  0  0  0  0  0  0  0  0999 V2000
   18.8250   19.0170    7.5350 C   0  0  0  0  0  0  0  0  0  0  0  0
   18.5200   17.5420    7.7330 C   0  0  0  0  0  0  0  0  0  0  0  0
   19.7520   16.7360    7.9470 C   0  0  0  0  0  0  0  0  0  0  0  0
   20.0510   15.8620    8.9730 C   0  0  0  0  0  0  0  0  0  0  0  0
   21.2940   15.3870    8.6570 N   0  0  0  0  0  0  0  0  0  0  0  0
   22.2610   14.4230    9.6410 S   0  0  0  0  0  6  0  0  0  0  0  0
   22.4500   13.2020    8.8810 O   0  0  0  0  0  0  0  0  0  0  0  0
   21.5940   14.4540   10.9300 O   0  0  0  0  0  0  0  0  0  0  0  0
   23.8260   15.2430    9.7920 C   0  0  0  0  0  0  0  0  0  0  0  0
   24.8070   15.1480    8.7990 C   0  0  0  0  0  0  0  0  0  0  0  0
   26.0060   15.8450    8.9440 C   0  0  0  0  0  0  0  0  0  0  0  0
   26.2100   16.6630   10.0540 C   0  0  0  0  0  0  0  0  0  0  0  0
   25.2300   16.7810   11.0530 C   0  0  0  0  0  0  0  0  0  0  0  0
   24.0610   16.0150   10.9410 C   0  0  0  0  0  0  0  0  0  0  0  0
   23.1160   16.0340   11.9260 O   0  0  0  0  0  0  0  0  0  0  0  0
   23.5490   15.5620   13.2310 C   0  0  0  0  0  0  0  0  0  0  0  0
   22.2270   15.1810   13.9400 C   0  0  0  0  0  0  0  0  0  0  0  0
   22.4470   14.4590   15.2600 C   0  0  0  0  0  0  0  0  0  0  0  0
   23.2900   13.3240   15.0980 O   0  0  0  0  0  0  0  0  0  0  0  0
   24.5680   13.6500   14.5600 C   0  0  0  0  0  0  0  0  0  0  0  0
   24.4290   14.2890   13.1870 C   0  0  0  0  0  0  0  0  0  0  0  0
   24.2210   16.7400   14.0060 C   0  0  0  0  0  0  0  0  0  0  0  0
   25.5460   17.1410   13.4930 N   0  0  0  0  0  0  0  0  0  0  0  0
   26.2990   17.9610   14.4760 C   0  0  2  0  0  0  0  0  0  0  0  0
   25.9580   17.6830   15.9460 C   0  0  0  0  0  0  0  0  0  0  0  0
   26.8370   18.5380   16.8450 C   0  0  0  0  0  0  0  0  0  0  0  0
   26.6780   20.0040   16.5300 C   0  0  0  0  0  0  0  0  0  0  0  0
   26.8380   20.8780   17.3780 O   0  0  0  0  0  0  0  0  0  0  0  0
   26.3960   20.3230   15.2280 N   0  0  0  0  0  0  0  0  0  0  0  0
   26.1300   19.4710   14.1790 C   0  0  0  0  0  0  0  0  0  0  0  0
   25.8140   19.9380   13.0870 O   0  0  0  0  0  0  0  0  0  0  0  0
   25.4250   17.7730   12.1730 C   0  0  0  0  0  0  0  0  0  0  0  0
   21.7200   15.9780    7.5110 C   0  0  0  0  0  0  0  0  0  0  0  0
   20.8070   16.8120    7.0570 N   0  0  0  0  0  0  0  0  0  0  0  0
   18.9260   19.5054    8.5155 H   0  0  0  0  0  0  0  0  0  0  0  0
   19.7645   19.1250    6.9731 H   0  0  0  0  0  0  0  0  0  0  0  0
   18.0054   19.4887    6.9731 H   0  0  0  0  0  0  0  0  0  0  0  0
   17.8669   17.4303    8.6111 H   0  0  0  0  0  0  0  0  0  0  0  0
   18.0303   17.1734    6.8196 H   0  0  0  0  0  0  0  0  0  0  0  0
   19.4313   15.6062    9.8451 H   0  0  0  0  0  0  0  0  0  0  0  0
   24.6333   14.5265    7.9082 H   0  0  0  0  0  0  0  0  0  0  0  0
   26.7924   15.7491    8.1809 H   0  0  0  0  0  0  0  0  0  0  0  0
   27.1515   17.2238   10.1488 H   0  0  0  0  0  0  0  0  0  0  0  0
   21.6560   16.1008   14.1346 H   0  0  0  0  0  0  0  0  0  0  0  0
   21.6838   14.4931   13.2754 H   0  0  0  0  0  0  0  0  0  0  0  0
   22.9148   15.1531   15.9737 H   0  0  0  0  0  0  0  0  0  0  0  0
   21.4710   14.1144   15.6324 H   0  0  0  0  0  0  0  0  0  0  0  0
   25.0748   14.3544   15.2360 H   0  0  0  0  0  0  0  0  0  0  0  0
   25.1550   12.7251   14.4606 H   0  0  0  0  0  0  0  0  0  0  0  0
   25.4290   14.5602   12.8177 H   0  0  0  0  0  0  0  0  0  0  0  0
   23.9444   13.5616   12.5191 H   0  0  0  0  0  0  0  0  0  0  0  0
   23.5534   17.6124   13.9490 H   0  0  0  0  0  0  0  0  0  0  0  0
   24.3814   16.3834   15.0342 H   0  0  0  0  0  0  0  0  0  0  0  0
   27.3484   17.6581   14.3455 H   0  0  0  0  0  0  0  0  0  0  0  0
   24.9010   17.9267   16.1288 H   0  0  0  0  0  0  0  0  0  0  0  0
   26.1348   16.6200   16.1669 H   0  0  0  0  0  0  0  0  0  0  0  0
   26.5543   18.3638   17.8937 H   0  0  0  0  0  0  0  0  0  0  0  0
   27.8867   18.2573   16.6740 H   0  0  0  0  0  0  0  0  0  0  0  0
   26.3810   21.3285   15.0050 H   0  0  0  0  0  0  0  0  0  0  0  0
   24.5620   18.4548   12.1899 H   0  0  0  0  0  0  0  0  0  0  0  0
   26.3684   18.3040   11.9779 H   0  0  0  0  0  0  0  0  0  0  0  0
   22.6905   15.7872    7.0297 H   0  0  0  0  0  0  0  0  0  0  0  0
  1  2  1  0
  2  3  1  0
  3  4  2  0
  4  5  1  0
  5  6  1  0
  6  7  2  0
  6  8  2  0
  6  9  1  0
  9 10  2  0
 10 11  1  0
 11 12  2  0
 12 13  1  0
 13 14  2  0
 14 15  1  0
 15 16  1  0
 16 17  1  0
 17 18  1  0
 18 19  1  0
 19 20  1  0
 20 21  1  0
 16 22  1  0
 22 23  1  0
 23 24  1  0
 24 25  1  0
 25 26  1  0
 26 27  1  0
 27 28  2  0
 27 29  1  0
 29 30  1  0
 30 31  2  0
 23 32  1  0
  5 33  1  0
 33 34  2  0
 34  3  1  0
 14  9  1  0
 21 16  1  0
 30 24  1  0
 32 13  1  0
  1 35  1  0
  1 36  1  0
  1 37  1  0
  2 38  1  0
  2 39  1  0
  4 40  1  0
 10 41  1  0
 11 42  1  0
 12 43  1  0
 17 44  1  0
 17 45  1  0
 18 46  1  0
 18 47  1  0
 20 48  1  0
 20 49  1  0
 21 50  1  0
 21 51  1  0
 22 52  1  0
 22 53  1  0
 24 54  1  1
 25 55  1  0
 25 56  1  0
 26 57  1  0
 26 58  1  0
 29 59  1  0
 32 60  1  0
 32 61  1  0
 33 62  1  0
M  END
>  <meeko>  (240) 
{"is_sidechain": [true], "free_energy": -11.06, "intermolecular_energy": 0.15, "internal_energy": -11.21, "cluster_size": 15, "cluster_id": 1, "rank_in_cluster": 1}

>  <_RMSD_MCS_to_ref>  (240) 
0.9351667706291157

$$$$
ligand
     RDKit          3D

 52 56  0  0  0  0  0  0  0  0999 V2000
   18.7970   18.8170    7.7190 C   0  0  0  0  0  0  0  0  0  0  0  0
   18.5280   17.3290    7.8810 C   0  0  0  0  0  0  0  0  0  0  0  0
   19.7860   16.5380    7.9710 C   0  0  0  0  0  0  0  0  0  0  0  0
   20.2430   15.7460    9.0070 C   0  0  0  0  0  0  0  0  0  0  0  0
   21.4460   15.2770    8.5620 N   0  0  0  0  0  0  0  0  0  0  0  0
   22.3900   14.1170    9.3290 S   0  0  0  0  0  6  0  0  0  0  0  0
   23.5260   13.9460    8.4460 O   0  0  0  0  0  0  0  0  0  0  0  0
   21.4910   13.0370    9.6820 O   0  0  0  0  0  0  0  0  0  0  0  0
   22.9840   14.8360   10.8510 C   0  0  0  0  0  0  0  0  0  0  0  0
   22.1710   14.6990   12.0050 C   0  0  0  0  0  0  0  0  0  0  0  0
   22.4600   15.3990   13.1750 C   0  0  0  0  0  0  0  0  0  0  0  0
   23.5520   16.2410   13.1580 C   0  0  0  0  0  0  0  0  0  0  0  0
   24.3890   16.3860   12.0490 C   0  0  0  0  0  0  0  0  0  0  0  0
   24.1470   15.6460   10.8810 C   0  0  0  0  0  0  0  0  0  0  0  0
   25.1030   15.7100    9.8290 N   0  0  0  0  0  0  0  0  0  0  0  0
   26.4570   15.4760    9.8530 C   0  0  0  0  0  0  0  0  0  0  0  0
   26.8830   15.7320    8.5730 C   0  0  0  0  0  0  0  0  0  0  0  0
   25.8340   16.1610    7.8250 N   0  0  0  0  0  0  0  0  0  0  0  0
   24.7630   16.1820    8.6040 N   0  0  0  0  0  0  0  0  0  0  0  0
   25.5060   17.3240   12.4110 C   0  0  0  0  0  0  0  0  0  0  0  0
   25.1700   17.7330   13.7680 N   0  0  0  0  0  0  0  0  0  0  0  0
   26.1100   18.4170   14.6500 C   0  0  2  0  0  0  0  0  0  0  0  0
   25.9350   18.0250   16.1140 C   0  0  0  0  0  0  0  0  0  0  0  0
   26.9990   18.7160   16.9520 C   0  0  0  0  0  0  0  0  0  0  0  0
   26.9590   20.2150   16.7620 C   0  0  0  0  0  0  0  0  0  0  0  0
   27.2280   20.9990   17.6670 O   0  0  0  0  0  0  0  0  0  0  0  0
   26.6290   20.6680   15.5100 N   0  0  0  0  0  0  0  0  0  0  0  0
   25.9950   19.9470   14.5230 C   0  0  0  0  0  0  0  0  0  0  0  0
   25.3930   20.5240   13.6210 O   0  0  0  0  0  0  0  0  0  0  0  0
   24.0670   17.0620   14.2580 C   0  0  0  0  0  0  0  0  0  0  0  0
   23.5910   17.1040   15.3750 O   0  0  0  0  0  0  0  0  0  0  0  0
   21.6830   15.7600    7.3150 C   0  0  0  0  0  0  0  0  0  0  0  0
   20.6840   16.5220    6.9220 N   0  0  0  0  0  0  0  0  0  0  0  0
   18.8815   19.2845    8.7111 H   0  0  0  0  0  0  0  0  0  0  0  0
   19.7359   18.9616    7.1643 H   0  0  0  0  0  0  0  0  0  0  0  0
   17.9682   19.2812    7.1643 H   0  0  0  0  0  0  0  0  0  0  0  0
   17.9442   17.1723    8.8000 H   0  0  0  0  0  0  0  0  0  0  0  0
   17.9758   16.9865    6.9935 H   0  0  0  0  0  0  0  0  0  0  0  0
   19.7509   15.5405    9.9691 H   0  0  0  0  0  0  0  0  0  0  0  0
   21.2985   14.0297   11.9761 H   0  0  0  0  0  0  0  0  0  0  0  0
   21.8410   15.2843   14.0771 H   0  0  0  0  0  0  0  0  0  0  0  0
   27.0664   15.1540   10.7103 H   0  0  0  0  0  0  0  0  0  0  0  0
   27.9140   15.6087    8.2099 H   0  0  0  0  0  0  0  0  0  0  0  0
   26.4779   16.8095   12.3832 H   0  0  0  0  0  0  0  0  0  0  0  0
   25.6005   18.1712   11.7158 H   0  0  0  0  0  0  0  0  0  0  0  0
   27.1098   18.0954   14.3229 H   0  0  0  0  0  0  0  0  0  0  0  0
   24.9375   18.3337   16.4600 H   0  0  0  0  0  0  0  0  0  0  0  0
   26.0365   16.9346   16.2173 H   0  0  0  0  0  0  0  0  0  0  0  0
   26.8257   18.4845   18.0133 H   0  0  0  0  0  0  0  0  0  0  0  0
   27.9857   18.3512   16.6305 H   0  0  0  0  0  0  0  0  0  0  0  0
   26.8797   21.6417   15.2866 H   0  0  0  0  0  0  0  0  0  0  0  0
   22.5818   15.5451    6.7183 H   0  0  0  0  0  0  0  0  0  0  0  0
  1  2  1  0
  2  3  1  0
  3  4  2  0
  4  5  1  0
  5  6  1  0
  6  7  2  0
  6  8  2  0
  6  9  1  0
  9 10  2  0
 10 11  1  0
 11 12  2  0
 12 13  1  0
 13 14  2  0
 14 15  1  0
 15 16  1  0
 16 17  2  0
 17 18  1  0
 18 19  2  0
 13 20  1  0
 20 21  1  0
 21 22  1  0
 22 23  1  0
 23 24  1  0
 24 25  1  0
 25 26  2  0
 25 27  1  0
 27 28  1  0
 28 29  2  0
 21 30  1  0
 30 31  2  0
  5 32  1  0
 32 33  2  0
 33  3  1  0
 14  9  1  0
 19 15  1  0
 28 22  1  0
 30 12  1  0
  1 34  1  0
  1 35  1  0
  1 36  1  0
  2 37  1  0
  2 38  1  0
  4 39  1  0
 10 40  1  0
 11 41  1  0
 16 42  1  0
 17 43  1  0
 20 44  1  0
 20 45  1  0
 22 46  1  6
 23 47  1  0
 23 48  1  0
 24 49  1  0
 24 50  1  0
 27 51  1  0
 32 52  1  0
M  END
>  <meeko>  (241) 
{"is_sidechain": [true], "free_energy": -11.06, "intermolecular_energy": 0.0, "internal_energy": -11.06, "cluster_size": 9, "cluster_id": 1, "rank_in_cluster": 1}

>  <_RMSD_MCS_to_ref>  (241) 
1.0319751288992707

$$$$
ligand
     RDKit          3D

 48 51  0  0  0  0  0  0  0  0999 V2000
   18.9090   19.1540    7.5370 C   0  0  0  0  0  0  0  0  0  0  0  0
   18.7730   17.6460    7.6780 C   0  0  0  0  0  0  0  0  0  0  0  0
   20.0000   16.9300    7.2370 C   0  0  0  0  0  0  0  0  0  0  0  0
   20.9100   16.2230    7.9980 C   0  0  0  0  0  0  0  0  0  0  0  0
   21.8160   15.7580    7.0900 N   0  0  0  0  0  0  0  0  0  0  0  0
   23.1420   14.7780    7.3990 S   0  0  0  0  0  6  0  0  0  0  0  0
   22.5760   13.5680    7.9690 O   0  0  0  0  0  0  0  0  0  0  0  0
   23.9320   14.7490    6.1830 O   0  0  0  0  0  0  0  0  0  0  0  0
   24.0880   15.5500    8.6450 C   0  0  0  0  0  0  0  0  0  0  0  0
   25.4020   15.9970    8.3720 C   0  0  0  0  0  0  0  0  0  0  0  0
   26.2330   16.6120    9.3540 C   0  0  0  0  0  0  0  0  0  0  0  0
   25.8310   16.8470   10.6850 C   0  0  0  0  0  0  0  0  0  0  0  0
   24.5230   16.4170   10.9260 C   0  0  0  0  0  0  0  0  0  0  0  0
   23.8230   16.4990   12.1100 C   0  0  0  0  0  0  0  0  0  0  0  0
   24.0570   17.0300   13.4250 C   0  0  0  0  0  0  0  0  0  0  0  0
   23.4190   16.6480   14.4010 O   0  0  0  0  0  0  0  0  0  0  0  0
   24.9860   18.0360   13.5150 N   0  0  0  0  0  0  0  0  0  0  0  0
   25.1900   18.7720   14.7560 C   0  0  1  0  0  0  0  0  0  0  0  0
   26.0990   18.0280   15.7290 C   0  0  0  0  0  0  0  0  0  0  0  0
   26.3100   18.8750   16.9740 C   0  0  0  0  0  0  0  0  0  0  0  0
   26.8570   20.2400   16.6240 C   0  0  0  0  0  0  0  0  0  0  0  0
   27.6380   20.8430   17.3530 O   0  0  0  0  0  0  0  0  0  0  0  0
   26.4130   20.7960   15.4520 N   0  0  0  0  0  0  0  0  0  0  0  0
   25.8290   20.1210   14.4100 C   0  0  0  0  0  0  0  0  0  0  0  0
   25.8120   20.5880   13.2720 O   0  0  0  0  0  0  0  0  0  0  0  0
   22.6440   15.8530   11.8340 N   0  0  0  0  0  0  0  0  0  0  0  0
   22.4930   15.4600   10.5580 N   0  0  0  0  0  0  0  0  0  0  0  0
   23.6520   15.7670    9.9590 C   0  0  0  0  0  0  0  0  0  0  0  0
   21.4590   16.1820    5.8490 C   0  0  0  0  0  0  0  0  0  0  0  0
   20.3570   16.9000    5.9020 N   0  0  0  0  0  0  0  0  0  0  0  0
   18.9504   19.6134    8.5356 H   0  0  0  0  0  0  0  0  0  0  0  0
   19.8320   19.3891    6.9867 H   0  0  0  0  0  0  0  0  0  0  0  0
   18.0430   19.5504    6.9867 H   0  0  0  0  0  0  0  0  0  0  0  0
   18.5814   17.4043    8.7339 H   0  0  0  0  0  0  0  0  0  0  0  0
   17.9412   17.3194    7.0366 H   0  0  0  0  0  0  0  0  0  0  0  0
   20.9055   16.0698    9.0873 H   0  0  0  0  0  0  0  0  0  0  0  0
   25.8010   15.8641    7.3556 H   0  0  0  0  0  0  0  0  0  0  0  0
   27.2459   16.9209    9.0562 H   0  0  0  0  0  0  0  0  0  0  0  0
   26.4728   17.3148   11.4460 H   0  0  0  0  0  0  0  0  0  0  0  0
   25.5510   18.2759   12.6879 H   0  0  0  0  0  0  0  0  0  0  0  0
   24.2139   18.8977   15.2474 H   0  0  0  0  0  0  0  0  0  0  0  0
   25.6315   17.0728   16.0102 H   0  0  0  0  0  0  0  0  0  0  0  0
   27.0694   17.8339   15.2488 H   0  0  0  0  0  0  0  0  0  0  0  0
   25.3472   18.9969   17.4918 H   0  0  0  0  0  0  0  0  0  0  0  0
   27.0384   18.3648   17.6214 H   0  0  0  0  0  0  0  0  0  0  0  0
   26.5285   21.8138   15.3439 H   0  0  0  0  0  0  0  0  0  0  0  0
   21.9267   15.6818   12.5531 H   0  0  0  0  0  0  0  0  0  0  0  0
   22.0147   15.9562    4.9269 H   0  0  0  0  0  0  0  0  0  0  0  0
  1  2  1  0
  2  3  1  0
  3  4  2  0
  4  5  1  0
  5  6  1  0
  6  7  2  0
  6  8  2  0
  6  9  1  0
  9 10  2  0
 10 11  1  0
 11 12  2  0
 12 13  1  0
 13 14  2  0
 14 15  1  0
 15 16  2  0
 15 17  1  0
 17 18  1  0
 18 19  1  0
 19 20  1  0
 20 21  1  0
 21 22  2  0
 21 23  1  0
 23 24  1  0
 24 25  2  0
 14 26  1  0
 26 27  1  0
 27 28  2  0
  5 29  1  0
 29 30  2  0
 30  3  1  0
 28  9  1  0
 28 13  1  0
 24 18  1  0
  1 31  1  0
  1 32  1  0
  1 33  1  0
  2 34  1  0
  2 35  1  0
  4 36  1  0
 10 37  1  0
 11 38  1  0
 12 39  1  0
 17 40  1  0
 18 41  1  1
 19 42  1  0
 19 43  1  0
 20 44  1  0
 20 45  1  0
 23 46  1  0
 26 47  1  0
 29 48  1  0
M  END
>  <meeko>  (242) 
{"is_sidechain": [true], "free_energy": -11.06, "intermolecular_energy": 0.0, "internal_energy": -11.06, "cluster_size": 14, "cluster_id": 1, "rank_in_cluster": 1}

>  <_RMSD_MCS_to_ref>  (242) 
0.644063747707563

$$$$
ligand
     RDKit          3D

 47 50  0  0  0  0  0  0  0  0999 V2000
   18.9090   19.1540    7.5370 C   0  0  0  0  0  0  0  0  0  0  0  0
   18.7730   17.6460    7.6780 C   0  0  0  0  0  0  0  0  0  0  0  0
   20.0500   16.9400    7.3870 C   0  0  0  0  0  0  0  0  0  0  0  0
   20.9390   16.3580    8.2700 C   0  0  0  0  0  0  0  0  0  0  0  0
   21.9110   15.8370    7.4690 N   0  0  0  0  0  0  0  0  0  0  0  0
   23.2160   14.8870    7.9520 S   0  0  0  0  0  6  0  0  0  0  0  0
   22.5870   13.6920    8.4960 O   0  0  0  0  0  0  0  0  0  0  0  0
   24.0660   14.7790    6.7790 O   0  0  0  0  0  0  0  0  0  0  0  0
   24.0970   15.6630    9.2210 C   0  0  0  0  0  0  0  0  0  0  0  0
   25.2570   16.2570    8.9050 C   0  0  0  0  0  0  0  0  0  0  0  0
   25.9780   16.9360   10.0020 C   0  0  0  0  0  0  0  0  0  0  0  0
   25.5890   17.0180   11.2340 N   0  0  0  0  0  0  0  0  0  0  0  0
   24.3880   16.4030   11.4680 N   0  0  0  0  0  0  0  0  0  0  0  0
   23.7340   16.3510   12.6750 C   0  0  0  0  0  0  0  0  0  0  0  0
   24.1400   16.9090   13.9370 C   0  0  0  0  0  0  0  0  0  0  0  0
   23.8360   16.4030   15.0140 O   0  0  0  0  0  0  0  0  0  0  0  0
   24.8900   18.0580   13.8770 N   0  0  0  0  0  0  0  0  0  0  0  0
   25.2580   18.8110   15.0630 C   0  0  1  0  0  0  0  0  0  0  0  0
   26.3190   18.0940   15.8900 C   0  0  0  0  0  0  0  0  0  0  0  0
   26.6770   18.9390   17.1030 C   0  0  0  0  0  0  0  0  0  0  0  0
   27.1230   20.3220   16.6920 C   0  0  0  0  0  0  0  0  0  0  0  0
   27.9820   20.9480   17.3070 O   0  0  0  0  0  0  0  0  0  0  0  0
   26.4970   20.8720   15.6010 N   0  0  0  0  0  0  0  0  0  0  0  0
   25.7970   20.1820   14.6420 C   0  0  0  0  0  0  0  0  0  0  0  0
   25.6160   20.6640   13.5250 O   0  0  0  0  0  0  0  0  0  0  0  0
   22.5810   15.6370   12.4070 C   0  0  0  0  0  0  0  0  0  0  0  0
   22.5120   15.2600   11.0920 N   0  0  0  0  0  0  0  0  0  0  0  0
   23.6080   15.7290   10.5410 C   0  0  0  0  0  0  0  0  0  0  0  0
   21.6060   16.0940    6.1700 C   0  0  0  0  0  0  0  0  0  0  0  0
   20.4830   16.7760    6.0840 N   0  0  0  0  0  0  0  0  0  0  0  0
   18.9504   19.6134    8.5356 H   0  0  0  0  0  0  0  0  0  0  0  0
   19.8320   19.3891    6.9867 H   0  0  0  0  0  0  0  0  0  0  0  0
   18.0430   19.5504    6.9867 H   0  0  0  0  0  0  0  0  0  0  0  0
   18.4650   17.4122    8.7078 H   0  0  0  0  0  0  0  0  0  0  0  0
   18.0228   17.3037    6.9500 H   0  0  0  0  0  0  0  0  0  0  0  0
   20.8767   16.3231    9.3677 H   0  0  0  0  0  0  0  0  0  0  0  0
   25.6528   16.2397    7.8788 H   0  0  0  0  0  0  0  0  0  0  0  0
   26.9343   17.4165    9.7479 H   0  0  0  0  0  0  0  0  0  0  0  0
   25.2031   18.3983   12.9566 H   0  0  0  0  0  0  0  0  0  0  0  0
   24.3573   18.9176   15.6854 H   0  0  0  0  0  0  0  0  0  0  0  0
   25.9278   17.1216   16.2237 H   0  0  0  0  0  0  0  0  0  0  0  0
   27.2177   17.9378   15.2753 H   0  0  0  0  0  0  0  0  0  0  0  0
   25.7942   19.0251   17.7536 H   0  0  0  0  0  0  0  0  0  0  0  0
   27.5053   18.4498   17.6364 H   0  0  0  0  0  0  0  0  0  0  0  0
   26.5579   21.8944   15.4919 H   0  0  0  0  0  0  0  0  0  0  0  0
   21.8128   15.4005   13.1580 H   0  0  0  0  0  0  0  0  0  0  0  0
   22.2132   15.7763    5.3095 H   0  0  0  0  0  0  0  0  0  0  0  0
  1  2  1  0
  2  3  1  0
  3  4  2  0
  4  5  1  0
  5  6  1  0
  6  7  2  0
  6  8  2  0
  6  9  1  0
  9 10  2  0
 10 11  1  0
 11 12  2  0
 12 13  1  0
 13 14  1  0
 14 15  1  0
 15 16  2  0
 15 17  1  0
 17 18  1  0
 18 19  1  0
 19 20  1  0
 20 21  1  0
 21 22  2  0
 21 23  1  0
 23 24  1  0
 24 25  2  0
 14 26  2  0
 26 27  1  0
 27 28  2  0
  5 29  1  0
 29 30  2  0
 30  3  1  0
 28  9  1  0
 28 13  1  0
 24 18  1  0
  1 31  1  0
  1 32  1  0
  1 33  1  0
  2 34  1  0
  2 35  1  0
  4 36  1  0
 10 37  1  0
 11 38  1  0
 17 39  1  0
 18 40  1  1
 19 41  1  0
 19 42  1  0
 20 43  1  0
 20 44  1  0
 23 45  1  0
 26 46  1  0
 29 47  1  0
M  END
>  <meeko>  (243) 
{"is_sidechain": [true], "free_energy": -11.06, "intermolecular_energy": 0.0, "internal_energy": -11.06, "cluster_size": 15, "cluster_id": 1, "rank_in_cluster": 1}

>  <_RMSD_MCS_to_ref>  (243) 
0.7480990724644846

$$$$
ligand
     RDKit          3D

 47 50  0  0  0  0  0  0  0  0999 V2000
   18.9090   19.1540    7.5370 C   0  0  0  0  0  0  0  0  0  0  0  0
   18.7730   17.6460    7.6780 C   0  0  0  0  0  0  0  0  0  0  0  0
   20.0660   16.9430    7.4580 C   0  0  0  0  0  0  0  0  0  0  0  0
   21.1540   16.8420    8.3030 C   0  0  0  0  0  0  0  0  0  0  0  0
   22.0570   16.0980    7.6010 N   0  0  0  0  0  0  0  0  0  0  0  0
   23.4830   15.4450    8.2040 S   0  0  0  0  0  6  0  0  0  0  0  0
   24.5550   16.3020    7.7400 O   0  0  0  0  0  0  0  0  0  0  0  0
   23.4220   14.0300    7.8910 O   0  0  0  0  0  0  0  0  0  0  0  0
   23.3370   15.6390    9.9650 C   0  0  0  0  0  0  0  0  0  0  0  0
   24.3410   16.3260   10.6580 C   0  0  0  0  0  0  0  0  0  0  0  0
   24.2630   16.5020   12.0550 C   0  0  0  0  0  0  0  0  0  0  0  0
   25.3370   17.2480   12.7510 C   0  0  0  0  0  0  0  0  0  0  0  0
   26.3490   17.5650   12.1340 O   0  0  0  0  0  0  0  0  0  0  0  0
   25.1430   17.5690   14.0740 N   0  0  0  0  0  0  0  0  0  0  0  0
   26.1090   18.3660   14.8160 C   0  0  2  0  0  0  0  0  0  0  0  0
   26.0370   18.0840   16.3140 C   0  0  0  0  0  0  0  0  0  0  0  0
   27.0540   18.9460   17.0430 C   0  0  0  0  0  0  0  0  0  0  0  0
   26.8490   20.4120   16.7390 C   0  0  0  0  0  0  0  0  0  0  0  0
   27.0880   21.2930   17.5590 O   0  0  0  0  0  0  0  0  0  0  0  0
   26.4140   20.7210   15.4760 N   0  0  0  0  0  0  0  0  0  0  0  0
   25.8460   19.8550   14.5720 C   0  0  0  0  0  0  0  0  0  0  0  0
   25.1930   20.2780   13.6210 O   0  0  0  0  0  0  0  0  0  0  0  0
   23.1620   15.9490   12.7320 C   0  0  0  0  0  0  0  0  0  0  0  0
   22.8180   15.9420   14.0590 N   0  0  0  0  0  0  0  0  0  0  0  0
   21.6810   15.2760   14.1950 N   0  0  0  0  0  0  0  0  0  0  0  0
   21.3030   14.8660   12.9740 N   0  0  0  0  0  0  0  0  0  0  0  0
   22.1920   15.2590   12.0100 C   0  0  0  0  0  0  0  0  0  0  0  0
   22.2350   15.0760   10.6250 C   0  0  0  0  0  0  0  0  0  0  0  0
   21.5110   15.7440    6.4090 C   0  0  0  0  0  0  0  0  0  0  0  0
   20.3020   16.2490    6.2870 N   0  0  0  0  0  0  0  0  0  0  0  0
   18.9504   19.6134    8.5356 H   0  0  0  0  0  0  0  0  0  0  0  0
   19.8320   19.3891    6.9867 H   0  0  0  0  0  0  0  0  0  0  0  0
   18.0430   19.5504    6.9867 H   0  0  0  0  0  0  0  0  0  0  0  0
   18.4124   17.4159    8.6914 H   0  0  0  0  0  0  0  0  0  0  0  0
   18.0641   17.2974    6.9126 H   0  0  0  0  0  0  0  0  0  0  0  0
   21.2668   17.2651    9.3121 H   0  0  0  0  0  0  0  0  0  0  0  0
   25.2010   16.7334   10.1062 H   0  0  0  0  0  0  0  0  0  0  0  0
   24.2930   17.2372   14.5518 H   0  0  0  0  0  0  0  0  0  0  0  0
   27.1134   18.0930   14.4602 H   0  0  0  0  0  0  0  0  0  0  0  0
   25.0273   18.3177   16.6827 H   0  0  0  0  0  0  0  0  0  0  0  0
   26.2587   17.0223   16.4975 H   0  0  0  0  0  0  0  0  0  0  0  0
   26.9483   18.7864   18.1262 H   0  0  0  0  0  0  0  0  0  0  0  0
   28.0601   18.6583   16.7038 H   0  0  0  0  0  0  0  0  0  0  0  0
   26.5238   21.6997   15.1744 H   0  0  0  0  0  0  0  0  0  0  0  0
   20.4487   14.3223   12.7855 H   0  0  0  0  0  0  0  0  0  0  0  0
   21.4517   14.5237   10.0852 H   0  0  0  0  0  0  0  0  0  0  0  0
   22.0098   15.1219    5.6512 H   0  0  0  0  0  0  0  0  0  0  0  0
  1  2  1  0
  2  3  1  0
  3  4  2  0
  4  5  1  0
  5  6  1  0
  6  7  2  0
  6  8  2  0
  6  9  1  0
  9 10  2  0
 10 11  1  0
 11 12  1  0
 12 13  2  0
 12 14  1  0
 14 15  1  0
 15 16  1  0
 16 17  1  0
 17 18  1  0
 18 19  2  0
 18 20  1  0
 20 21  1  0
 21 22  2  0
 11 23  2  0
 23 24  1  0
 24 25  2  0
 25 26  1  0
 26 27  1  0
 27 28  2  0
  5 29  1  0
 29 30  2  0
 30  3  1  0
 28  9  1  0
 21 15  1  0
 27 23  1  0
  1 31  1  0
  1 32  1  0
  1 33  1  0
  2 34  1  0
  2 35  1  0
  4 36  1  0
 10 37  1  0
 14 38  1  0
 15 39  1  6
 16 40  1  0
 16 41  1  0
 17 42  1  0
 17 43  1  0
 20 44  1  0
 26 45  1  0
 28 46  1  0
 29 47  1  0
M  END
>  <meeko>  (244) 
{"is_sidechain": [true], "free_energy": -11.06, "intermolecular_energy": 0.0, "internal_energy": -11.06, "cluster_size": 20, "cluster_id": 1, "rank_in_cluster": 1}

>  <_RMSD_MCS_to_ref>  (244) 
0.7900251754075807

$$$$
ligand
     RDKit          3D

 46 49  0  0  0  0  0  0  0  0999 V2000
   18.9090   19.1540    7.5370 C   0  0  0  0  0  0  0  0  0  0  0  0
   18.7730   17.6460    7.6780 C   0  0  0  0  0  0  0  0  0  0  0  0
   20.0320   16.9350    7.3290 C   0  0  0  0  0  0  0  0  0  0  0  0
   20.9410   16.3160    8.1660 C   0  0  0  0  0  0  0  0  0  0  0  0
   21.8950   15.8280    7.3200 N   0  0  0  0  0  0  0  0  0  0  0  0
   23.3210   15.0820    7.7820 S   0  0  0  0  0  6  0  0  0  0  0  0
   24.3310   15.4450    6.8080 O   0  0  0  0  0  0  0  0  0  0  0  0
   22.9670   13.7050    8.0690 O   0  0  0  0  0  0  0  0  0  0  0  0
   23.9150   15.6920    9.2760 C   0  0  0  0  0  0  0  0  0  0  0  0
   25.0790   16.4160    9.3830 C   0  0  0  0  0  0  0  0  0  0  0  0
   25.3830   16.8820   10.9930 S   0  0  0  0  0  0  0  0  0  0  0  0
   23.9450   16.1310   11.5720 C   0  0  0  0  0  0  0  0  0  0  0  0
   23.3970   16.0350   12.8500 C   0  0  0  0  0  0  0  0  0  0  0  0
   24.0230   16.6150   14.0750 C   0  0  0  0  0  0  0  0  0  0  0  0
   24.1560   15.9880   15.1170 O   0  0  0  0  0  0  0  0  0  0  0  0
   24.4270   17.9260   13.9380 N   0  0  0  0  0  0  0  0  0  0  0  0
   24.9060   18.7160   15.0580 C   0  0  1  0  0  0  0  0  0  0  0  0
   25.9850   17.9870   15.8540 C   0  0  0  0  0  0  0  0  0  0  0  0
   26.4610   18.8740   16.9930 C   0  0  0  0  0  0  0  0  0  0  0  0
   26.9460   20.2100   16.4830 C   0  0  0  0  0  0  0  0  0  0  0  0
   27.8640   20.8240   17.0170 O   0  0  0  0  0  0  0  0  0  0  0  0
   26.2850   20.7310   15.4010 N   0  0  0  0  0  0  0  0  0  0  0  0
   25.4800   20.0370   14.5310 C   0  0  0  0  0  0  0  0  0  0  0  0
   25.2350   20.4750   13.4080 O   0  0  0  0  0  0  0  0  0  0  0  0
   22.2240   15.3710   13.0330 N   0  0  0  0  0  0  0  0  0  0  0  0
   21.6360   14.8330   11.9630 C   0  0  0  0  0  0  0  0  0  0  0  0
   22.0800   14.8740   10.7070 N   0  0  0  0  0  0  0  0  0  0  0  0
   23.2490   15.5310   10.5200 C   0  0  0  0  0  0  0  0  0  0  0  0
   21.5760   16.1670    6.0440 C   0  0  0  0  0  0  0  0  0  0  0  0
   20.4420   16.8350    6.0140 N   0  0  0  0  0  0  0  0  0  0  0  0
   18.9504   19.6134    8.5356 H   0  0  0  0  0  0  0  0  0  0  0  0
   19.8320   19.3891    6.9867 H   0  0  0  0  0  0  0  0  0  0  0  0
   18.0430   19.5504    6.9867 H   0  0  0  0  0  0  0  0  0  0  0  0
   18.5093   17.4096    8.7194 H   0  0  0  0  0  0  0  0  0  0  0  0
   17.9904   17.3102    6.9817 H   0  0  0  0  0  0  0  0  0  0  0  0
   20.9043   16.2351    9.2624 H   0  0  0  0  0  0  0  0  0  0  0  0
   25.7330   16.6637    8.5339 H   0  0  0  0  0  0  0  0  0  0  0  0
   24.3875   18.3616   13.0055 H   0  0  0  0  0  0  0  0  0  0  0  0
   24.0547   18.8978   15.7305 H   0  0  0  0  0  0  0  0  0  0  0  0
   25.5707   17.0542   16.2642 H   0  0  0  0  0  0  0  0  0  0  0  0
   26.8326   17.7525   15.1932 H   0  0  0  0  0  0  0  0  0  0  0  0
   25.6272   19.0384   17.6914 H   0  0  0  0  0  0  0  0  0  0  0  0
   27.2986   18.3706   17.4980 H   0  0  0  0  0  0  0  0  0  0  0  0
   26.4032   21.7387   15.2235 H   0  0  0  0  0  0  0  0  0  0  0  0
   20.6884   14.3015   12.1349 H   0  0  0  0  0  0  0  0  0  0  0  0
   22.1806   15.9182    5.1594 H   0  0  0  0  0  0  0  0  0  0  0  0
  1  2  1  0
  2  3  1  0
  3  4  2  0
  4  5  1  0
  5  6  1  0
  6  7  2  0
  6  8  2  0
  6  9  1  0
  9 10  2  0
 10 11  1  0
 11 12  1  0
 12 13  2  0
 13 14  1  0
 14 15  2  0
 14 16  1  0
 16 17  1  0
 17 18  1  0
 18 19  1  0
 19 20  1  0
 20 21  2  0
 20 22  1  0
 22 23  1  0
 23 24  2  0
 13 25  1  0
 25 26  2  0
 26 27  1  0
 27 28  2  0
  5 29  1  0
 29 30  2  0
 30  3  1  0
 28  9  1  0
 28 12  1  0
 23 17  1  0
  1 31  1  0
  1 32  1  0
  1 33  1  0
  2 34  1  0
  2 35  1  0
  4 36  1  0
 10 37  1  0
 16 38  1  0
 17 39  1  1
 18 40  1  0
 18 41  1  0
 19 42  1  0
 19 43  1  0
 22 44  1  0
 26 45  1  0
 29 46  1  0
M  END
>  <meeko>  (245) 
{"is_sidechain": [true], "free_energy": -11.06, "intermolecular_energy": 0.0, "internal_energy": -11.06, "cluster_size": 6, "cluster_id": 1, "rank_in_cluster": 1}

>  <_RMSD_MCS_to_ref>  (245) 
0.49566599417125434

$$$$
ligand
     RDKit          3D

 48 51  0  0  0  0  0  0  0  0999 V2000
   18.7970   18.8170    7.7190 C   0  0  0  0  0  0  0  0  0  0  0  0
   18.5280   17.3290    7.8810 C   0  0  0  0  0  0  0  0  0  0  0  0
   19.7850   16.5370    7.9700 C   0  0  0  0  0  0  0  0  0  0  0  0
   20.1370   15.5660    8.8880 C   0  0  0  0  0  0  0  0  0  0  0  0
   21.3970   15.1950    8.5140 N   0  0  0  0  0  0  0  0  0  0  0  0
   22.2560   13.8930    9.1330 S   0  0  0  0  0  6  0  0  0  0  0  0
   23.2060   13.5230    8.0990 O   0  0  0  0  0  0  0  0  0  0  0  0
   21.2790   12.9700    9.6690 O   0  0  0  0  0  0  0  0  0  0  0  0
   23.1770   14.5860   10.4790 C   0  0  0  0  0  0  0  0  0  0  0  0
   24.4790   15.0580   10.2600 C   0  0  0  0  0  0  0  0  0  0  0  0
   25.2290   15.6010   11.3090 C   0  0  0  0  0  0  0  0  0  0  0  0
   24.7010   15.6900   12.6130 C   0  0  0  0  0  0  0  0  0  0  0  0
   25.4840   16.2610   13.7390 C   0  0  0  0  0  0  0  0  0  0  0  0
   26.0730   15.5320   14.5270 O   0  0  0  0  0  0  0  0  0  0  0  0
   25.5320   17.6360   13.8190 N   0  0  0  0  0  0  0  0  0  0  0  0
   26.3970   18.3010   14.7850 C   0  0  2  0  0  0  0  0  0  0  0  0
   26.0290   17.9600   16.2250 C   0  0  0  0  0  0  0  0  0  0  0  0
   26.9390   18.7230   17.1760 C   0  0  0  0  0  0  0  0  0  0  0  0
   26.8800   20.2100   16.9160 C   0  0  0  0  0  0  0  0  0  0  0  0
   26.9840   21.0400   17.8130 O   0  0  0  0  0  0  0  0  0  0  0  0
   26.7320   20.6010   15.6090 N   0  0  0  0  0  0  0  0  0  0  0  0
   26.2700   19.8150   14.5840 C   0  0  0  0  0  0  0  0  0  0  0  0
   25.7920   20.3100   13.5620 O   0  0  0  0  0  0  0  0  0  0  0  0
   23.3780   15.2510   12.8350 C   0  0  0  0  0  0  0  0  0  0  0  0
   22.4830   15.1770   13.9300 C   0  0  0  0  0  0  0  0  0  0  0  0
   21.3040   14.6440   13.6030 N   0  0  0  0  0  0  0  0  0  0  0  0
   21.4190   14.4000   12.2890 N   0  0  0  0  0  0  0  0  0  0  0  0
   22.6520   14.7160   11.7720 C   0  0  0  0  0  0  0  0  0  0  0  0
   21.7540   15.8850    7.4010 C   0  0  0  0  0  0  0  0  0  0  0  0
   20.7950   16.7140    7.0450 N   0  0  0  0  0  0  0  0  0  0  0  0
   18.8815   19.2845    8.7111 H   0  0  0  0  0  0  0  0  0  0  0  0
   19.7359   18.9616    7.1643 H   0  0  0  0  0  0  0  0  0  0  0  0
   17.9682   19.2812    7.1643 H   0  0  0  0  0  0  0  0  0  0  0  0
   17.9448   17.1725    8.8004 H   0  0  0  0  0  0  0  0  0  0  0  0
   17.9755   16.9871    6.9934 H   0  0  0  0  0  0  0  0  0  0  0  0
   19.5395   15.1804    9.7273 H   0  0  0  0  0  0  0  0  0  0  0  0
   24.9158   15.0008    9.2521 H   0  0  0  0  0  0  0  0  0  0  0  0
   26.2484   15.9648   11.1127 H   0  0  0  0  0  0  0  0  0  0  0  0
   24.9480   18.2018   13.1868 H   0  0  0  0  0  0  0  0  0  0  0  0
   27.4275   17.9552   14.6163 H   0  0  0  0  0  0  0  0  0  0  0  0
   24.9827   18.2429   16.4128 H   0  0  0  0  0  0  0  0  0  0  0  0
   26.1519   16.8792   16.3884 H   0  0  0  0  0  0  0  0  0  0  0  0
   26.6213   18.5271   18.2107 H   0  0  0  0  0  0  0  0  0  0  0  0
   27.9728   18.3829   17.0158 H   0  0  0  0  0  0  0  0  0  0  0  0
   26.9907   21.5706   15.3770 H   0  0  0  0  0  0  0  0  0  0  0  0
   22.7334   15.5226   14.9438 H   0  0  0  0  0  0  0  0  0  0  0  0
   20.6534   14.0115   11.7200 H   0  0  0  0  0  0  0  0  0  0  0  0
   22.7106   15.7680    6.8707 H   0  0  0  0  0  0  0  0  0  0  0  0
  1  2  1  0
  2  3  1  0
  3  4  2  0
  4  5  1  0
  5  6  1  0
  6  7  2  0
  6  8  2  0
  6  9  1  0
  9 10  2  0
 10 11  1  0
 11 12  2  0
 12 13  1  0
 13 14  2  0
 13 15  1  0
 15 16  1  0
 16 17  1  0
 17 18  1  0
 18 19  1  0
 19 20  2  0
 19 21  1  0
 21 22  1  0
 22 23  2  0
 12 24  1  0
 24 25  1  0
 25 26  2  0
 26 27  1  0
 27 28  1  0
  5 29  1  0
 29 30  2  0
 30  3  1  0
 28  9  1  0
 22 16  1  0
 28 24  2  0
  1 31  1  0
  1 32  1  0
  1 33  1  0
  2 34  1  0
  2 35  1  0
  4 36  1  0
 10 37  1  0
 11 38  1  0
 15 39  1  0
 16 40  1  6
 17 41  1  0
 17 42  1  0
 18 43  1  0
 18 44  1  0
 21 45  1  0
 25 46  1  0
 27 47  1  0
 29 48  1  0
M  END
>  <meeko>  (246) 
{"is_sidechain": [true], "free_energy": -11.05, "intermolecular_energy": 0.0, "internal_energy": -11.05, "cluster_size": 20, "cluster_id": 1, "rank_in_cluster": 1}

>  <_RMSD_MCS_to_ref>  (246) 
0.8162085109414946

$$$$
ligand
     RDKit          3D

 54 57  0  0  0  0  0  0  0  0999 V2000
   18.7970   18.8170    7.7190 C   0  0  0  0  0  0  0  0  0  0  0  0
   18.5280   17.3290    7.8810 C   0  0  0  0  0  0  0  0  0  0  0  0
   19.7840   16.5330    7.9410 C   0  0  0  0  0  0  0  0  0  0  0  0
   20.5400   16.1830    9.0420 C   0  0  0  0  0  0  0  0  0  0  0  0
   21.5670   15.4490    8.5240 N   0  0  0  0  0  0  0  0  0  0  0  0
   22.9090   14.8980    9.3690 S   0  0  0  0  0  6  0  0  0  0  0  0
   23.9840   15.8060    9.0200 O   0  0  0  0  0  0  0  0  0  0  0  0
   22.9620   13.4760    9.0940 O   0  0  0  0  0  0  0  0  0  0  0  0
   22.5870   15.0980   11.1090 C   0  0  0  0  0  0  0  0  0  0  0  0
   23.3420   15.9940   11.8650 C   0  0  0  0  0  0  0  0  0  0  0  0
   23.0280   16.1210   13.2070 C   0  0  0  0  0  0  0  0  0  0  0  0
   23.7950   17.0780   14.0680 C   0  0  0  0  0  0  0  0  0  0  0  0
   23.2540   17.6960   14.9760 O   0  0  0  0  0  0  0  0  0  0  0  0
   25.1320   17.1820   13.7590 N   0  0  0  0  0  0  0  0  0  0  0  0
   26.0680   17.9290   14.5780 C   0  0  2  0  0  0  0  0  0  0  0  0
   25.8880   17.6320   16.0640 C   0  0  0  0  0  0  0  0  0  0  0  0
   26.8800   18.4550   16.8700 C   0  0  0  0  0  0  0  0  0  0  0  0
   26.7410   19.9280   16.5710 C   0  0  0  0  0  0  0  0  0  0  0  0
   26.9410   20.7940   17.4190 O   0  0  0  0  0  0  0  0  0  0  0  0
   26.4080   20.2660   15.2850 N   0  0  0  0  0  0  0  0  0  0  0  0
   25.8660   19.4290   14.3390 C   0  0  0  0  0  0  0  0  0  0  0  0
   25.2780   19.8820   13.3580 O   0  0  0  0  0  0  0  0  0  0  0  0
   22.0360   15.4290   13.8210 N   0  0  0  0  0  0  0  0  0  0  0  0
   21.3100   14.5650   13.0730 C   0  0  0  0  0  0  0  0  0  0  0  0
   21.5560   14.3430   11.7120 C   0  0  0  0  0  0  0  0  0  0  0  0
   20.6890   13.3830   10.9260 C   0  0  0  0  0  0  0  0  0  0  0  0
   19.8650   12.4290   11.7920 C   0  0  0  0  0  0  0  0  0  0  0  0
   19.1900   13.1880   12.9240 C   0  0  0  0  0  0  0  0  0  0  0  0
   20.2470   13.8070   13.8280 C   0  0  0  0  0  0  0  0  0  0  0  0
   21.4360   15.3880    7.1730 C   0  0  0  0  0  0  0  0  0  0  0  0
   20.3600   16.0390    6.7870 N   0  0  0  0  0  0  0  0  0  0  0  0
   18.8815   19.2845    8.7111 H   0  0  0  0  0  0  0  0  0  0  0  0
   19.7359   18.9616    7.1643 H   0  0  0  0  0  0  0  0  0  0  0  0
   17.9682   19.2812    7.1643 H   0  0  0  0  0  0  0  0  0  0  0  0
   17.9636   17.1705    8.8117 H   0  0  0  0  0  0  0  0  0  0  0  0
   17.9567   16.9920    7.0035 H   0  0  0  0  0  0  0  0  0  0  0  0
   20.3563   16.4377   10.0962 H   0  0  0  0  0  0  0  0  0  0  0  0
   24.1566   16.5780   11.4118 H   0  0  0  0  0  0  0  0  0  0  0  0
   25.4821   16.7108   12.9127 H   0  0  0  0  0  0  0  0  0  0  0  0
   27.0846   17.6229   14.2903 H   0  0  0  0  0  0  0  0  0  0  0  0
   24.8634   17.8921   16.3682 H   0  0  0  0  0  0  0  0  0  0  0  0
   26.0651   16.5620   16.2477 H   0  0  0  0  0  0  0  0  0  0  0  0
   26.6969   18.2880   17.9417 H   0  0  0  0  0  0  0  0  0  0  0  0
   27.8973   18.1393   16.5953 H   0  0  0  0  0  0  0  0  0  0  0  0
   26.5805   21.2407   15.0003 H   0  0  0  0  0  0  0  0  0  0  0  0
   19.9964   13.9718   10.3066 H   0  0  0  0  0  0  0  0  0  0  0  0
   21.3700   12.7590   10.3286 H   0  0  0  0  0  0  0  0  0  0  0  0
   19.0963   11.9474   11.1698 H   0  0  0  0  0  0  0  0  0  0  0  0
   20.5346   11.6694   12.2218 H   0  0  0  0  0  0  0  0  0  0  0  0
   18.5564   13.9833   12.5043 H   0  0  0  0  0  0  0  0  0  0  0  0
   18.5706   12.4932   13.5102 H   0  0  0  0  0  0  0  0  0  0  0  0
   19.7498   14.5010   14.5216 H   0  0  0  0  0  0  0  0  0  0  0  0
   20.7483   12.9816   14.3547 H   0  0  0  0  0  0  0  0  0  0  0  0
   22.1312   14.8679    6.4976 H   0  0  0  0  0  0  0  0  0  0  0  0
  1  2  1  0
  2  3  1  0
  3  4  2  0
  4  5  1  0
  5  6  1  0
  6  7  2  0
  6  8  2  0
  6  9  1  0
  9 10  2  0
 10 11  1  0
 11 12  1  0
 12 13  2  0
 12 14  1  0
 14 15  1  0
 15 16  1  0
 16 17  1  0
 17 18  1  0
 18 19  2  0
 18 20  1  0
 20 21  1  0
 21 22  2  0
 11 23  2  0
 23 24  1  0
 24 25  2  0
 25 26  1  0
 26 27  1  0
 27 28  1  0
 28 29  1  0
  5 30  1  0
 30 31  2  0
 31  3  1  0
 25  9  1  0
 21 15  1  0
 29 24  1  0
  1 32  1  0
  1 33  1  0
  1 34  1  0
  2 35  1  0
  2 36  1  0
  4 37  1  0
 10 38  1  0
 14 39  1  0
 15 40  1  6
 16 41  1  0
 16 42  1  0
 17 43  1  0
 17 44  1  0
 20 45  1  0
 26 46  1  0
 26 47  1  0
 27 48  1  0
 27 49  1  0
 28 50  1  0
 28 51  1  0
 29 52  1  0
 29 53  1  0
 30 54  1  0
M  END
>  <meeko>  (247) 
{"is_sidechain": [true], "free_energy": -11.05, "intermolecular_energy": 0.0, "internal_energy": -11.05, "cluster_size": 15, "cluster_id": 1, "rank_in_cluster": 1}

>  <_RMSD_MCS_to_ref>  (247) 
0.5819008124719847

$$$$
ligand
     RDKit          3D

 53 56  0  0  0  0  0  0  0  0999 V2000
   18.7970   18.8170    7.7190 C   0  0  0  0  0  0  0  0  0  0  0  0
   18.5280   17.3290    7.8810 C   0  0  0  0  0  0  0  0  0  0  0  0
   19.7790   16.5500    8.0830 C   0  0  0  0  0  0  0  0  0  0  0  0
   20.0060   15.4710    8.9140 C   0  0  0  0  0  0  0  0  0  0  0  0
   21.3210   15.1630    8.7110 N   0  0  0  0  0  0  0  0  0  0  0  0
   22.1460   13.8580    9.3700 S   0  0  0  0  0  6  0  0  0  0  0  0
   23.2060   13.5590    8.4250 O   0  0  0  0  0  0  0  0  0  0  0  0
   21.1240   12.8870    9.7190 O   0  0  0  0  0  0  0  0  0  0  0  0
   22.8870   14.4420   10.8640 C   0  0  0  0  0  0  0  0  0  0  0  0
   24.1480   14.8890   10.6890 N   0  0  0  0  0  0  0  0  0  0  0  0
   24.8320   15.3630   11.7620 N   0  0  0  0  0  0  0  0  0  0  0  0
   24.2560   15.3670   12.9970 C   0  0  0  0  0  0  0  0  0  0  0  0
   25.1350   15.9600   14.0670 C   0  0  0  0  0  0  0  0  0  0  0  0
   25.5950   15.3040   14.9920 O   0  0  0  0  0  0  0  0  0  0  0  0
   25.3850   17.3110   13.9340 N   0  0  0  0  0  0  0  0  0  0  0  0
   26.2940   18.0290   14.8120 C   0  0  2  0  0  0  0  0  0  0  0  0
   25.8980   17.8880   16.2780 C   0  0  0  0  0  0  0  0  0  0  0  0
   26.8730   18.6710   17.1450 C   0  0  0  0  0  0  0  0  0  0  0  0
   26.9460   20.1180   16.7190 C   0  0  0  0  0  0  0  0  0  0  0  0
   27.1440   21.0290   17.5150 O   0  0  0  0  0  0  0  0  0  0  0  0
   26.8130   20.3700   15.3770 N   0  0  0  0  0  0  0  0  0  0  0  0
   26.2990   19.5130   14.4350 C   0  0  0  0  0  0  0  0  0  0  0  0
   25.8890   19.9320   13.3530 O   0  0  0  0  0  0  0  0  0  0  0  0
   22.9600   14.8770   13.2180 C   0  0  0  0  0  0  0  0  0  0  0  0
   22.2300   14.4280   12.0950 C   0  0  0  0  0  0  0  0  0  0  0  0
   20.8210   13.9020   12.2300 C   0  0  0  0  0  0  0  0  0  0  0  0
   20.1460   14.3070   13.5360 C   0  0  0  0  0  0  0  0  0  0  0  0
   21.0710   14.0230   14.7060 C   0  0  0  0  0  0  0  0  0  0  0  0
   22.3430   14.8630   14.5970 C   0  0  0  0  0  0  0  0  0  0  0  0
   21.8350   15.9980    7.7710 C   0  0  0  0  0  0  0  0  0  0  0  0
   20.9260   16.8670    7.3800 N   0  0  0  0  0  0  0  0  0  0  0  0
   18.8815   19.2845    8.7111 H   0  0  0  0  0  0  0  0  0  0  0  0
   19.7359   18.9616    7.1643 H   0  0  0  0  0  0  0  0  0  0  0  0
   17.9682   19.2812    7.1643 H   0  0  0  0  0  0  0  0  0  0  0  0
   17.8736   17.1803    8.7525 H   0  0  0  0  0  0  0  0  0  0  0  0
   18.0522   16.9695    6.9567 H   0  0  0  0  0  0  0  0  0  0  0  0
   19.2912   14.9733    9.5859 H   0  0  0  0  0  0  0  0  0  0  0  0
   24.9087   17.8307   13.1831 H   0  0  0  0  0  0  0  0  0  0  0  0
   27.2964   17.5939   14.6858 H   0  0  0  0  0  0  0  0  0  0  0  0
   24.8811   18.2818   16.4225 H   0  0  0  0  0  0  0  0  0  0  0  0
   25.9244   16.8262   16.5642 H   0  0  0  0  0  0  0  0  0  0  0  0
   26.5402   18.6221   18.1923 H   0  0  0  0  0  0  0  0  0  0  0  0
   27.8724   18.2253   17.0331 H   0  0  0  0  0  0  0  0  0  0  0  0
   27.1295   21.2917   15.0435 H   0  0  0  0  0  0  0  0  0  0  0  0
   20.2222   14.2903   11.3930 H   0  0  0  0  0  0  0  0  0  0  0  0
   20.8823   12.8037   12.2231 H   0  0  0  0  0  0  0  0  0  0  0  0
   19.9128   15.3816   13.5080 H   0  0  0  0  0  0  0  0  0  0  0  0
   19.2187   13.7282   13.6589 H   0  0  0  0  0  0  0  0  0  0  0  0
   20.5536   14.2693   15.6449 H   0  0  0  0  0  0  0  0  0  0  0  0
   21.3452   12.9578   14.6931 H   0  0  0  0  0  0  0  0  0  0  0  0
   22.0975   15.8984   14.8755 H   0  0  0  0  0  0  0  0  0  0  0  0
   23.0829   14.4046   15.2696 H   0  0  0  0  0  0  0  0  0  0  0  0
   22.8659   15.9545    7.3898 H   0  0  0  0  0  0  0  0  0  0  0  0
  1  2  1  0
  2  3  1  0
  3  4  2  0
  4  5  1  0
  5  6  1  0
  6  7  2  0
  6  8  2  0
  6  9  1  0
  9 10  2  0
 10 11  1  0
 11 12  2  0
 12 13  1  0
 13 14  2  0
 13 15  1  0
 15 16  1  0
 16 17  1  0
 17 18  1  0
 18 19  1  0
 19 20  2  0
 19 21  1  0
 21 22  1  0
 22 23  2  0
 12 24  1  0
 24 25  2  0
 25 26  1  0
 26 27  1  0
 27 28  1  0
 28 29  1  0
  5 30  1  0
 30 31  2  0
 31  3  1  0
 25  9  1  0
 22 16  1  0
 29 24  1  0
  1 32  1  0
  1 33  1  0
  1 34  1  0
  2 35  1  0
  2 36  1  0
  4 37  1  0
 15 38  1  0
 16 39  1  1
 17 40  1  0
 17 41  1  0
 18 42  1  0
 18 43  1  0
 21 44  1  0
 26 45  1  0
 26 46  1  0
 27 47  1  0
 27 48  1  0
 28 49  1  0
 28 50  1  0
 29 51  1  0
 29 52  1  0
 30 53  1  0
M  END
>  <meeko>  (248) 
{"is_sidechain": [true], "free_energy": -11.05, "intermolecular_energy": 0.0, "internal_energy": -11.05, "cluster_size": 18, "cluster_id": 1, "rank_in_cluster": 1}

>  <_RMSD_MCS_to_ref>  (248) 
0.7639346248934596

$$$$
ligand
     RDKit          3D

 52 56  0  0  0  0  0  0  0  0999 V2000
   18.7980   18.8170    7.7190 C   0  0  0  0  0  0  0  0  0  0  0  0
   18.5270   17.3290    7.8810 C   0  0  0  0  0  0  0  0  0  0  0  0
   19.7370   16.5070    7.6130 C   0  0  0  0  0  0  0  0  0  0  0  0
   20.7710   16.1850    8.4700 C   0  0  0  0  0  0  0  0  0  0  0  0
   21.6430   15.4850    7.6900 N   0  0  0  0  0  0  0  0  0  0  0  0
   23.0980   14.8000    8.1640 S   0  0  0  0  0  6  0  0  0  0  0  0
   23.0420   13.3750    7.9180 O   0  0  0  0  0  0  0  0  0  0  0  0
   24.0840   15.6350    7.4990 O   0  0  0  0  0  0  0  0  0  0  0  0
   23.2850   15.0790    9.9290 C   0  0  0  0  0  0  0  0  0  0  0  0
   24.5130   15.6960   10.2820 C   0  0  0  0  0  0  0  0  0  0  0  0
   24.7150   16.1100   11.5840 C   0  0  0  0  0  0  0  0  0  0  0  0
   23.7190   15.9240   12.5290 C   0  0  0  0  0  0  0  0  0  0  0  0
   22.5120   15.3150   12.2370 C   0  0  0  0  0  0  0  0  0  0  0  0
   22.2880   14.8540   10.9220 C   0  0  0  0  0  0  0  0  0  0  0  0
   21.0880   14.1290   10.6950 N   0  0  0  0  0  0  0  0  0  0  0  0
   20.9360   12.8440   10.2220 C   0  0  0  0  0  0  0  0  0  0  0  0
   19.5770   12.6560   10.1480 C   0  0  0  0  0  0  0  0  0  0  0  0
   18.9460   13.7930   10.5400 N   0  0  0  0  0  0  0  0  0  0  0  0
   19.8750   14.6830   10.8580 N   0  0  0  0  0  0  0  0  0  0  0  0
   24.1930   16.4650   13.8070 C   0  0  0  0  0  0  0  0  0  0  0  0
   23.5150   16.5250   14.8140 O   0  0  0  0  0  0  0  0  0  0  0  0
   25.4950   16.8900   13.6030 N   0  0  0  0  0  0  0  0  0  0  0  0
   26.2440   17.7160   14.5460 C   0  0  2  0  0  0  0  0  0  0  0  0
   25.7870   17.5680   15.9960 C   0  0  0  0  0  0  0  0  0  0  0  0
   26.6700   18.4220   16.8920 C   0  0  0  0  0  0  0  0  0  0  0  0
   26.6580   19.8690   16.4570 C   0  0  0  0  0  0  0  0  0  0  0  0
   26.9120   20.7880   17.2300 O   0  0  0  0  0  0  0  0  0  0  0  0
   26.4230   20.1120   15.1260 N   0  0  0  0  0  0  0  0  0  0  0  0
   26.2190   19.1940   14.1220 C   0  0  0  0  0  0  0  0  0  0  0  0
   26.1240   19.5600   12.9510 O   0  0  0  0  0  0  0  0  0  0  0  0
   25.8820   16.8060   12.2010 C   0  0  0  0  0  0  0  0  0  0  0  0
   21.0870   15.2940    6.4650 C   0  0  0  0  0  0  0  0  0  0  0  0
   19.9490   15.9460    6.3670 N   0  0  0  0  0  0  0  0  0  0  0  0
   18.8831   19.2843    8.7111 H   0  0  0  0  0  0  0  0  0  0  0  0
   19.7370   18.9604    7.1644 H   0  0  0  0  0  0  0  0  0  0  0  0
   17.9698   19.2823    7.1644 H   0  0  0  0  0  0  0  0  0  0  0  0
   18.1909   17.1399    8.9112 H   0  0  0  0  0  0  0  0  0  0  0  0
   17.7556   17.0440    7.1505 H   0  0  0  0  0  0  0  0  0  0  0  0
   20.8686   16.4357    9.5366 H   0  0  0  0  0  0  0  0  0  0  0  0
   25.2975   15.8433    9.5251 H   0  0  0  0  0  0  0  0  0  0  0  0
   21.7426   15.1925   13.0136 H   0  0  0  0  0  0  0  0  0  0  0  0
   21.7281   12.1267    9.9611 H   0  0  0  0  0  0  0  0  0  0  0  0
   19.0788   11.7308    9.8227 H   0  0  0  0  0  0  0  0  0  0  0  0
   27.2783   17.3432   14.5113 H   0  0  0  0  0  0  0  0  0  0  0  0
   24.7419   17.8989   16.0873 H   0  0  0  0  0  0  0  0  0  0  0  0
   25.8641   16.5138   16.3004 H   0  0  0  0  0  0  0  0  0  0  0  0
   26.3014   18.3558   17.9263 H   0  0  0  0  0  0  0  0  0  0  0  0
   27.7017   18.0470   16.8215 H   0  0  0  0  0  0  0  0  0  0  0  0
   26.3962   21.1026   14.8451 H   0  0  0  0  0  0  0  0  0  0  0  0
   26.0227   17.8069   11.7670 H   0  0  0  0  0  0  0  0  0  0  0  0
   26.8376   16.2853   12.0407 H   0  0  0  0  0  0  0  0  0  0  0  0
   21.5275   14.6794    5.6661 H   0  0  0  0  0  0  0  0  0  0  0  0
  1  2  1  0
  2  3  1  0
  3  4  2  0
  4  5  1  0
  5  6  1  0
  6  7  2  0
  6  8  2  0
  6  9  1  0
  9 10  2  0
 10 11  1  0
 11 12  2  0
 12 13  1  0
 13 14  2  0
 14 15  1  0
 15 16  1  0
 16 17  2  0
 17 18  1  0
 18 19  2  0
 12 20  1  0
 20 21  2  0
 20 22  1  0
 22 23  1  0
 23 24  1  0
 24 25  1  0
 25 26  1  0
 26 27  2  0
 26 28  1  0
 28 29  1  0
 29 30  2  0
 22 31  1  0
  5 32  1  0
 32 33  2  0
 33  3  1  0
 14  9  1  0
 19 15  1  0
 29 23  1  0
 31 11  1  0
  1 34  1  0
  1 35  1  0
  1 36  1  0
  2 37  1  0
  2 38  1  0
  4 39  1  0
 10 40  1  0
 13 41  1  0
 16 42  1  0
 17 43  1  0
 23 44  1  1
 24 45  1  0
 24 46  1  0
 25 47  1  0
 25 48  1  0
 28 49  1  0
 31 50  1  0
 31 51  1  0
 32 52  1  0
M  END
>  <meeko>  (249) 
{"is_sidechain": [true], "free_energy": -11.05, "intermolecular_energy": 0.0, "internal_energy": -11.05, "cluster_size": 17, "cluster_id": 1, "rank_in_cluster": 1}

>  <_RMSD_MCS_to_ref>  (249) 
0.8735155344290615

$$$$
ligand
     RDKit          3D

 55 58  0  0  0  0  0  0  0  0999 V2000
   18.7970   18.8170    7.7190 C   0  0  0  0  0  0  0  0  0  0  0  0
   18.5280   17.3290    7.8810 C   0  0  0  0  0  0  0  0  0  0  0  0
   19.7790   16.5560    8.1100 C   0  0  0  0  0  0  0  0  0  0  0  0
   20.0800   15.6750    9.1310 C   0  0  0  0  0  0  0  0  0  0  0  0
   21.3510   15.2650    8.8570 N   0  0  0  0  0  0  0  0  0  0  0  0
   22.1700   14.0040    9.6100 S   0  0  0  0  0  6  0  0  0  0  0  0
   23.5650   14.1530    9.2440 O   0  0  0  0  0  0  0  0  0  0  0  0
   21.4140   12.8060    9.3010 O   0  0  0  0  0  0  0  0  0  0  0  0
   21.9910   14.3650   11.3470 C   0  0  0  0  0  0  0  0  0  0  0  0
   23.1140   14.9390   11.9690 C   0  0  0  0  0  0  0  0  0  0  0  0
   23.1040   15.1560   13.3390 C   0  0  0  0  0  0  0  0  0  0  0  0
   24.2610   15.7440   14.0690 C   0  0  0  0  0  0  0  0  0  0  0  0
   25.0750   15.0150   14.6240 O   0  0  0  0  0  0  0  0  0  0  0  0
   24.3710   17.1160   14.0550 N   0  0  0  0  0  0  0  0  0  0  0  0
   25.5440   17.7820   14.6090 C   0  0  2  0  0  0  0  0  0  0  0  0
   25.6850   17.5580   16.1100 C   0  0  0  0  0  0  0  0  0  0  0  0
   26.8960   18.3210   16.6230 C   0  0  0  0  0  0  0  0  0  0  0  0
   26.8090   19.7880   16.2780 C   0  0  0  0  0  0  0  0  0  0  0  0
   27.2550   20.6670   17.0110 O   0  0  0  0  0  0  0  0  0  0  0  0
   26.2270   20.1040   15.0770 N   0  0  0  0  0  0  0  0  0  0  0  0
   25.4100   19.2840   14.3400 C   0  0  0  0  0  0  0  0  0  0  0  0
   24.6250   19.7390   13.5090 O   0  0  0  0  0  0  0  0  0  0  0  0
   21.9550   14.8330   14.0620 C   0  0  0  0  0  0  0  0  0  0  0  0
   20.7850   14.3130   13.4560 C   0  0  0  0  0  0  0  0  0  0  0  0
   20.8060   14.0420   12.0660 C   0  0  0  0  0  0  0  0  0  0  0  0
   19.7210   13.4980   11.3340 N   0  0  0  0  0  0  0  0  0  0  0  0
   18.5830   12.8530   11.6980 C   0  0  0  0  0  0  0  0  0  0  0  0
   17.8290   12.4530   10.8070 O   0  0  0  0  0  0  0  0  0  0  0  0
   18.2790   12.5720   13.1290 C   0  0  0  0  0  0  0  0  0  0  0  0
   18.3870   13.8550   13.9040 C   0  0  0  0  0  0  0  0  0  0  0  0
   19.7510   14.0360   14.3570 N   0  0  0  0  0  0  0  0  0  0  0  0
   21.7720   15.8560    7.7090 C   0  0  0  0  0  0  0  0  0  0  0  0
   20.8390   16.6510    7.2300 N   0  0  0  0  0  0  0  0  0  0  0  0
   18.8815   19.2845    8.7111 H   0  0  0  0  0  0  0  0  0  0  0  0
   19.7359   18.9616    7.1643 H   0  0  0  0  0  0  0  0  0  0  0  0
   17.9682   19.2812    7.1643 H   0  0  0  0  0  0  0  0  0  0  0  0
   17.8573   17.1812    8.7403 H   0  0  0  0  0  0  0  0  0  0  0  0
   18.0698   16.9641    6.9499 H   0  0  0  0  0  0  0  0  0  0  0  0
   19.4399   15.3732    9.9731 H   0  0  0  0  0  0  0  0  0  0  0  0
   23.9959   15.2145   11.3721 H   0  0  0  0  0  0  0  0  0  0  0  0
   23.6128   17.6811   13.6468 H   0  0  0  0  0  0  0  0  0  0  0  0
   26.4390   17.3601   14.1284 H   0  0  0  0  0  0  0  0  0  0  0  0
   24.7804   17.9186   16.6214 H   0  0  0  0  0  0  0  0  0  0  0  0
   25.8152   16.4843   16.3106 H   0  0  0  0  0  0  0  0  0  0  0  0
   26.9503   18.2130   17.7163 H   0  0  0  0  0  0  0  0  0  0  0  0
   27.7952   17.9055   16.1447 H   0  0  0  0  0  0  0  0  0  0  0  0
   26.4204   21.0404   14.6940 H   0  0  0  0  0  0  0  0  0  0  0  0
   21.9580   14.9891   15.1509 H   0  0  0  0  0  0  0  0  0  0  0  0
   19.8153   13.6165   10.3152 H   0  0  0  0  0  0  0  0  0  0  0  0
   17.2592   12.1697   13.2189 H   0  0  0  0  0  0  0  0  0  0  0  0
   18.9904   11.8328   13.5257 H   0  0  0  0  0  0  0  0  0  0  0  0
   18.1009   14.6981   13.2579 H   0  0  0  0  0  0  0  0  0  0  0  0
   17.7156   13.8136   14.7743 H   0  0  0  0  0  0  0  0  0  0  0  0
   19.9638   13.9593   15.3619 H   0  0  0  0  0  0  0  0  0  0  0  0
   22.7556   15.6929    7.2444 H   0  0  0  0  0  0  0  0  0  0  0  0
  1  2  1  0
  2  3  1  0
  3  4  2  0
  4  5  1  0
  5  6  1  0
  6  7  2  0
  6  8  2  0
  6  9  1  0
  9 10  2  0
 10 11  1  0
 11 12  1  0
 12 13  2  0
 12 14  1  0
 14 15  1  0
 15 16  1  0
 16 17  1  0
 17 18  1  0
 18 19  2  0
 18 20  1  0
 20 21  1  0
 21 22  2  0
 11 23  2  0
 23 24  1  0
 24 25  2  0
 25 26  1  0
 26 27  1  0
 27 28  2  0
 27 29  1  0
 29 30  1  0
 30 31  1  0
  5 32  1  0
 32 33  2  0
 33  3  1  0
 25  9  1  0
 21 15  1  0
 31 24  1  0
  1 34  1  0
  1 35  1  0
  1 36  1  0
  2 37  1  0
  2 38  1  0
  4 39  1  0
 10 40  1  0
 14 41  1  0
 15 42  1  6
 16 43  1  0
 16 44  1  0
 17 45  1  0
 17 46  1  0
 20 47  1  0
 23 48  1  0
 26 49  1  0
 29 50  1  0
 29 51  1  0
 30 52  1  0
 30 53  1  0
 31 54  1  0
 32 55  1  0
M  END
>  <meeko>  (250) 
{"is_sidechain": [true], "free_energy": -11.05, "intermolecular_energy": 0.15, "internal_energy": -11.19, "cluster_size": 13, "cluster_id": 1, "rank_in_cluster": 1}

>  <_RMSD_MCS_to_ref>  (250) 
0.5433139055831355

$$$$
ligand
     RDKit          3D

 54 58  0  0  0  0  0  0  0  0999 V2000
   18.9090   19.1540    7.5370 C   0  0  0  0  0  0  0  0  0  0  0  0
   18.7730   17.6460    7.6780 C   0  0  0  0  0  0  0  0  0  0  0  0
   20.0930   16.9610    7.6330 C   0  0  0  0  0  0  0  0  0  0  0  0
   21.0360   16.8290    8.6330 C   0  0  0  0  0  0  0  0  0  0  0  0
   22.0690   16.1750    8.0260 N   0  0  0  0  0  0  0  0  0  0  0  0
   23.5150   15.7370    8.7480 S   0  0  0  0  0  6  0  0  0  0  0  0
   23.7250   14.3630    8.3330 O   0  0  0  0  0  0  0  0  0  0  0  0
   24.4670   16.7890    8.4460 O   0  0  0  0  0  0  0  0  0  0  0  0
   23.3170   15.7170   10.5050 C   0  0  0  0  0  0  0  0  0  0  0  0
   24.0950   16.4310   11.3160 N   0  0  0  0  0  0  0  0  0  0  0  0
   23.8800   15.9480   12.5910 C   0  0  0  0  0  0  0  0  0  0  0  0
   24.5900   16.4560   13.7640 C   0  0  0  0  0  0  0  0  0  0  0  0
   24.8630   15.7620   14.7380 O   0  0  0  0  0  0  0  0  0  0  0  0
   24.9180   17.7890   13.6470 N   0  0  0  0  0  0  0  0  0  0  0  0
   25.9220   18.3800   14.5120 C   0  0  2  0  0  0  0  0  0  0  0  0
   25.6470   18.0410   15.9710 C   0  0  0  0  0  0  0  0  0  0  0  0
   26.7140   18.6760   16.8490 C   0  0  0  0  0  0  0  0  0  0  0  0
   26.7980   20.1670   16.6220 C   0  0  0  0  0  0  0  0  0  0  0  0
   27.0780   20.9540   17.5210 O   0  0  0  0  0  0  0  0  0  0  0  0
   26.5700   20.6070   15.3430 N   0  0  0  0  0  0  0  0  0  0  0  0
   25.9300   19.9070   14.3460 C   0  0  0  0  0  0  0  0  0  0  0  0
   25.4170   20.4980   13.3970 O   0  0  0  0  0  0  0  0  0  0  0  0
   22.9470   14.9380   12.5420 C   0  0  0  0  0  0  0  0  0  0  0  0
   22.5040   14.8730   11.2410 N   0  0  0  0  0  0  0  0  0  0  0  0
   21.4500   14.0000   10.9120 C   0  0  0  0  0  0  0  0  0  0  0  0
   20.6620   14.1090    9.7690 C   0  0  0  0  0  0  0  0  0  0  0  0
   19.6880   13.1400    9.5110 C   0  0  0  0  0  0  0  0  0  0  0  0
   19.4910   12.0780   10.3940 C   0  0  0  0  0  0  0  0  0  0  0  0
   20.2470   11.9960   11.5620 C   0  0  0  0  0  0  0  0  0  0  0  0
   21.2020   12.9720   11.8340 C   0  0  0  0  0  0  0  0  0  0  0  0
   21.9230   12.8280   12.9910 O   0  0  0  0  0  0  0  0  0  0  0  0
   22.3510   14.0680   13.5790 C   0  0  0  0  0  0  0  0  0  0  0  0
   21.7100   15.8420    6.7610 C   0  0  0  0  0  0  0  0  0  0  0  0
   20.5250   16.3400    6.4770 N   0  0  0  0  0  0  0  0  0  0  0  0
   18.9504   19.6134    8.5356 H   0  0  0  0  0  0  0  0  0  0  0  0
   19.8320   19.3891    6.9867 H   0  0  0  0  0  0  0  0  0  0  0  0
   18.0430   19.5504    6.9867 H   0  0  0  0  0  0  0  0  0  0  0  0
   18.2889   17.4214    8.6399 H   0  0  0  0  0  0  0  0  0  0  0  0
   18.1705   17.2787    6.8342 H   0  0  0  0  0  0  0  0  0  0  0  0
   20.9701   17.1713    9.6763 H   0  0  0  0  0  0  0  0  0  0  0  0
   24.4467   18.3708   12.9397 H   0  0  0  0  0  0  0  0  0  0  0  0
   26.9012   17.9688   14.2254 H   0  0  0  0  0  0  0  0  0  0  0  0
   24.6582   18.4286   16.2574 H   0  0  0  0  0  0  0  0  0  0  0  0
   25.6654   16.9492   16.1034 H   0  0  0  0  0  0  0  0  0  0  0  0
   26.4677   18.4879   17.9044 H   0  0  0  0  0  0  0  0  0  0  0  0
   27.6859   18.2308   16.5899 H   0  0  0  0  0  0  0  0  0  0  0  0
   26.9098   21.5501   15.1066 H   0  0  0  0  0  0  0  0  0  0  0  0
   20.8048   14.9505    9.0750 H   0  0  0  0  0  0  0  0  0  0  0  0
   19.0712   13.2156    8.6033 H   0  0  0  0  0  0  0  0  0  0  0  0
   18.7400   11.3064   10.1687 H   0  0  0  0  0  0  0  0  0  0  0  0
   20.0900   11.1647   12.2651 H   0  0  0  0  0  0  0  0  0  0  0  0
   21.4852   14.5766   14.0282 H   0  0  0  0  0  0  0  0  0  0  0  0
   23.1037   13.8605   14.3538 H   0  0  0  0  0  0  0  0  0  0  0  0
   22.3215   15.2418    6.0712 H   0  0  0  0  0  0  0  0  0  0  0  0
  1  2  1  0
  2  3  1  0
  3  4  2  0
  4  5  1  0
  5  6  1  0
  6  7  2  0
  6  8  2  0
  6  9  1  0
  9 10  2  0
 10 11  1  0
 11 12  1  0
 12 13  2  0
 12 14  1  0
 14 15  1  0
 15 16  1  0
 16 17  1  0
 17 18  1  0
 18 19  2  0
 18 20  1  0
 20 21  1  0
 21 22  2  0
 11 23  2  0
 23 24  1  0
 24 25  1  0
 25 26  2  0
 26 27  1  0
 27 28  2  0
 28 29  1  0
 29 30  2  0
 30 31  1  0
 31 32  1  0
  5 33  1  0
 33 34  2  0
 34  3  1  0
 24  9  1  0
 30 25  1  0
 21 15  1  0
 32 23  1  0
  1 35  1  0
  1 36  1  0
  1 37  1  0
  2 38  1  0
  2 39  1  0
  4 40  1  0
 14 41  1  0
 15 42  1  6
 16 43  1  0
 16 44  1  0
 17 45  1  0
 17 46  1  0
 20 47  1  0
 26 48  1  0
 27 49  1  0
 28 50  1  0
 29 51  1  0
 32 52  1  0
 32 53  1  0
 33 54  1  0
M  END
>  <meeko>  (251) 
{"is_sidechain": [true], "free_energy": -11.05, "intermolecular_energy": 0.0, "internal_energy": -11.05, "cluster_size": 19, "cluster_id": 1, "rank_in_cluster": 1}

>  <_RMSD_MCS_to_ref>  (251) 
0.6637255122078374

$$$$
ligand
     RDKit          3D

 57 61  0  0  0  0  0  0  0  0999 V2000
   18.9090   19.1540    7.5370 C   0  0  0  0  0  0  0  0  0  0  0  0
   18.7730   17.6460    7.6780 C   0  0  0  0  0  0  0  0  0  0  0  0
   20.0780   16.9480    7.5250 C   0  0  0  0  0  0  0  0  0  0  0  0
   20.5750   15.8760    8.2390 C   0  0  0  0  0  0  0  0  0  0  0  0
   21.8150   15.6710    7.7140 N   0  0  0  0  0  0  0  0  0  0  0  0
   22.9460   14.5290    8.1960 S   0  0  0  0  0  6  0  0  0  0  0  0
   23.6940   14.2240    6.9900 O   0  0  0  0  0  0  0  0  0  0  0  0
   22.2450   13.4860    8.9180 O   0  0  0  0  0  0  0  0  0  0  0  0
   24.0450   15.3690    9.3070 C   0  0  0  0  0  0  0  0  0  0  0  0
   23.5520   15.7480   10.5650 C   0  0  0  0  0  0  0  0  0  0  0  0
   24.3960   16.4630   11.3930 C   0  0  0  0  0  0  0  0  0  0  0  0
   25.6890   16.8300   11.0250 C   0  0  0  0  0  0  0  0  0  0  0  0
   26.1830   16.4790    9.7810 C   0  0  0  0  0  0  0  0  0  0  0  0
   25.3460   15.7470    8.9150 C   0  0  0  0  0  0  0  0  0  0  0  0
   25.9220   15.3400    7.6240 C   0  0  0  0  0  0  0  0  0  0  0  0
   26.2860   14.1770    7.5030 O   0  0  0  0  0  0  0  0  0  0  0  0
   26.0490   16.3150    6.6690 N   0  0  0  0  0  0  0  0  0  0  0  0
   25.2180   17.4960    6.4550 C   0  0  0  0  0  0  0  0  0  0  0  0
   25.7910   17.5240    5.0350 C   0  0  0  0  0  0  0  0  0  0  0  0
   26.2180   16.0670    5.2400 C   0  0  0  0  0  0  0  0  0  0  0  0
   26.3340   17.6070   12.1250 C   0  0  0  0  0  0  0  0  0  0  0  0
   25.3200   17.5760   13.1710 N   0  0  0  0  0  0  0  0  0  0  0  0
   25.3600   18.4290   14.3530 C   0  0  1  0  0  0  0  0  0  0  0  0
   26.2480   17.8630   15.4560 C   0  0  0  0  0  0  0  0  0  0  0  0
   26.1720   18.7660   16.6780 C   0  0  0  0  0  0  0  0  0  0  0  0
   26.5400   20.1890   16.3280 C   0  0  0  0  0  0  0  0  0  0  0  0
   27.1670   20.9130   17.0950 O   0  0  0  0  0  0  0  0  0  0  0  0
   26.1230   20.6470   15.1050 N   0  0  0  0  0  0  0  0  0  0  0  0
   25.8290   19.8560   14.0170 C   0  0  0  0  0  0  0  0  0  0  0  0
   25.9620   20.2910   12.8750 O   0  0  0  0  0  0  0  0  0  0  0  0
   24.1440   16.9810   12.7410 C   0  0  0  0  0  0  0  0  0  0  0  0
   23.0860   16.8870   13.3340 O   0  0  0  0  0  0  0  0  0  0  0  0
   22.0240   16.5560    6.7060 C   0  0  0  0  0  0  0  0  0  0  0  0
   20.9910   17.3590    6.5720 N   0  0  0  0  0  0  0  0  0  0  0  0
   18.9504   19.6134    8.5356 H   0  0  0  0  0  0  0  0  0  0  0  0
   19.8320   19.3891    6.9867 H   0  0  0  0  0  0  0  0  0  0  0  0
   18.0430   19.5504    6.9867 H   0  0  0  0  0  0  0  0  0  0  0  0
   18.3641   17.4186    8.6735 H   0  0  0  0  0  0  0  0  0  0  0  0
   18.1041   17.2909    6.8802 H   0  0  0  0  0  0  0  0  0  0  0  0
   20.0822   15.3155    9.0471 H   0  0  0  0  0  0  0  0  0  0  0  0
   22.5313   15.4856   10.8803 H   0  0  0  0  0  0  0  0  0  0  0  0
   27.2010   16.7635    9.4764 H   0  0  0  0  0  0  0  0  0  0  0  0
   24.1344   17.3162    6.5134 H   0  0  0  0  0  0  0  0  0  0  0  0
   25.2562   18.3702    7.1216 H   0  0  0  0  0  0  0  0  0  0  0  0
   25.0428   17.6742    4.2428 H   0  0  0  0  0  0  0  0  0  0  0  0
   26.5092   18.2951    4.7194 H   0  0  0  0  0  0  0  0  0  0  0  0
   25.5318   15.3194    4.8155 H   0  0  0  0  0  0  0  0  0  0  0  0
   27.1507   15.6629    4.8196 H   0  0  0  0  0  0  0  0  0  0  0  0
   27.2645   17.1249   12.4593 H   0  0  0  0  0  0  0  0  0  0  0  0
   26.6269   18.6251   11.8288 H   0  0  0  0  0  0  0  0  0  0  0  0
   24.3241   18.4640   14.7213 H   0  0  0  0  0  0  0  0  0  0  0  0
   25.9028   16.8534   15.7235 H   0  0  0  0  0  0  0  0  0  0  0  0
   27.2878   17.8114   15.1009 H   0  0  0  0  0  0  0  0  0  0  0  0
   25.1462   18.7476   17.0748 H   0  0  0  0  0  0  0  0  0  0  0  0
   26.8847   18.3962   17.4299 H   0  0  0  0  0  0  0  0  0  0  0  0
   26.0214   21.6656   14.9907 H   0  0  0  0  0  0  0  0  0  0  0  0
   22.9322   16.5960    6.0866 H   0  0  0  0  0  0  0  0  0  0  0  0
  1  2  1  0
  2  3  1  0
  3  4  2  0
  4  5  1  0
  5  6  1  0
  6  7  2  0
  6  8  2  0
  6  9  1  0
  9 10  2  0
 10 11  1  0
 11 12  2  0
 12 13  1  0
 13 14  2  0
 14 15  1  0
 15 16  2  0
 15 17  1  0
 17 18  1  0
 18 19  1  0
 19 20  1  0
 12 21  1  0
 21 22  1  0
 22 23  1  0
 23 24  1  0
 24 25  1  0
 25 26  1  0
 26 27  2  0
 26 28  1  0
 28 29  1  0
 29 30  2  0
 22 31  1  0
 31 32  2  0
  5 33  1  0
 33 34  2  0
 34  3  1  0
 14  9  1  0
 20 17  1  0
 29 23  1  0
 31 11  1  0
  1 35  1  0
  1 36  1  0
  1 37  1  0
  2 38  1  0
  2 39  1  0
  4 40  1  0
 10 41  1  0
 13 42  1  0
 18 43  1  0
 18 44  1  0
 19 45  1  0
 19 46  1  0
 20 47  1  0
 20 48  1  0
 21 49  1  0
 21 50  1  0
 23 51  1  1
 24 52  1  0
 24 53  1  0
 25 54  1  0
 25 55  1  0
 28 56  1  0
 33 57  1  0
M  END
>  <meeko>  (252) 
{"is_sidechain": [true], "free_energy": -11.05, "intermolecular_energy": 0.0, "internal_energy": -11.05, "cluster_size": 17, "cluster_id": 1, "rank_in_cluster": 1}

>  <_RMSD_MCS_to_ref>  (252) 
0.7714835635895874

$$$$
ligand
     RDKit          3D

 53 57  0  0  0  0  0  0  0  0999 V2000
   18.9090   19.1530    7.5370 C   0  0  0  0  0  0  0  0  0  0  0  0
   18.7730   17.6470    7.6780 C   0  0  0  0  0  0  0  0  0  0  0  0
   20.0790   16.9790    7.9330 C   0  0  0  0  0  0  0  0  0  0  0  0
   21.1570   16.8300    7.0820 C   0  0  0  0  0  0  0  0  0  0  0  0
   22.0900   16.1770    7.8320 N   0  0  0  0  0  0  0  0  0  0  0  0
   23.7090   15.9720    7.4430 S   0  0  0  0  0  6  0  0  0  0  0  0
   23.7510   15.8550    5.9990 O   0  0  0  0  0  0  0  0  0  0  0  0
   24.4440   16.9890    8.1700 O   0  0  0  0  0  0  0  0  0  0  0  0
   24.2310   14.3930    8.1040 C   0  0  0  0  0  0  0  0  0  0  0  0
   24.6130   13.3700    7.2530 O   0  0  0  0  0  0  0  0  0  0  0  0
   24.9200   12.2830    7.9980 C   0  0  0  0  0  0  0  0  0  0  0  0
   24.7480   12.5510    9.3310 C   0  0  0  0  0  0  0  0  0  0  0  0
   24.3220   13.9030    9.4080 C   0  0  0  0  0  0  0  0  0  0  0  0
   23.9860   14.6670   10.5910 C   0  0  0  0  0  0  0  0  0  0  0  0
   22.8110   14.3690   11.3160 C   0  0  0  0  0  0  0  0  0  0  0  0
   22.4780   15.0740   12.4790 C   0  0  0  0  0  0  0  0  0  0  0  0
   23.3310   16.0800   12.8970 C   0  0  0  0  0  0  0  0  0  0  0  0
   24.4790   16.3760   12.1630 C   0  0  0  0  0  0  0  0  0  0  0  0
   24.8330   15.6990   11.0110 C   0  0  0  0  0  0  0  0  0  0  0  0
   25.1910   17.4580   12.8500 C   0  0  0  0  0  0  0  0  0  0  0  0
   26.2650   17.9120   12.5090 O   0  0  0  0  0  0  0  0  0  0  0  0
   24.4110   17.8270   13.9360 N   0  0  0  0  0  0  0  0  0  0  0  0
   24.9280   18.6860   14.9960 C   0  0  1  0  0  0  0  0  0  0  0  0
   25.9650   17.9810   15.8650 C   0  0  0  0  0  0  0  0  0  0  0  0
   26.3900   18.9080   16.9930 C   0  0  0  0  0  0  0  0  0  0  0  0
   26.9040   20.2230   16.4550 C   0  0  0  0  0  0  0  0  0  0  0  0
   27.8310   20.8310   16.9810 O   0  0  0  0  0  0  0  0  0  0  0  0
   26.2690   20.7210   15.3460 N   0  0  0  0  0  0  0  0  0  0  0  0
   25.5400   19.9850   14.4410 C   0  0  0  0  0  0  0  0  0  0  0  0
   25.4190   20.3700   13.2800 O   0  0  0  0  0  0  0  0  0  0  0  0
   23.2530   16.9570   14.1010 C   0  0  0  0  0  0  0  0  0  0  0  0
   21.5920   15.9660    9.0780 C   0  0  0  0  0  0  0  0  0  0  0  0
   20.3640   16.4290    9.1680 N   0  0  0  0  0  0  0  0  0  0  0  0
   18.9505   19.6125    8.5356 H   0  0  0  0  0  0  0  0  0  0  0  0
   19.8320   19.3879    6.9867 H   0  0  0  0  0  0  0  0  0  0  0  0
   18.0430   19.5494    6.9867 H   0  0  0  0  0  0  0  0  0  0  0  0
   18.0961   17.4308    8.5177 H   0  0  0  0  0  0  0  0  0  0  0  0
   18.3769   17.2564    6.7290 H   0  0  0  0  0  0  0  0  0  0  0  0
   21.2431   17.1625    6.0370 H   0  0  0  0  0  0  0  0  0  0  0  0
   25.2600   11.3193    7.5908 H   0  0  0  0  0  0  0  0  0  0  0  0
   24.9077   11.8589   10.1709 H   0  0  0  0  0  0  0  0  0  0  0  0
   22.1455   13.5686   10.9605 H   0  0  0  0  0  0  0  0  0  0  0  0
   21.5649   14.8350   13.0439 H   0  0  0  0  0  0  0  0  0  0  0  0
   25.7415   15.9602   10.4485 H   0  0  0  0  0  0  0  0  0  0  0  0
   24.0568   18.9355   15.6195 H   0  0  0  0  0  0  0  0  0  0  0  0
   25.5280   17.0643   16.2878 H   0  0  0  0  0  0  0  0  0  0  0  0
   26.8411   17.7191   15.2536 H   0  0  0  0  0  0  0  0  0  0  0  0
   25.5249   19.1004   17.6446 H   0  0  0  0  0  0  0  0  0  0  0  0
   27.1997   18.4220   17.5570 H   0  0  0  0  0  0  0  0  0  0  0  0
   26.3446   21.7341   15.1761 H   0  0  0  0  0  0  0  0  0  0  0  0
   23.3276   16.3679   15.0269 H   0  0  0  0  0  0  0  0  0  0  0  0
   22.3024   17.5045   14.1827 H   0  0  0  0  0  0  0  0  0  0  0  0
   22.1390   15.4764    9.8972 H   0  0  0  0  0  0  0  0  0  0  0  0
  1  2  1  0
  2  3  1  0
  3  4  2  0
  4  5  1  0
  5  6  1  0
  6  7  2  0
  6  8  2  0
  6  9  1  0
  9 10  1  0
 10 11  1  0
 11 12  2  0
 12 13  1  0
 13 14  1  0
 14 15  2  0
 15 16  1  0
 16 17  2  0
 17 18  1  0
 18 19  2  0
 18 20  1  0
 20 21  2  0
 20 22  1  0
 22 23  1  0
 23 24  1  0
 24 25  1  0
 25 26  1  0
 26 27  2  0
 26 28  1  0
 28 29  1  0
 29 30  2  0
 22 31  1  0
  5 32  1  0
 32 33  2  0
 33  3  1  0
 13  9  2  0
 19 14  1  0
 29 23  1  0
 31 17  1  0
  1 34  1  0
  1 35  1  0
  1 36  1  0
  2 37  1  0
  2 38  1  0
  4 39  1  0
 11 40  1  0
 12 41  1  0
 15 42  1  0
 16 43  1  0
 19 44  1  0
 23 45  1  1
 24 46  1  0
 24 47  1  0
 25 48  1  0
 25 49  1  0
 28 50  1  0
 31 51  1  0
 31 52  1  0
 32 53  1  0
M  END
>  <meeko>  (253) 
{"is_sidechain": [true], "free_energy": -11.05, "intermolecular_energy": 0.0, "internal_energy": -11.05, "cluster_size": 20, "cluster_id": 1, "rank_in_cluster": 1}

>  <_RMSD_MCS_to_ref>  (253) 
1.900060715404174

$$$$
ligand
     RDKit          3D

 56 60  0  0  0  0  0  0  0  0999 V2000
   18.9090   19.1540    7.5370 C   0  0  0  0  0  0  0  0  0  0  0  0
   18.7730   17.6460    7.6780 C   0  0  0  0  0  0  0  0  0  0  0  0
   20.0820   16.9490    7.5550 C   0  0  0  0  0  0  0  0  0  0  0  0
   20.7710   16.2200    8.5040 C   0  0  0  0  0  0  0  0  0  0  0  0
   21.9020   15.8140    7.8560 N   0  0  0  0  0  0  0  0  0  0  0  0
   23.0960   14.8290    8.5020 S   0  0  0  0  0  6  0  0  0  0  0  0
   24.3180   15.0780    7.7630 O   0  0  0  0  0  0  0  0  0  0  0  0
   22.4840   13.5120    8.5300 O   0  0  0  0  0  0  0  0  0  0  0  0
   23.3310   15.3570   10.1910 C   0  0  0  0  0  0  0  0  0  0  0  0
   24.3170   16.3460   10.4020 C   0  0  0  0  0  0  0  0  0  0  0  0
   24.5590   16.7760   11.6930 C   0  0  0  0  0  0  0  0  0  0  0  0
   23.8370   16.2380   12.7500 C   0  0  0  0  0  0  0  0  0  0  0  0
   22.8590   15.2750   12.5750 C   0  0  0  0  0  0  0  0  0  0  0  0
   22.5790   14.8160   11.2710 C   0  0  0  0  0  0  0  0  0  0  0  0
   21.5150   13.8160   11.1230 C   0  0  0  0  0  0  0  0  0  0  0  0
   20.1960   14.2120   10.8530 C   0  0  0  0  0  0  0  0  0  0  0  0
   19.1810   13.2650   10.7060 C   0  0  0  0  0  0  0  0  0  0  0  0
   19.4740   11.9070   10.8110 C   0  0  0  0  0  0  0  0  0  0  0  0
   20.7820   11.4960   11.0560 C   0  0  0  0  0  0  0  0  0  0  0  0
   21.7970   12.4440   11.2050 C   0  0  0  0  0  0  0  0  0  0  0  0
   24.3070   16.8610   13.9910 C   0  0  0  0  0  0  0  0  0  0  0  0
   23.9250   16.5690   15.1070 O   0  0  0  0  0  0  0  0  0  0  0  0
   25.2500   17.8120   13.6280 N   0  0  0  0  0  0  0  0  0  0  0  0
   26.1270   18.4350   14.6130 C   0  0  2  0  0  0  0  0  0  0  0  0
   25.7160   18.1130   16.0470 C   0  0  0  0  0  0  0  0  0  0  0  0
   26.7230   18.7260   17.0090 C   0  0  0  0  0  0  0  0  0  0  0  0
   26.8620   20.2130   16.7790 C   0  0  0  0  0  0  0  0  0  0  0  0
   27.0440   21.0060   17.6980 O   0  0  0  0  0  0  0  0  0  0  0  0
   26.7920   20.6430   15.4780 N   0  0  0  0  0  0  0  0  0  0  0  0
   26.1920   19.9620   14.4430 C   0  0  0  0  0  0  0  0  0  0  0  0
   25.7440   20.5720   13.4750 O   0  0  0  0  0  0  0  0  0  0  0  0
   25.5450   17.7760   12.2010 C   0  0  0  0  0  0  0  0  0  0  0  0
   21.8660   16.2540    6.5730 C   0  0  0  0  0  0  0  0  0  0  0  0
   20.7750   16.9640    6.3610 N   0  0  0  0  0  0  0  0  0  0  0  0
   18.9504   19.6134    8.5356 H   0  0  0  0  0  0  0  0  0  0  0  0
   19.8320   19.3891    6.9867 H   0  0  0  0  0  0  0  0  0  0  0  0
   18.0430   19.5504    6.9867 H   0  0  0  0  0  0  0  0  0  0  0  0
   18.3428   17.4200    8.6648 H   0  0  0  0  0  0  0  0  0  0  0  0
   18.1227   17.2885    6.8660 H   0  0  0  0  0  0  0  0  0  0  0  0
   20.4762   16.0137    9.5435 H   0  0  0  0  0  0  0  0  0  0  0  0
   24.8809   16.7656    9.5559 H   0  0  0  0  0  0  0  0  0  0  0  0
   22.3087   14.8738   13.4389 H   0  0  0  0  0  0  0  0  0  0  0  0
   19.9590   15.2818   10.7560 H   0  0  0  0  0  0  0  0  0  0  0  0
   18.1494   13.5911   10.5072 H   0  0  0  0  0  0  0  0  0  0  0  0
   18.6736   11.1606   10.7006 H   0  0  0  0  0  0  0  0  0  0  0  0
   21.0160   10.4239   11.1322 H   0  0  0  0  0  0  0  0  0  0  0  0
   22.8292   12.1111   11.3887 H   0  0  0  0  0  0  0  0  0  0  0  0
   27.1237   18.0080   14.4279 H   0  0  0  0  0  0  0  0  0  0  0  0
   24.7176   18.5299   16.2454 H   0  0  0  0  0  0  0  0  0  0  0  0
   25.6902   17.0222   16.1866 H   0  0  0  0  0  0  0  0  0  0  0  0
   26.3849   18.5525   18.0413 H   0  0  0  0  0  0  0  0  0  0  0  0
   27.7015   18.2537   16.8372 H   0  0  0  0  0  0  0  0  0  0  0  0
   27.2246   21.5513   15.2573 H   0  0  0  0  0  0  0  0  0  0  0  0
   25.3872   18.7610   11.7374 H   0  0  0  0  0  0  0  0  0  0  0  0
   26.5897   17.5159   11.9753 H   0  0  0  0  0  0  0  0  0  0  0  0
   22.6376   16.0477    5.8167 H   0  0  0  0  0  0  0  0  0  0  0  0
  1  2  1  0
  2  3  1  0
  3  4  2  0
  4  5  1  0
  5  6  1  0
  6  7  2  0
  6  8  2  0
  6  9  1  0
  9 10  2  0
 10 11  1  0
 11 12  2  0
 12 13  1  0
 13 14  2  0
 14 15  1  0
 15 16  2  0
 16 17  1  0
 17 18  2  0
 18 19  1  0
 19 20  2  0
 12 21  1  0
 21 22  2  0
 21 23  1  0
 23 24  1  0
 24 25  1  0
 25 26  1  0
 26 27  1  0
 27 28  2  0
 27 29  1  0
 29 30  1  0
 30 31  2  0
 23 32  1  0
  5 33  1  0
 33 34  2  0
 34  3  1  0
 14  9  1  0
 20 15  1  0
 30 24  1  0
 32 11  1  0
  1 35  1  0
  1 36  1  0
  1 37  1  0
  2 38  1  0
  2 39  1  0
  4 40  1  0
 10 41  1  0
 13 42  1  0
 16 43  1  0
 17 44  1  0
 18 45  1  0
 19 46  1  0
 20 47  1  0
 24 48  1  6
 25 49  1  0
 25 50  1  0
 26 51  1  0
 26 52  1  0
 29 53  1  0
 32 54  1  0
 32 55  1  0
 33 56  1  0
M  END
>  <meeko>  (254) 
{"is_sidechain": [true], "free_energy": -11.05, "intermolecular_energy": 0.0, "internal_energy": -11.05, "cluster_size": 8, "cluster_id": 1, "rank_in_cluster": 1}

>  <_RMSD_MCS_to_ref>  (254) 
1.08748366526685

$$$$
ligand
     RDKit          3D

 48 51  0  0  0  0  0  0  0  0999 V2000
   18.7970   18.8170    7.7190 C   0  0  0  0  0  0  0  0  0  0  0  0
   18.5280   17.3290    7.8810 C   0  0  0  0  0  0  0  0  0  0  0  0
   19.7830   16.5310    7.9180 C   0  0  0  0  0  0  0  0  0  0  0  0
   20.5710   16.1980    9.0020 C   0  0  0  0  0  0  0  0  0  0  0  0
   21.5980   15.4800    8.4620 N   0  0  0  0  0  0  0  0  0  0  0  0
   22.7680   14.6420    9.3260 S   0  0  0  0  0  6  0  0  0  0  0  0
   23.8180   15.6090    9.5950 O   0  0  0  0  0  0  0  0  0  0  0  0
   23.0070   13.4070    8.6060 O   0  0  0  0  0  0  0  0  0  0  0  0
   21.9800   14.2600   10.8620 C   0  0  0  0  0  0  0  0  0  0  0  0
   21.0070   13.2480   10.9110 C   0  0  0  0  0  0  0  0  0  0  0  0
   20.3600   12.9330   12.1090 C   0  0  0  0  0  0  0  0  0  0  0  0
   20.6710   13.6130   13.2950 C   0  0  0  0  0  0  0  0  0  0  0  0
   21.6560   14.6110   13.2650 C   0  0  0  0  0  0  0  0  0  0  0  0
   22.1360   15.3990   14.2820 N   0  0  0  0  0  0  0  0  0  0  0  0
   23.0610   16.1650   13.7290 C   0  0  0  0  0  0  0  0  0  0  0  0
   23.8390   17.1590   14.4370 C   0  0  0  0  0  0  0  0  0  0  0  0
   23.3380   18.0590   15.1070 O   0  0  0  0  0  0  0  0  0  0  0  0
   25.1970   16.9980   14.3010 N   0  0  0  0  0  0  0  0  0  0  0  0
   26.1590   17.7920   15.0390 C   0  0  2  0  0  0  0  0  0  0  0  0
   25.9000   17.7490   16.5410 C   0  0  0  0  0  0  0  0  0  0  0  0
   26.9250   18.6130   17.2600 C   0  0  0  0  0  0  0  0  0  0  0  0
   26.9190   20.0280   16.7300 C   0  0  0  0  0  0  0  0  0  0  0  0
   27.1630   20.9980   17.4410 O   0  0  0  0  0  0  0  0  0  0  0  0
   26.6570   20.1820   15.3930 N   0  0  0  0  0  0  0  0  0  0  0  0
   26.0910   19.2470   14.5610 C   0  0  0  0  0  0  0  0  0  0  0  0
   25.5860   19.5790   13.4900 O   0  0  0  0  0  0  0  0  0  0  0  0
   23.1850   15.8960   12.3900 N   0  0  0  0  0  0  0  0  0  0  0  0
   22.2870   14.9090   12.0650 C   0  0  0  0  0  0  0  0  0  0  0  0
   21.4030   15.3600    7.1230 C   0  0  0  0  0  0  0  0  0  0  0  0
   20.3090   15.9950    6.7580 N   0  0  0  0  0  0  0  0  0  0  0  0
   18.8815   19.2845    8.7111 H   0  0  0  0  0  0  0  0  0  0  0  0
   19.7359   18.9616    7.1643 H   0  0  0  0  0  0  0  0  0  0  0  0
   17.9682   19.2812    7.1643 H   0  0  0  0  0  0  0  0  0  0  0  0
   17.9786   17.1687    8.8204 H   0  0  0  0  0  0  0  0  0  0  0  0
   17.9418   16.9956    7.0120 H   0  0  0  0  0  0  0  0  0  0  0  0
   20.4080   16.4533   10.0595 H   0  0  0  0  0  0  0  0  0  0  0  0
   20.7510   12.6963    9.9944 H   0  0  0  0  0  0  0  0  0  0  0  0
   19.5966   12.1411   12.1216 H   0  0  0  0  0  0  0  0  0  0  0  0
   20.1513   13.3680   14.2330 H   0  0  0  0  0  0  0  0  0  0  0  0
   25.5459   16.2829   13.6470 H   0  0  0  0  0  0  0  0  0  0  0  0
   27.1567   17.3680   14.8526 H   0  0  0  0  0  0  0  0  0  0  0  0
   24.8893   18.1299   16.7494 H   0  0  0  0  0  0  0  0  0  0  0  0
   25.9827   16.7114   16.8966 H   0  0  0  0  0  0  0  0  0  0  0  0
   26.6877   18.6316   18.3339 H   0  0  0  0  0  0  0  0  0  0  0  0
   27.9228   18.1826   17.0892 H   0  0  0  0  0  0  0  0  0  0  0  0
   26.9092   21.0872   14.9713 H   0  0  0  0  0  0  0  0  0  0  0  0
   23.8390   16.3551   11.7400 H   0  0  0  0  0  0  0  0  0  0  0  0
   22.0662   14.8095    6.4395 H   0  0  0  0  0  0  0  0  0  0  0  0
  1  2  1  0
  2  3  1  0
  3  4  2  0
  4  5  1  0
  5  6  1  0
  6  7  2  0
  6  8  2  0
  6  9  1  0
  9 10  2  0
 10 11  1  0
 11 12  2  0
 12 13  1  0
 13 14  1  0
 14 15  2  0
 15 16  1  0
 16 17  2  0
 16 18  1  0
 18 19  1  0
 19 20  1  0
 20 21  1  0
 21 22  1  0
 22 23  2  0
 22 24  1  0
 24 25  1  0
 25 26  2  0
 15 27  1  0
 27 28  1  0
  5 29  1  0
 29 30  2  0
 30  3  1  0
 28  9  1  0
 28 13  2  0
 25 19  1  0
  1 31  1  0
  1 32  1  0
  1 33  1  0
  2 34  1  0
  2 35  1  0
  4 36  1  0
 10 37  1  0
 11 38  1  0
 12 39  1  0
 18 40  1  0
 19 41  1  1
 20 42  1  0
 20 43  1  0
 21 44  1  0
 21 45  1  0
 24 46  1  0
 27 47  1  0
 29 48  1  0
M  END
>  <meeko>  (255) 
{"is_sidechain": [true], "free_energy": -11.04, "intermolecular_energy": 0.0, "internal_energy": -11.04, "cluster_size": 13, "cluster_id": 1, "rank_in_cluster": 1}

>  <_RMSD_MCS_to_ref>  (255) 
0.7259181159821749

$$$$
ligand
     RDKit          3D

 53 57  0  0  0  0  0  0  0  0999 V2000
   18.7970   18.8170    7.7190 C   0  0  0  0  0  0  0  0  0  0  0  0
   18.5280   17.3290    7.8810 C   0  0  0  0  0  0  0  0  0  0  0  0
   19.7180   16.5020    7.5440 C   0  0  0  0  0  0  0  0  0  0  0  0
   20.8580   16.2760    8.2890 C   0  0  0  0  0  0  0  0  0  0  0  0
   21.6000   15.4280    7.5180 N   0  0  0  0  0  0  0  0  0  0  0  0
   23.1920   14.9920    7.8160 S   0  0  0  0  0  6  0  0  0  0  0  0
   23.7600   16.0090    8.6740 O   0  0  0  0  0  0  0  0  0  0  0  0
   23.7600   14.6330    6.5320 O   0  0  0  0  0  0  0  0  0  0  0  0
   23.2260   13.5070    8.7410 C   0  0  0  0  0  0  0  0  0  0  0  0
   23.1170   12.3080    8.0900 N   0  0  0  0  0  0  0  0  0  0  0  0
   23.1040   11.2410    8.9070 N   0  0  0  0  0  0  0  0  0  0  0  0
   23.2500   11.7740   10.1230 C   0  0  0  0  0  0  0  0  0  0  0  0
   23.3330   13.1790   10.0800 C   0  0  0  0  0  0  0  0  0  0  0  0
   23.4720   14.1440   11.1420 C   0  0  0  0  0  0  0  0  0  0  0  0
   22.3220   14.6080   11.8170 C   0  0  0  0  0  0  0  0  0  0  0  0
   22.4360   15.5040   12.8820 C   0  0  0  0  0  0  0  0  0  0  0  0
   23.7100   15.8970   13.2470 C   0  0  0  0  0  0  0  0  0  0  0  0
   24.8550   15.4500   12.5910 C   0  0  0  0  0  0  0  0  0  0  0  0
   24.7520   14.5780   11.5190 C   0  0  0  0  0  0  0  0  0  0  0  0
   26.0670   16.0400   13.2270 C   0  0  0  0  0  0  0  0  0  0  0  0
   25.5110   16.7870   14.3460 N   0  0  0  0  0  0  0  0  0  0  0  0
   26.3350   17.6970   15.1330 C   0  0  2  0  0  0  0  0  0  0  0  0
   25.9520   17.7520   16.6120 C   0  0  0  0  0  0  0  0  0  0  0  0
   26.9090   18.6810   17.3440 C   0  0  0  0  0  0  0  0  0  0  0  0
   26.9140   20.0600   16.7260 C   0  0  0  0  0  0  0  0  0  0  0  0
   27.2610   21.0570   17.3540 O   0  0  0  0  0  0  0  0  0  0  0  0
   26.5930   20.1400   15.3940 N   0  0  0  0  0  0  0  0  0  0  0  0
   26.3380   19.1070   14.5230 C   0  0  0  0  0  0  0  0  0  0  0  0
   26.2320   19.3240   13.3170 O   0  0  0  0  0  0  0  0  0  0  0  0
   24.1250   16.7990   14.3270 C   0  0  0  0  0  0  0  0  0  0  0  0
   23.3610   17.4280   15.0310 O   0  0  0  0  0  0  0  0  0  0  0  0
   20.9460   15.1980    6.3520 C   0  0  0  0  0  0  0  0  0  0  0  0
   19.7930   15.8370    6.3360 N   0  0  0  0  0  0  0  0  0  0  0  0
   18.8815   19.2845    8.7111 H   0  0  0  0  0  0  0  0  0  0  0  0
   19.7359   18.9616    7.1643 H   0  0  0  0  0  0  0  0  0  0  0  0
   17.9682   19.2812    7.1643 H   0  0  0  0  0  0  0  0  0  0  0  0
   18.2442   17.1321    8.9254 H   0  0  0  0  0  0  0  0  0  0  0  0
   17.7194   17.0549    7.1875 H   0  0  0  0  0  0  0  0  0  0  0  0
   21.1109   16.6856    9.2781 H   0  0  0  0  0  0  0  0  0  0  0  0
   23.0508   12.2304    7.0651 H   0  0  0  0  0  0  0  0  0  0  0  0
   23.2996   11.1841   11.0501 H   0  0  0  0  0  0  0  0  0  0  0  0
   21.3273   14.2606   11.5011 H   0  0  0  0  0  0  0  0  0  0  0  0
   21.5476   15.8819   13.4093 H   0  0  0  0  0  0  0  0  0  0  0  0
   25.6475   14.2360   10.9794 H   0  0  0  0  0  0  0  0  0  0  0  0
   26.7534   15.2547   13.5765 H   0  0  0  0  0  0  0  0  0  0  0  0
   26.6613   16.6609   12.5405 H   0  0  0  0  0  0  0  0  0  0  0  0
   27.3538   17.2841   15.0946 H   0  0  0  0  0  0  0  0  0  0  0  0
   24.9240   18.1304   16.7117 H   0  0  0  0  0  0  0  0  0  0  0  0
   26.0124   16.7433   17.0465 H   0  0  0  0  0  0  0  0  0  0  0  0
   26.5972   18.7606   18.3959 H   0  0  0  0  0  0  0  0  0  0  0  0
   27.9239   18.2632   17.2702 H   0  0  0  0  0  0  0  0  0  0  0  0
   26.5362   21.0894   14.9987 H   0  0  0  0  0  0  0  0  0  0  0  0
   21.3246   14.5668    5.5345 H   0  0  0  0  0  0  0  0  0  0  0  0
  1  2  1  0
  2  3  1  0
  3  4  2  0
  4  5  1  0
  5  6  1  0
  6  7  2  0
  6  8  2  0
  6  9  1  0
  9 10  1  0
 10 11  1  0
 11 12  2  0
 12 13  1  0
 13 14  1  0
 14 15  2  0
 15 16  1  0
 16 17  2  0
 17 18  1  0
 18 19  2  0
 18 20  1  0
 20 21  1  0
 21 22  1  0
 22 23  1  0
 23 24  1  0
 24 25  1  0
 25 26  2  0
 25 27  1  0
 27 28  1  0
 28 29  2  0
 21 30  1  0
 30 31  2  0
  5 32  1  0
 32 33  2  0
 33  3  1  0
 13  9  2  0
 19 14  1  0
 28 22  1  0
 30 17  1  0
  1 34  1  0
  1 35  1  0
  1 36  1  0
  2 37  1  0
  2 38  1  0
  4 39  1  0
 10 40  1  0
 12 41  1  0
 15 42  1  0
 16 43  1  0
 19 44  1  0
 20 45  1  0
 20 46  1  0
 22 47  1  1
 23 48  1  0
 23 49  1  0
 24 50  1  0
 24 51  1  0
 27 52  1  0
 32 53  1  0
M  END
>  <meeko>  (256) 
{"is_sidechain": [true], "free_energy": -11.04, "intermolecular_energy": 0.0, "internal_energy": -11.04, "cluster_size": 20, "cluster_id": 1, "rank_in_cluster": 1}

>  <_RMSD_MCS_to_ref>  (256) 
1.1575624773155395

$$$$
ligand
     RDKit          3D

 47 50  0  0  0  0  0  0  0  0999 V2000
   18.9090   19.1540    7.5370 C   0  0  0  0  0  0  0  0  0  0  0  0
   18.7730   17.6460    7.6780 C   0  0  0  0  0  0  0  0  0  0  0  0
   20.0930   16.9600    7.6770 C   0  0  0  0  0  0  0  0  0  0  0  0
   20.9550   16.7340    8.7320 C   0  0  0  0  0  0  0  0  0  0  0  0
   22.0030   16.0620    8.1710 N   0  0  0  0  0  0  0  0  0  0  0  0
   23.4590   15.7120    8.9210 S   0  0  0  0  0  6  0  0  0  0  0  0
   23.7930   14.3480    8.5640 O   0  0  0  0  0  0  0  0  0  0  0  0
   24.3430   16.8290    8.6490 O   0  0  0  0  0  0  0  0  0  0  0  0
   23.2050   15.7090   10.6560 C   0  0  0  0  0  0  0  0  0  0  0  0
   23.9190   16.3950   11.5390 N   0  0  0  0  0  0  0  0  0  0  0  0
   23.3750   16.1000   12.7810 C   0  0  0  0  0  0  0  0  0  0  0  0
   23.8800   16.6710   14.0280 C   0  0  0  0  0  0  0  0  0  0  0  0
   23.7700   16.1180   15.1150 O   0  0  0  0  0  0  0  0  0  0  0  0
   24.4740   17.8960   13.8510 N   0  0  0  0  0  0  0  0  0  0  0  0
   24.9060   18.7220   14.9630 C   0  0  1  0  0  0  0  0  0  0  0  0
   25.9240   18.0040   15.8410 C   0  0  0  0  0  0  0  0  0  0  0  0
   26.3620   18.9260   16.9690 C   0  0  0  0  0  0  0  0  0  0  0  0
   26.9040   20.2300   16.4340 C   0  0  0  0  0  0  0  0  0  0  0  0
   27.7950   20.8540   17.0020 O   0  0  0  0  0  0  0  0  0  0  0  0
   26.3230   20.7130   15.2890 N   0  0  0  0  0  0  0  0  0  0  0  0
   25.5290   20.0090   14.4160 C   0  0  0  0  0  0  0  0  0  0  0  0
   25.3260   20.4200   13.2730 O   0  0  0  0  0  0  0  0  0  0  0  0
   22.3260   15.2250   12.6240 C   0  0  0  0  0  0  0  0  0  0  0  0
   21.4060   14.5820   13.5170 C   0  0  0  0  0  0  0  0  0  0  0  0
   20.4790   13.7770   13.0710 N   0  0  0  0  0  0  0  0  0  0  0  0
   20.4060   13.5610   11.7080 C   0  0  0  0  0  0  0  0  0  0  0  0
   21.2320   14.1270   10.8110 C   0  0  0  0  0  0  0  0  0  0  0  0
   22.2190   14.9810   11.2750 N   0  0  0  0  0  0  0  0  0  0  0  0
   21.7940   15.9480    6.8340 C   0  0  0  0  0  0  0  0  0  0  0  0
   20.6270   16.4620    6.5040 N   0  0  0  0  0  0  0  0  0  0  0  0
   18.9504   19.6134    8.5356 H   0  0  0  0  0  0  0  0  0  0  0  0
   19.8320   19.3891    6.9867 H   0  0  0  0  0  0  0  0  0  0  0  0
   18.0430   19.5504    6.9867 H   0  0  0  0  0  0  0  0  0  0  0  0
   18.2590   17.4237    8.6248 H   0  0  0  0  0  0  0  0  0  0  0  0
   18.1999   17.2765    6.8148 H   0  0  0  0  0  0  0  0  0  0  0  0
   20.8267   17.0282    9.7841 H   0  0  0  0  0  0  0  0  0  0  0  0
   24.6186   18.2421   12.8917 H   0  0  0  0  0  0  0  0  0  0  0  0
   24.0260   18.9481   15.5830 H   0  0  0  0  0  0  0  0  0  0  0  0
   25.4676   17.0974   16.2650 H   0  0  0  0  0  0  0  0  0  0  0  0
   26.7987   17.7256   15.2349 H   0  0  0  0  0  0  0  0  0  0  0  0
   25.4975   19.1360   17.6160 H   0  0  0  0  0  0  0  0  0  0  0  0
   27.1605   18.4251   17.5360 H   0  0  0  0  0  0  0  0  0  0  0  0
   26.4995   21.7018   15.0610 H   0  0  0  0  0  0  0  0  0  0  0  0
   21.4825   14.7704   14.5980 H   0  0  0  0  0  0  0  0  0  0  0  0
   19.6237   12.8841   11.3339 H   0  0  0  0  0  0  0  0  0  0  0  0
   21.1268   13.9174    9.7363 H   0  0  0  0  0  0  0  0  0  0  0  0
   22.5004   15.4905    6.1257 H   0  0  0  0  0  0  0  0  0  0  0  0
  1  2  1  0
  2  3  1  0
  3  4  2  0
  4  5  1  0
  5  6  1  0
  6  7  2  0
  6  8  2  0
  6  9  1  0
  9 10  2  0
 10 11  1  0
 11 12  1  0
 12 13  2  0
 12 14  1  0
 14 15  1  0
 15 16  1  0
 16 17  1  0
 17 18  1  0
 18 19  2  0
 18 20  1  0
 20 21  1  0
 21 22  2  0
 11 23  2  0
 23 24  1  0
 24 25  2  0
 25 26  1  0
 26 27  2  0
 27 28  1  0
  5 29  1  0
 29 30  2  0
 30  3  1  0
 28  9  1  0
 21 15  1  0
 28 23  1  0
  1 31  1  0
  1 32  1  0
  1 33  1  0
  2 34  1  0
  2 35  1  0
  4 36  1  0
 14 37  1  0
 15 38  1  1
 16 39  1  0
 16 40  1  0
 17 41  1  0
 17 42  1  0
 20 43  1  0
 24 44  1  0
 26 45  1  0
 27 46  1  0
 29 47  1  0
M  END
>  <meeko>  (257) 
{"is_sidechain": [true], "free_energy": -11.04, "intermolecular_energy": 0.0, "internal_energy": -11.04, "cluster_size": 20, "cluster_id": 1, "rank_in_cluster": 1}

>  <_RMSD_MCS_to_ref>  (257) 
0.4821166295041533

$$$$
ligand
     RDKit          3D

 45 48  0  0  0  0  0  0  0  0999 V2000
   18.9090   19.1540    7.5370 C   0  0  0  0  0  0  0  0  0  0  0  0
   18.7730   17.6460    7.6780 C   0  0  0  0  0  0  0  0  0  0  0  0
   20.0560   16.9400    7.4150 C   0  0  0  0  0  0  0  0  0  0  0  0
   20.9410   16.3790    8.3160 C   0  0  0  0  0  0  0  0  0  0  0  0
   21.9490   15.8890    7.5360 N   0  0  0  0  0  0  0  0  0  0  0  0
   23.1590   14.8280    8.0500 S   0  0  0  0  0  6  0  0  0  0  0  0
   22.4340   13.6580    8.5100 O   0  0  0  0  0  0  0  0  0  0  0  0
   24.0610   14.7410    6.9160 O   0  0  0  0  0  0  0  0  0  0  0  0
   23.9450   15.5870    9.3570 C   0  0  0  0  0  0  0  0  0  0  0  0
   25.1630   16.1430    9.2450 C   0  0  0  0  0  0  0  0  0  0  0  0
   25.7410   16.8140   10.7760 S   0  0  0  0  0  0  0  0  0  0  0  0
   24.2620   16.2990   11.5310 C   0  0  0  0  0  0  0  0  0  0  0  0
   23.6240   16.2890   12.7410 C   0  0  0  0  0  0  0  0  0  0  0  0
   24.0890   16.8140   14.0200 C   0  0  0  0  0  0  0  0  0  0  0  0
   23.9900   16.2150   15.0850 O   0  0  0  0  0  0  0  0  0  0  0  0
   24.6420   18.0680   13.9090 N   0  0  0  0  0  0  0  0  0  0  0  0
   25.0290   18.8510   15.0670 C   0  0  1  0  0  0  0  0  0  0  0  0
   25.9960   18.0930   15.9710 C   0  0  0  0  0  0  0  0  0  0  0  0
   26.3810   18.9690   17.1520 C   0  0  0  0  0  0  0  0  0  0  0  0
   26.9600   20.2870   16.6920 C   0  0  0  0  0  0  0  0  0  0  0  0
   27.8320   20.8770   17.3210 O   0  0  0  0  0  0  0  0  0  0  0  0
   26.4350   20.8190   15.5420 N   0  0  0  0  0  0  0  0  0  0  0  0
   25.6940   20.1500   14.5990 C   0  0  0  0  0  0  0  0  0  0  0  0
   25.5670   20.5990   13.4610 O   0  0  0  0  0  0  0  0  0  0  0  0
   22.3820   15.6610   12.5780 N   0  0  0  0  0  0  0  0  0  0  0  0
   22.3060   15.3270   11.3030 C   0  0  0  0  0  0  0  0  0  0  0  0
   23.4390   15.6830   10.6310 N   0  0  0  0  0  0  0  0  0  0  0  0
   21.6430   16.1000    6.2290 C   0  0  0  0  0  0  0  0  0  0  0  0
   20.5020   16.7470    6.1230 N   0  0  0  0  0  0  0  0  0  0  0  0
   18.9504   19.6134    8.5356 H   0  0  0  0  0  0  0  0  0  0  0  0
   19.8320   19.3891    6.9867 H   0  0  0  0  0  0  0  0  0  0  0  0
   18.0430   19.5504    6.9867 H   0  0  0  0  0  0  0  0  0  0  0  0
   18.4441   17.4140    8.7017 H   0  0  0  0  0  0  0  0  0  0  0  0
   18.0390   17.3017    6.9346 H   0  0  0  0  0  0  0  0  0  0  0  0
   20.8534   16.3368    9.4117 H   0  0  0  0  0  0  0  0  0  0  0  0
   25.7362   16.1771    8.3068 H   0  0  0  0  0  0  0  0  0  0  0  0
   24.7866   18.4656   12.9699 H   0  0  0  0  0  0  0  0  0  0  0  0
   24.1195   19.0657   15.6473 H   0  0  0  0  0  0  0  0  0  0  0  0
   25.5120   17.1758   16.3377 H   0  0  0  0  0  0  0  0  0  0  0  0
   26.8992   17.8295   15.4012 H   0  0  0  0  0  0  0  0  0  0  0  0
   25.4857   19.1638   17.7606 H   0  0  0  0  0  0  0  0  0  0  0  0
   27.1449   18.4410   17.7416 H   0  0  0  0  0  0  0  0  0  0  0  0
   26.6141   21.8184   15.3686 H   0  0  0  0  0  0  0  0  0  0  0  0
   21.4415   14.8267   10.8422 H   0  0  0  0  0  0  0  0  0  0  0  0
   22.2618   15.7757    5.3793 H   0  0  0  0  0  0  0  0  0  0  0  0
  1  2  1  0
  2  3  1  0
  3  4  2  0
  4  5  1  0
  5  6  1  0
  6  7  2  0
  6  8  2  0
  6  9  1  0
  9 10  2  0
 10 11  1  0
 11 12  1  0
 12 13  2  0
 13 14  1  0
 14 15  2  0
 14 16  1  0
 16 17  1  0
 17 18  1  0
 18 19  1  0
 19 20  1  0
 20 21  2  0
 20 22  1  0
 22 23  1  0
 23 24  2  0
 13 25  1  0
 25 26  2  0
 26 27  1  0
  5 28  1  0
 28 29  2  0
 29  3  1  0
 27  9  1  0
 27 12  1  0
 23 17  1  0
  1 30  1  0
  1 31  1  0
  1 32  1  0
  2 33  1  0
  2 34  1  0
  4 35  1  0
 10 36  1  0
 16 37  1  0
 17 38  1  1
 18 39  1  0
 18 40  1  0
 19 41  1  0
 19 42  1  0
 22 43  1  0
 26 44  1  0
 28 45  1  0
M  END
>  <meeko>  (258) 
{"is_sidechain": [true], "free_energy": -11.04, "intermolecular_energy": 0.0, "internal_energy": -11.04, "cluster_size": 14, "cluster_id": 1, "rank_in_cluster": 1}

>  <_RMSD_MCS_to_ref>  (258) 
0.6573664629920413

$$$$
ligand
     RDKit          3D

 56 60  0  0  0  0  0  0  0  0999 V2000
   18.9090   19.1540    7.5370 C   0  0  0  0  0  0  0  0  0  0  0  0
   18.7730   17.6460    7.6780 C   0  0  0  0  0  0  0  0  0  0  0  0
   19.8000   16.9140    6.8890 C   0  0  0  0  0  0  0  0  0  0  0  0
   20.0620   15.5580    6.8500 C   0  0  0  0  0  0  0  0  0  0  0  0
   21.0890   15.4400    5.9580 N   0  0  0  0  0  0  0  0  0  0  0  0
   21.9850   14.0470    5.6730 S   0  0  0  0  0  6  0  0  0  0  0  0
   22.5110   14.1750    4.3290 O   0  0  0  0  0  0  0  0  0  0  0  0
   21.1250   12.9500    6.0740 O   0  0  0  0  0  0  0  0  0  0  0  0
   23.3300   14.1780    6.8190 C   0  0  0  0  0  0  0  0  0  0  0  0
   24.6000   13.7330    6.4520 C   0  0  0  0  0  0  0  0  0  0  0  0
   25.6440   13.8310    7.3680 C   0  0  0  0  0  0  0  0  0  0  0  0
   25.4160   14.3720    8.6370 C   0  0  0  0  0  0  0  0  0  0  0  0
   24.1440   14.8360    9.0160 C   0  0  0  0  0  0  0  0  0  0  0  0
   23.9110   15.4070   10.3530 C   0  0  0  0  0  0  0  0  0  0  0  0
   22.8370   14.9490   11.1600 C   0  0  0  0  0  0  0  0  0  0  0  0
   22.5890   15.4700   12.4390 C   0  0  0  0  0  0  0  0  0  0  0  0
   23.4270   16.4610   12.9090 C   0  0  0  0  0  0  0  0  0  0  0  0
   24.4830   16.9140   12.1210 C   0  0  0  0  0  0  0  0  0  0  0  0
   24.7490   16.4150   10.8590 C   0  0  0  0  0  0  0  0  0  0  0  0
   25.1990   17.9510   12.8700 C   0  0  0  0  0  0  0  0  0  0  0  0
   26.2070   18.5160   12.4940 O   0  0  0  0  0  0  0  0  0  0  0  0
   24.5050   18.1410   14.0560 N   0  0  0  0  0  0  0  0  0  0  0  0
   25.0640   18.9140   15.1590 C   0  0  1  0  0  0  0  0  0  0  0  0
   26.1580   18.1570   15.9060 C   0  0  0  0  0  0  0  0  0  0  0  0
   26.6260   18.9880   17.0920 C   0  0  0  0  0  0  0  0  0  0  0  0
   27.0860   20.3580   16.6510 C   0  0  0  0  0  0  0  0  0  0  0  0
   28.0270   20.9380   17.1840 O   0  0  0  0  0  0  0  0  0  0  0  0
   26.3850   20.9400   15.6260 N   0  0  0  0  0  0  0  0  0  0  0  0
   25.6220   20.2700   14.6950 C   0  0  0  0  0  0  0  0  0  0  0  0
   25.4360   20.7560   13.5820 O   0  0  0  0  0  0  0  0  0  0  0  0
   23.4220   17.1790   14.2170 C   0  0  0  0  0  0  0  0  0  0  0  0
   23.1000   14.7380    8.0820 C   0  0  0  0  0  0  0  0  0  0  0  0
   21.4420   16.6760    5.5200 C   0  0  0  0  0  0  0  0  0  0  0  0
   20.6730   17.5970    6.0640 N   0  0  0  0  0  0  0  0  0  0  0  0
   18.9504   19.6134    8.5356 H   0  0  0  0  0  0  0  0  0  0  0  0
   19.8320   19.3891    6.9867 H   0  0  0  0  0  0  0  0  0  0  0  0
   18.0430   19.5504    6.9867 H   0  0  0  0  0  0  0  0  0  0  0  0
   18.8836   17.3778    8.7391 H   0  0  0  0  0  0  0  0  0  0  0  0
   17.7831   17.3584    7.2940 H   0  0  0  0  0  0  0  0  0  0  0  0
   19.5581   14.7563    7.4099 H   0  0  0  0  0  0  0  0  0  0  0  0
   24.7745   13.3100    5.4517 H   0  0  0  0  0  0  0  0  0  0  0  0
   26.6502   13.4821    7.0928 H   0  0  0  0  0  0  0  0  0  0  0  0
   26.2485   14.4359    9.3532 H   0  0  0  0  0  0  0  0  0  0  0  0
   22.1775   14.1598   10.7700 H   0  0  0  0  0  0  0  0  0  0  0  0
   21.7518   15.0998   13.0489 H   0  0  0  0  0  0  0  0  0  0  0  0
   25.5939   16.7969   10.2672 H   0  0  0  0  0  0  0  0  0  0  0  0
   24.2226   19.0886   15.8457 H   0  0  0  0  0  0  0  0  0  0  0  0
   25.7604   17.1962   16.2648 H   0  0  0  0  0  0  0  0  0  0  0  0
   27.0052   17.9716   15.2293 H   0  0  0  0  0  0  0  0  0  0  0  0
   25.7936   19.1003   17.8023 H   0  0  0  0  0  0  0  0  0  0  0  0
   27.4735   18.4718   17.5666 H   0  0  0  0  0  0  0  0  0  0  0  0
   26.4331   21.9657   15.5454 H   0  0  0  0  0  0  0  0  0  0  0  0
   23.6243   16.4890   15.0495 H   0  0  0  0  0  0  0  0  0  0  0  0
   22.4548   17.6452   14.4564 H   0  0  0  0  0  0  0  0  0  0  0  0
   22.0959   15.1031    8.3438 H   0  0  0  0  0  0  0  0  0  0  0  0
   22.2568   16.8798    4.8097 H   0  0  0  0  0  0  0  0  0  0  0  0
  1  2  1  0
  2  3  1  0
  3  4  2  0
  4  5  1  0
  5  6  1  0
  6  7  2  0
  6  8  2  0
  6  9  1  0
  9 10  2  0
 10 11  1  0
 11 12  2  0
 12 13  1  0
 13 14  1  0
 14 15  2  0
 15 16  1  0
 16 17  2  0
 17 18  1  0
 18 19  2  0
 18 20  1  0
 20 21  2  0
 20 22  1  0
 22 23  1  0
 23 24  1  0
 24 25  1  0
 25 26  1  0
 26 27  2  0
 26 28  1  0
 28 29  1  0
 29 30  2  0
 22 31  1  0
 13 32  2  0
  5 33  1  0
 33 34  2  0
 34  3  1  0
 32  9  1  0
 19 14  1  0
 29 23  1  0
 31 17  1  0
  1 35  1  0
  1 36  1  0
  1 37  1  0
  2 38  1  0
  2 39  1  0
  4 40  1  0
 10 41  1  0
 11 42  1  0
 12 43  1  0
 15 44  1  0
 16 45  1  0
 19 46  1  0
 23 47  1  1
 24 48  1  0
 24 49  1  0
 25 50  1  0
 25 51  1  0
 28 52  1  0
 31 53  1  0
 31 54  1  0
 32 55  1  0
 33 56  1  0
M  END
>  <meeko>  (259) 
{"is_sidechain": [true], "free_energy": -11.04, "intermolecular_energy": 0.0, "internal_energy": -11.04, "cluster_size": 17, "cluster_id": 1, "rank_in_cluster": 1}

>  <_RMSD_MCS_to_ref>  (259) 
1.9482903474014797

$$$$
ligand
     RDKit          3D

 52 56  0  0  0  0  0  0  0  0999 V2000
   18.8250   19.0180    7.5350 C   0  0  0  0  0  0  0  0  0  0  0  0
   18.5200   17.5410    7.7330 C   0  0  0  0  0  0  0  0  0  0  0  0
   19.7130   16.7790    8.1930 C   0  0  0  0  0  0  0  0  0  0  0  0
   20.0840   16.4360    9.4790 C   0  0  0  0  0  0  0  0  0  0  0  0
   21.2380   15.7240    9.3100 N   0  0  0  0  0  0  0  0  0  0  0  0
   22.2070   15.1160   10.5520 S   0  0  0  0  0  6  0  0  0  0  0  0
   23.0310   14.0960    9.9290 O   0  0  0  0  0  0  0  0  0  0  0  0
   22.8250   16.3290   11.0590 O   0  0  0  0  0  0  0  0  0  0  0  0
   21.2350   14.3780   11.7950 C   0  0  0  0  0  0  0  0  0  0  0  0
   21.4300   14.6360   13.1190 C   0  0  0  0  0  0  0  0  0  0  0  0
   22.4490   15.5590   13.6600 C   0  0  0  0  0  0  0  0  0  0  0  0
   23.8110   15.2710   13.5640 C   0  0  0  0  0  0  0  0  0  0  0  0
   24.7610   16.1540   14.0960 C   0  0  0  0  0  0  0  0  0  0  0  0
   24.3780   17.3560   14.7120 C   0  0  0  0  0  0  0  0  0  0  0  0
   25.3470   18.2380   15.2950 N   0  0  0  0  0  0  0  0  0  0  0  0
   26.2290   17.7440   16.3490 C   0  0  0  0  0  0  0  0  0  0  0  0
   26.4440   18.8030   17.4100 C   0  0  0  0  0  0  0  0  0  0  0  0
   26.9300   20.0600   16.7590 C   0  0  0  0  0  0  0  0  0  0  0  0
   27.5710   20.9140   17.3660 O   0  0  0  0  0  0  0  0  0  0  0  0
   26.5440   20.2450   15.4610 N   0  0  0  0  0  0  0  0  0  0  0  0
   25.5970   19.5140   14.7810 C   0  0  0  0  0  0  0  0  0  0  0  0
   25.0720   20.0230   13.7940 O   0  0  0  0  0  0  0  0  0  0  0  0
   23.0090   17.6500   14.7570 C   0  0  0  0  0  0  0  0  0  0  0  0
   22.0550   16.7700   14.2350 C   0  0  0  0  0  0  0  0  0  0  0  0
   20.5490   13.9550   14.0850 C   0  0  0  0  0  0  0  0  0  0  0  0
   19.5660   13.1240   13.7100 C   0  0  0  0  0  0  0  0  0  0  0  0
   19.3430   12.8950   12.3340 C   0  0  0  0  0  0  0  0  0  0  0  0
   18.4520   12.1610   11.7090 N   0  0  0  0  0  0  0  0  0  0  0  0
   18.6490   12.3230   10.3650 N   0  0  0  0  0  0  0  0  0  0  0  0
   19.6570   13.1500   10.2040 C   0  0  0  0  0  0  0  0  0  0  0  0
   20.1730   13.5350   11.4190 N   0  0  0  0  0  0  0  0  0  0  0  0
   21.5740   15.7190    7.9960 C   0  0  0  0  0  0  0  0  0  0  0  0
   20.6460   16.3220    7.2810 N   0  0  0  0  0  0  0  0  0  0  0  0
   18.9258   19.5062    8.5155 H   0  0  0  0  0  0  0  0  0  0  0  0
   19.7645   19.1263    6.9731 H   0  0  0  0  0  0  0  0  0  0  0  0
   18.0053   19.4896    6.9731 H   0  0  0  0  0  0  0  0  0  0  0  0
   17.7237   17.4411    8.4853 H   0  0  0  0  0  0  0  0  0  0  0  0
   18.2073   17.1270    6.7630 H   0  0  0  0  0  0  0  0  0  0  0  0
   19.5697   16.6796   10.4204 H   0  0  0  0  0  0  0  0  0  0  0  0
   24.1410   14.3462   13.0682 H   0  0  0  0  0  0  0  0  0  0  0  0
   25.8291   15.8997   14.0294 H   0  0  0  0  0  0  0  0  0  0  0  0
   25.7748   16.8559   16.8126 H   0  0  0  0  0  0  0  0  0  0  0  0
   27.2018   17.4881   15.9038 H   0  0  0  0  0  0  0  0  0  0  0  0
   25.4950   19.0010   17.9298 H   0  0  0  0  0  0  0  0  0  0  0  0
   27.1902   18.4512   18.1376 H   0  0  0  0  0  0  0  0  0  0  0  0
   27.0065   21.0048   14.9417 H   0  0  0  0  0  0  0  0  0  0  0  0
   22.6767   18.5942   15.2131 H   0  0  0  0  0  0  0  0  0  0  0  0
   20.9878   17.0331   14.2775 H   0  0  0  0  0  0  0  0  0  0  0  0
   20.7047   14.1363   15.1587 H   0  0  0  0  0  0  0  0  0  0  0  0
   18.9402   12.6261   14.4653 H   0  0  0  0  0  0  0  0  0  0  0  0
   20.0369   13.4887    9.2288 H   0  0  0  0  0  0  0  0  0  0  0  0
   22.4922   15.2741    7.5850 H   0  0  0  0  0  0  0  0  0  0  0  0
  1  2  1  0
  2  3  1  0
  3  4  2  0
  4  5  1  0
  5  6  1  0
  6  7  2  0
  6  8  2  0
  6  9  1  0
  9 10  2  0
 10 11  1  0
 11 12  2  0
 12 13  1  0
 13 14  2  0
 14 15  1  0
 15 16  1  0
 16 17  1  0
 17 18  1  0
 18 19  2  0
 18 20  1  0
 20 21  1  0
 21 22  2  0
 14 23  1  0
 23 24  2  0
 10 25  1  0
 25 26  2  0
 26 27  1  0
 27 28  2  0
 28 29  1  0
 29 30  2  0
 30 31  1  0
  5 32  1  0
 32 33  2  0
 33  3  1  0
 31  9  1  0
 24 11  1  0
 31 27  1  0
 21 15  1  0
  1 34  1  0
  1 35  1  0
  1 36  1  0
  2 37  1  0
  2 38  1  0
  4 39  1  0
 12 40  1  0
 13 41  1  0
 16 42  1  0
 16 43  1  0
 17 44  1  0
 17 45  1  0
 20 46  1  0
 23 47  1  0
 24 48  1  0
 25 49  1  0
 26 50  1  0
 30 51  1  0
 32 52  1  0
M  END
>  <meeko>  (260) 
{"is_sidechain": [true], "free_energy": -11.03, "intermolecular_energy": 0.0, "internal_energy": -11.03, "cluster_size": 19, "cluster_id": 1, "rank_in_cluster": 1}

>  <_RMSD_MCS_to_ref>  (260) 
0.5398143199286224

$$$$
ligand
     RDKit          3D

 49 52  0  0  0  0  0  0  0  0999 V2000
   18.9090   19.1540    7.5370 C   0  0  0  0  0  0  0  0  0  0  0  0
   18.7730   17.6460    7.6780 C   0  0  0  0  0  0  0  0  0  0  0  0
   20.0910   16.9570    7.6440 C   0  0  0  0  0  0  0  0  0  0  0  0
   20.9610   16.6940    8.6840 C   0  0  0  0  0  0  0  0  0  0  0  0
   21.9970   16.0300    8.0940 N   0  0  0  0  0  0  0  0  0  0  0  0
   23.4590   15.6340    8.8230 S   0  0  0  0  0  6  0  0  0  0  0  0
   23.8530   14.3540    8.2690 O   0  0  0  0  0  0  0  0  0  0  0  0
   24.2870   16.8190    8.7040 O   0  0  0  0  0  0  0  0  0  0  0  0
   23.0320   15.4040   10.5290 C   0  0  0  0  0  0  0  0  0  0  0  0
   23.8880   15.8960   11.5130 C   0  0  0  0  0  0  0  0  0  0  0  0
   23.5710   15.7310   12.8720 C   0  0  0  0  0  0  0  0  0  0  0  0
   24.5230   16.2760   13.8680 C   0  0  0  0  0  0  0  0  0  0  0  0
   25.1050   15.5180   14.6350 O   0  0  0  0  0  0  0  0  0  0  0  0
   24.7520   17.6310   13.8280 N   0  0  0  0  0  0  0  0  0  0  0  0
   25.7940   18.2470   14.6370 C   0  0  2  0  0  0  0  0  0  0  0  0
   25.6170   17.9560   16.1240 C   0  0  0  0  0  0  0  0  0  0  0  0
   26.7130   18.6570   16.9120 C   0  0  0  0  0  0  0  0  0  0  0  0
   26.7300   20.1400   16.6270 C   0  0  0  0  0  0  0  0  0  0  0  0
   27.0300   20.9710   17.4780 O   0  0  0  0  0  0  0  0  0  0  0  0
   26.4180   20.5230   15.3470 N   0  0  0  0  0  0  0  0  0  0  0  0
   25.7530   19.7620   14.4190 C   0  0  0  0  0  0  0  0  0  0  0  0
   25.1740   20.2840   13.4660 O   0  0  0  0  0  0  0  0  0  0  0  0
   22.3890   15.0430   13.2370 C   0  0  0  0  0  0  0  0  0  0  0  0
   21.7860   14.6330   14.4650 C   0  0  0  0  0  0  0  0  0  0  0  0
   20.6080   13.9880   14.1720 C   0  0  0  0  0  0  0  0  0  0  0  0
   20.4670   13.9700   12.8120 N   0  0  0  0  0  0  0  0  0  0  0  0
   21.5480   14.5830   12.2160 C   0  0  0  0  0  0  0  0  0  0  0  0
   21.8340   14.7560   10.8540 C   0  0  0  0  0  0  0  0  0  0  0  0
   21.7710   15.9470    6.7580 C   0  0  0  0  0  0  0  0  0  0  0  0
   20.6120   16.4900    6.4520 N   0  0  0  0  0  0  0  0  0  0  0  0
   18.9504   19.6134    8.5356 H   0  0  0  0  0  0  0  0  0  0  0  0
   19.8320   19.3891    6.9867 H   0  0  0  0  0  0  0  0  0  0  0  0
   18.0430   19.5504    6.9867 H   0  0  0  0  0  0  0  0  0  0  0  0
   18.2813   17.4228    8.6363 H   0  0  0  0  0  0  0  0  0  0  0  0
   18.1786   17.2797    6.8280 H   0  0  0  0  0  0  0  0  0  0  0  0
   20.8453   16.9592    9.7453 H   0  0  0  0  0  0  0  0  0  0  0  0
   24.8142   16.4148   11.2249 H   0  0  0  0  0  0  0  0  0  0  0  0
   24.1747   18.2224   13.2132 H   0  0  0  0  0  0  0  0  0  0  0  0
   26.7605   17.8242   14.3255 H   0  0  0  0  0  0  0  0  0  0  0  0
   24.6347   18.3240   16.4552 H   0  0  0  0  0  0  0  0  0  0  0  0
   25.6791   16.8712   16.2952 H   0  0  0  0  0  0  0  0  0  0  0  0
   26.5379   18.5005   17.9866 H   0  0  0  0  0  0  0  0  0  0  0  0
   27.6826   18.2341   16.6104 H   0  0  0  0  0  0  0  0  0  0  0  0
   26.7094   21.4672   15.0564 H   0  0  0  0  0  0  0  0  0  0  0  0
   22.1941   14.8040   15.4721 H   0  0  0  0  0  0  0  0  0  0  0  0
   19.9039   13.5620   14.9019 H   0  0  0  0  0  0  0  0  0  0  0  0
   19.6694   13.5584   12.3067 H   0  0  0  0  0  0  0  0  0  0  0  0
   21.1462   14.3977   10.0739 H   0  0  0  0  0  0  0  0  0  0  0  0
   22.4602   15.4898    6.0327 H   0  0  0  0  0  0  0  0  0  0  0  0
  1  2  1  0
  2  3  1  0
  3  4  2  0
  4  5  1  0
  5  6  1  0
  6  7  2  0
  6  8  2  0
  6  9  1  0
  9 10  2  0
 10 11  1  0
 11 12  1  0
 12 13  2  0
 12 14  1  0
 14 15  1  0
 15 16  1  0
 16 17  1  0
 17 18  1  0
 18 19  2  0
 18 20  1  0
 20 21  1  0
 21 22  2  0
 11 23  2  0
 23 24  1  0
 24 25  2  0
 25 26  1  0
 26 27  1  0
 27 28  2  0
  5 29  1  0
 29 30  2  0
 30  3  1  0
 28  9  1  0
 21 15  1  0
 27 23  1  0
  1 31  1  0
  1 32  1  0
  1 33  1  0
  2 34  1  0
  2 35  1  0
  4 36  1  0
 10 37  1  0
 14 38  1  0
 15 39  1  6
 16 40  1  0
 16 41  1  0
 17 42  1  0
 17 43  1  0
 20 44  1  0
 24 45  1  0
 25 46  1  0
 26 47  1  0
 28 48  1  0
 29 49  1  0
M  END
>  <meeko>  (261) 
{"is_sidechain": [true], "free_energy": -11.03, "intermolecular_energy": 0.0, "internal_energy": -11.03, "cluster_size": 20, "cluster_id": 1, "rank_in_cluster": 1}

>  <_RMSD_MCS_to_ref>  (261) 
0.5894778409745356

$$$$
ligand
     RDKit          3D

 52 55  0  0  0  0  0  0  0  0999 V2000
   18.9090   19.1540    7.5370 C   0  0  0  0  0  0  0  0  0  0  0  0
   18.7730   17.6460    7.6780 C   0  0  0  0  0  0  0  0  0  0  0  0
   20.0890   16.9560    7.6010 C   0  0  0  0  0  0  0  0  0  0  0  0
   21.0550   16.8190    8.5790 C   0  0  0  0  0  0  0  0  0  0  0  0
   22.0420   16.0940    7.9760 N   0  0  0  0  0  0  0  0  0  0  0  0
   23.3890   15.4300    8.7290 S   0  0  0  0  0  6  0  0  0  0  0  0
   23.4780   14.0840    8.1930 O   0  0  0  0  0  0  0  0  0  0  0  0
   24.4500   16.4050    8.5740 O   0  0  0  0  0  0  0  0  0  0  0  0
   23.0130   15.3100   10.4550 C   0  0  0  0  0  0  0  0  0  0  0  0
   23.8700   15.8180   11.4390 C   0  0  0  0  0  0  0  0  0  0  0  0
   23.5290   15.7240   12.8050 C   0  0  0  0  0  0  0  0  0  0  0  0
   24.4890   16.2800   13.7990 C   0  0  0  0  0  0  0  0  0  0  0  0
   25.0290   15.5400   14.6120 O   0  0  0  0  0  0  0  0  0  0  0  0
   24.7510   17.6300   13.7220 N   0  0  0  0  0  0  0  0  0  0  0  0
   25.7960   18.2380   14.5370 C   0  0  2  0  0  0  0  0  0  0  0  0
   25.6150   17.9470   16.0230 C   0  0  0  0  0  0  0  0  0  0  0  0
   26.7100   18.6470   16.8120 C   0  0  0  0  0  0  0  0  0  0  0  0
   26.7300   20.1300   16.5270 C   0  0  0  0  0  0  0  0  0  0  0  0
   27.0270   20.9610   17.3810 O   0  0  0  0  0  0  0  0  0  0  0  0
   26.4230   20.5140   15.2470 N   0  0  0  0  0  0  0  0  0  0  0  0
   25.7580   19.7540   14.3180 C   0  0  0  0  0  0  0  0  0  0  0  0
   25.1780   20.2740   13.3640 O   0  0  0  0  0  0  0  0  0  0  0  0
   22.3350   15.1030   13.1970 C   0  0  0  0  0  0  0  0  0  0  0  0
   21.5060   14.5870   12.2120 C   0  0  0  0  0  0  0  0  0  0  0  0
   21.8360   14.6840   10.8530 C   0  0  0  0  0  0  0  0  0  0  0  0
   20.7520   14.0730   10.0140 C   0  0  0  0  0  0  0  0  0  0  0  0
   20.0140   13.2110   11.0460 C   0  0  0  0  0  0  0  0  0  0  0  0
   20.1830   13.9100   12.3990 C   0  0  0  0  0  0  0  0  0  0  0  0
   21.6680   15.8050    6.7030 C   0  0  0  0  0  0  0  0  0  0  0  0
   20.4830   16.3170    6.4420 N   0  0  0  0  0  0  0  0  0  0  0  0
   18.9504   19.6134    8.5356 H   0  0  0  0  0  0  0  0  0  0  0  0
   19.8320   19.3891    6.9867 H   0  0  0  0  0  0  0  0  0  0  0  0
   18.0430   19.5504    6.9867 H   0  0  0  0  0  0  0  0  0  0  0  0
   18.3108   17.4209    8.6505 H   0  0  0  0  0  0  0  0  0  0  0  0
   18.1508   17.2827    6.8468 H   0  0  0  0  0  0  0  0  0  0  0  0
   21.0337   17.2058    9.6085 H   0  0  0  0  0  0  0  0  0  0  0  0
   24.8169   16.2943   11.1447 H   0  0  0  0  0  0  0  0  0  0  0  0
   24.2011   18.2182   13.0798 H   0  0  0  0  0  0  0  0  0  0  0  0
   26.7618   17.8095   14.2310 H   0  0  0  0  0  0  0  0  0  0  0  0
   24.6324   18.3160   16.3522 H   0  0  0  0  0  0  0  0  0  0  0  0
   25.6748   16.8621   16.1948 H   0  0  0  0  0  0  0  0  0  0  0  0
   26.5329   18.4911   17.8864 H   0  0  0  0  0  0  0  0  0  0  0  0
   27.6794   18.2228   16.5115 H   0  0  0  0  0  0  0  0  0  0  0  0
   26.7179   21.4573   14.9569 H   0  0  0  0  0  0  0  0  0  0  0  0
   22.0622   15.0268   14.2599 H   0  0  0  0  0  0  0  0  0  0  0  0
   20.0918   14.8428    9.5880 H   0  0  0  0  0  0  0  0  0  0  0  0
   21.1220   13.5113    9.1436 H   0  0  0  0  0  0  0  0  0  0  0  0
   18.9475   13.1380   10.7868 H   0  0  0  0  0  0  0  0  0  0  0  0
   20.4200   12.1890   11.0733 H   0  0  0  0  0  0  0  0  0  0  0  0
   19.3790   14.6387   12.5797 H   0  0  0  0  0  0  0  0  0  0  0  0
   20.1398   13.2338   13.2656 H   0  0  0  0  0  0  0  0  0  0  0  0
   22.2708   15.2242    5.9893 H   0  0  0  0  0  0  0  0  0  0  0  0
  1  2  1  0
  2  3  1  0
  3  4  2  0
  4  5  1  0
  5  6  1  0
  6  7  2  0
  6  8  2  0
  6  9  1  0
  9 10  2  0
 10 11  1  0
 11 12  1  0
 12 13  2  0
 12 14  1  0
 14 15  1  0
 15 16  1  0
 16 17  1  0
 17 18  1  0
 18 19  2  0
 18 20  1  0
 20 21  1  0
 21 22  2  0
 11 23  2  0
 23 24  1  0
 24 25  2  0
 25 26  1  0
 26 27  1  0
 27 28  1  0
  5 29  1  0
 29 30  2  0
 30  3  1  0
 25  9  1  0
 21 15  1  0
 28 24  1  0
  1 31  1  0
  1 32  1  0
  1 33  1  0
  2 34  1  0
  2 35  1  0
  4 36  1  0
 10 37  1  0
 14 38  1  0
 15 39  1  6
 16 40  1  0
 16 41  1  0
 17 42  1  0
 17 43  1  0
 20 44  1  0
 23 45  1  0
 26 46  1  0
 26 47  1  0
 27 48  1  0
 27 49  1  0
 28 50  1  0
 28 51  1  0
 29 52  1  0
M  END
>  <meeko>  (262) 
{"is_sidechain": [true], "free_energy": -11.03, "intermolecular_energy": 0.0, "internal_energy": -11.03, "cluster_size": 18, "cluster_id": 1, "rank_in_cluster": 1}

>  <_RMSD_MCS_to_ref>  (262) 
0.5445782261938537

$$$$
ligand
     RDKit          3D

 45 48  0  0  0  0  0  0  0  0999 V2000
   18.9090   19.1540    7.5370 C   0  0  0  0  0  0  0  0  0  0  0  0
   18.7730   17.6460    7.6780 C   0  0  0  0  0  0  0  0  0  0  0  0
   20.0940   16.9600    7.6710 C   0  0  0  0  0  0  0  0  0  0  0  0
   20.9620   16.7390    8.7230 C   0  0  0  0  0  0  0  0  0  0  0  0
   22.0070   16.0660    8.1570 N   0  0  0  0  0  0  0  0  0  0  0  0
   23.4650   15.7160    8.9020 S   0  0  0  0  0  6  0  0  0  0  0  0
   24.3520   16.8290    8.6210 O   0  0  0  0  0  0  0  0  0  0  0  0
   23.7950   14.3490    8.5510 O   0  0  0  0  0  0  0  0  0  0  0  0
   23.2250   15.7220   10.6340 C   0  0  0  0  0  0  0  0  0  0  0  0
   23.9470   16.3970   11.5260 N   0  0  0  0  0  0  0  0  0  0  0  0
   23.3920   16.1040   12.7790 C   0  0  0  0  0  0  0  0  0  0  0  0
   23.9030   16.6680   14.0230 C   0  0  0  0  0  0  0  0  0  0  0  0
   23.8160   16.1180   15.1150 O   0  0  0  0  0  0  0  0  0  0  0  0
   24.4890   17.8990   13.8440 N   0  0  0  0  0  0  0  0  0  0  0  0
   24.9200   18.7220   14.9570 C   0  0  1  0  0  0  0  0  0  0  0  0
   25.9380   18.0030   15.8350 C   0  0  0  0  0  0  0  0  0  0  0  0
   26.3740   18.9230   16.9650 C   0  0  0  0  0  0  0  0  0  0  0  0
   26.9160   20.2270   16.4330 C   0  0  0  0  0  0  0  0  0  0  0  0
   27.8080   20.8500   17.0010 O   0  0  0  0  0  0  0  0  0  0  0  0
   26.3360   20.7130   15.2890 N   0  0  0  0  0  0  0  0  0  0  0  0
   25.5460   20.0100   14.4120 C   0  0  0  0  0  0  0  0  0  0  0  0
   25.3470   20.4210   13.2690 O   0  0  0  0  0  0  0  0  0  0  0  0
   22.3410   15.2480   12.5940 C   0  0  0  0  0  0  0  0  0  0  0  0
   21.1190   14.3850   13.4740 S   0  0  0  0  0  0  0  0  0  0  0  0
   20.5140   13.7330   11.9480 C   0  0  0  0  0  0  0  0  0  0  0  0
   21.2130   14.1630   10.8830 C   0  0  0  0  0  0  0  0  0  0  0  0
   22.2350   15.0120   11.2530 N   0  0  0  0  0  0  0  0  0  0  0  0
   21.7910   15.9500    6.8220 C   0  0  0  0  0  0  0  0  0  0  0  0
   20.6220   16.4600    6.4980 N   0  0  0  0  0  0  0  0  0  0  0  0
   18.9504   19.6134    8.5356 H   0  0  0  0  0  0  0  0  0  0  0  0
   19.8320   19.3891    6.9867 H   0  0  0  0  0  0  0  0  0  0  0  0
   18.0430   19.5504    6.9867 H   0  0  0  0  0  0  0  0  0  0  0  0
   18.2631   17.4233    8.6269 H   0  0  0  0  0  0  0  0  0  0  0  0
   18.1958   17.2767    6.8175 H   0  0  0  0  0  0  0  0  0  0  0  0
   20.8395   17.0367    9.7748 H   0  0  0  0  0  0  0  0  0  0  0  0
   24.6266   18.2488   12.8851 H   0  0  0  0  0  0  0  0  0  0  0  0
   24.0390   18.9467   15.5761 H   0  0  0  0  0  0  0  0  0  0  0  0
   25.4819   17.0952   16.2568 H   0  0  0  0  0  0  0  0  0  0  0  0
   26.8136   17.7265   15.2293 H   0  0  0  0  0  0  0  0  0  0  0  0
   25.5086   19.1318   17.6111 H   0  0  0  0  0  0  0  0  0  0  0  0
   27.1717   18.4215   17.5325 H   0  0  0  0  0  0  0  0  0  0  0  0
   26.5100   21.7032   15.0652 H   0  0  0  0  0  0  0  0  0  0  0  0
   19.6564   13.0479   11.8766 H   0  0  0  0  0  0  0  0  0  0  0  0
   20.9964   13.8733    9.8442 H   0  0  0  0  0  0  0  0  0  0  0  0
   22.4947   15.4935    6.1104 H   0  0  0  0  0  0  0  0  0  0  0  0
  1  2  1  0
  2  3  1  0
  3  4  2  0
  4  5  1  0
  5  6  1  0
  6  7  2  0
  6  8  2  0
  6  9  1  0
  9 10  2  0
 10 11  1  0
 11 12  1  0
 12 13  2  0
 12 14  1  0
 14 15  1  0
 15 16  1  0
 16 17  1  0
 17 18  1  0
 18 19  2  0
 18 20  1  0
 20 21  1  0
 21 22  2  0
 11 23  2  0
 23 24  1  0
 24 25  1  0
 25 26  2  0
 26 27  1  0
  5 28  1  0
 28 29  2  0
 29  3  1  0
 27  9  1  0
 21 15  1  0
 27 23  1  0
  1 30  1  0
  1 31  1  0
  1 32  1  0
  2 33  1  0
  2 34  1  0
  4 35  1  0
 14 36  1  0
 15 37  1  1
 16 38  1  0
 16 39  1  0
 17 40  1  0
 17 41  1  0
 20 42  1  0
 25 43  1  0
 26 44  1  0
 28 45  1  0
M  END
>  <meeko>  (263) 
{"is_sidechain": [true], "free_energy": -11.03, "intermolecular_energy": 0.0, "internal_energy": -11.03, "cluster_size": 20, "cluster_id": 1, "rank_in_cluster": 1}

>  <_RMSD_MCS_to_ref>  (263) 
0.4888773988548779

$$$$
ligand
     RDKit          3D

 55 58  0  0  0  0  0  0  0  0999 V2000
   18.9090   19.1540    7.5370 C   0  0  0  0  0  0  0  0  0  0  0  0
   18.7730   17.6460    7.6780 C   0  0  0  0  0  0  0  0  0  0  0  0
   20.0930   16.9610    7.6750 C   0  0  0  0  0  0  0  0  0  0  0  0
   20.9610   16.7410    8.7270 C   0  0  0  0  0  0  0  0  0  0  0  0
   22.0060   16.0660    8.1630 N   0  0  0  0  0  0  0  0  0  0  0  0
   23.4460   15.6490    8.9200 S   0  0  0  0  0  6  0  0  0  0  0  0
   24.2780   16.8290    8.7890 O   0  0  0  0  0  0  0  0  0  0  0  0
   23.8190   14.3620    8.3640 O   0  0  0  0  0  0  0  0  0  0  0  0
   23.1060   15.4010   10.6560 C   0  0  0  0  0  0  0  0  0  0  0  0
   23.9830   15.9170   11.6200 C   0  0  0  0  0  0  0  0  0  0  0  0
   23.7280   15.7250   12.9820 C   0  0  0  0  0  0  0  0  0  0  0  0
   24.6900   16.3010   13.9650 C   0  0  0  0  0  0  0  0  0  0  0  0
   25.2900   15.5670   14.7400 O   0  0  0  0  0  0  0  0  0  0  0  0
   24.8870   17.6630   13.9200 N   0  0  0  0  0  0  0  0  0  0  0  0
   25.9160   18.2990   14.7330 C   0  0  2  0  0  0  0  0  0  0  0  0
   25.7450   18.0040   16.2190 C   0  0  0  0  0  0  0  0  0  0  0  0
   26.8230   18.7310   17.0080 C   0  0  0  0  0  0  0  0  0  0  0  0
   26.8050   20.2150   16.7220 C   0  0  0  0  0  0  0  0  0  0  0  0
   27.0840   21.0540   17.5740 O   0  0  0  0  0  0  0  0  0  0  0  0
   26.4840   20.5910   15.4420 N   0  0  0  0  0  0  0  0  0  0  0  0
   25.8390   19.8130   14.5140 C   0  0  0  0  0  0  0  0  0  0  0  0
   25.2470   20.3160   13.5580 O   0  0  0  0  0  0  0  0  0  0  0  0
   22.6100   14.9880   13.3780 C   0  0  0  0  0  0  0  0  0  0  0  0
   21.7190   14.4650   12.4240 C   0  0  0  0  0  0  0  0  0  0  0  0
   21.9430   14.6920   11.0480 C   0  0  0  0  0  0  0  0  0  0  0  0
   20.9730   14.1310   10.0260 C   0  0  0  0  0  0  0  0  0  0  0  0
   19.6170   13.7260   10.6050 C   0  0  0  0  0  0  0  0  0  0  0  0
   19.8110   12.8870   11.8560 C   0  0  0  0  0  0  0  0  0  0  0  0
   20.5080   13.7120   12.9300 C   0  0  0  0  0  0  0  0  0  0  0  0
   21.7750   15.9150    6.8320 C   0  0  0  0  0  0  0  0  0  0  0  0
   20.6160   16.4470    6.5040 N   0  0  0  0  0  0  0  0  0  0  0  0
   18.9504   19.6134    8.5356 H   0  0  0  0  0  0  0  0  0  0  0  0
   19.8320   19.3891    6.9867 H   0  0  0  0  0  0  0  0  0  0  0  0
   18.0430   19.5504    6.9867 H   0  0  0  0  0  0  0  0  0  0  0  0
   18.2604   17.4234    8.6255 H   0  0  0  0  0  0  0  0  0  0  0  0
   18.1984   17.2763    6.8160 H   0  0  0  0  0  0  0  0  0  0  0  0
   20.8386   17.0408    9.7783 H   0  0  0  0  0  0  0  0  0  0  0  0
   24.8763   16.4757   11.3040 H   0  0  0  0  0  0  0  0  0  0  0  0
   24.2986   18.2408   13.3028 H   0  0  0  0  0  0  0  0  0  0  0  0
   26.8921   17.8959   14.4252 H   0  0  0  0  0  0  0  0  0  0  0  0
   24.7539   18.3482   16.5494 H   0  0  0  0  0  0  0  0  0  0  0  0
   25.8331   16.9210   16.3901 H   0  0  0  0  0  0  0  0  0  0  0  0
   26.6503   18.5709   18.0825 H   0  0  0  0  0  0  0  0  0  0  0  0
   27.8028   18.3310   16.7079 H   0  0  0  0  0  0  0  0  0  0  0  0
   26.7512   21.5425   15.1519 H   0  0  0  0  0  0  0  0  0  0  0  0
   22.4242   14.8146   14.4482 H   0  0  0  0  0  0  0  0  0  0  0  0
   20.8039   14.8966    9.2544 H   0  0  0  0  0  0  0  0  0  0  0  0
   21.4315   13.2152    9.6246 H   0  0  0  0  0  0  0  0  0  0  0  0
   19.0455   14.6308   10.8592 H   0  0  0  0  0  0  0  0  0  0  0  0
   19.0693   13.1341    9.8569 H   0  0  0  0  0  0  0  0  0  0  0  0
   18.8305   12.5562   12.2291 H   0  0  0  0  0  0  0  0  0  0  0  0
   20.4307   12.0114   11.6126 H   0  0  0  0  0  0  0  0  0  0  0  0
   19.7879   14.4405   13.3310 H   0  0  0  0  0  0  0  0  0  0  0  0
   20.8628   13.0087   13.6978 H   0  0  0  0  0  0  0  0  0  0  0  0
   22.4595   15.4186    6.1284 H   0  0  0  0  0  0  0  0  0  0  0  0
  1  2  1  0
  2  3  1  0
  3  4  2  0
  4  5  1  0
  5  6  1  0
  6  7  2  0
  6  8  2  0
  6  9  1  0
  9 10  2  0
 10 11  1  0
 11 12  1  0
 12 13  2  0
 12 14  1  0
 14 15  1  0
 15 16  1  0
 16 17  1  0
 17 18  1  0
 18 19  2  0
 18 20  1  0
 20 21  1  0
 21 22  2  0
 11 23  2  0
 23 24  1  0
 24 25  2  0
 25 26  1  0
 26 27  1  0
 27 28  1  0
 28 29  1  0
  5 30  1  0
 30 31  2  0
 31  3  1  0
 25  9  1  0
 21 15  1  0
 29 24  1  0
  1 32  1  0
  1 33  1  0
  1 34  1  0
  2 35  1  0
  2 36  1  0
  4 37  1  0
 10 38  1  0
 14 39  1  0
 15 40  1  6
 16 41  1  0
 16 42  1  0
 17 43  1  0
 17 44  1  0
 20 45  1  0
 23 46  1  0
 26 47  1  0
 26 48  1  0
 27 49  1  0
 27 50  1  0
 28 51  1  0
 28 52  1  0
 29 53  1  0
 29 54  1  0
 30 55  1  0
M  END
>  <meeko>  (264) 
{"is_sidechain": [true], "free_energy": -11.03, "intermolecular_energy": 0.0, "internal_energy": -11.03, "cluster_size": 19, "cluster_id": 1, "rank_in_cluster": 1}

>  <_RMSD_MCS_to_ref>  (264) 
0.6606635553239892

$$$$
ligand
     RDKit          3D

 47 50  0  0  0  0  0  0  0  0999 V2000
   18.9090   19.1540    7.5370 C   0  0  0  0  0  0  0  0  0  0  0  0
   18.7730   17.6460    7.6780 C   0  0  0  0  0  0  0  0  0  0  0  0
   20.0100   16.9300    7.2640 C   0  0  0  0  0  0  0  0  0  0  0  0
   20.9270   16.2560    8.0450 C   0  0  0  0  0  0  0  0  0  0  0  0
   21.8430   15.7790    7.1520 N   0  0  0  0  0  0  0  0  0  0  0  0
   23.3140   15.0640    7.5370 S   0  0  0  0  0  6  0  0  0  0  0  0
   24.3280   15.8740    6.8900 O   0  0  0  0  0  0  0  0  0  0  0  0
   23.1550   13.6490    7.2620 O   0  0  0  0  0  0  0  0  0  0  0  0
   23.4350   15.2890    9.2990 C   0  0  0  0  0  0  0  0  0  0  0  0
   24.5880   15.9520    9.8160 C   0  0  0  0  0  0  0  0  0  0  0  0
   24.7920   16.1850   11.1900 C   0  0  0  0  0  0  0  0  0  0  0  0
   23.7470   15.7080   11.9970 C   0  0  0  0  0  0  0  0  0  0  0  0
   23.7310   15.8280   13.3770 C   0  0  0  0  0  0  0  0  0  0  0  0
   24.6900   16.4060   14.3020 C   0  0  0  0  0  0  0  0  0  0  0  0
   25.3290   15.7460   15.1200 O   0  0  0  0  0  0  0  0  0  0  0  0
   24.8780   17.7700   14.2250 N   0  0  0  0  0  0  0  0  0  0  0  0
   25.9120   18.4540   14.9880 C   0  0  2  0  0  0  0  0  0  0  0  0
   25.7860   18.2060   16.4870 C   0  0  0  0  0  0  0  0  0  0  0  0
   26.8700   18.9810   17.2220 C   0  0  0  0  0  0  0  0  0  0  0  0
   26.8150   20.4540   16.8850 C   0  0  0  0  0  0  0  0  0  0  0  0
   27.0990   21.3260   17.7000 O   0  0  0  0  0  0  0  0  0  0  0  0
   26.4560   20.7780   15.6020 N   0  0  0  0  0  0  0  0  0  0  0  0
   25.7960   19.9580   14.7220 C   0  0  0  0  0  0  0  0  0  0  0  0
   25.1580   20.4160   13.7740 O   0  0  0  0  0  0  0  0  0  0  0  0
   22.2730   15.1120   13.9200 S   0  0  0  0  0  0  0  0  0  0  0  0
   21.6880   14.6730   12.4460 N   0  0  0  0  0  0  0  0  0  0  0  0
   22.5410   15.0320   11.4840 C   0  0  0  0  0  0  0  0  0  0  0  0
   22.3740   14.8180   10.1000 C   0  0  0  0  0  0  0  0  0  0  0  0
   21.5060   16.1960    5.9050 C   0  0  0  0  0  0  0  0  0  0  0  0
   20.3890   16.8910    5.9360 N   0  0  0  0  0  0  0  0  0  0  0  0
   18.9504   19.6134    8.5356 H   0  0  0  0  0  0  0  0  0  0  0  0
   19.8320   19.3891    6.9867 H   0  0  0  0  0  0  0  0  0  0  0  0
   18.0430   19.5504    6.9867 H   0  0  0  0  0  0  0  0  0  0  0  0
   18.5599   17.4062    8.7302 H   0  0  0  0  0  0  0  0  0  0  0  0
   17.9555   17.3172    7.0196 H   0  0  0  0  0  0  0  0  0  0  0  0
   20.9211   16.1315    9.1379 H   0  0  0  0  0  0  0  0  0  0  0  0
   25.3547   16.2979    9.1071 H   0  0  0  0  0  0  0  0  0  0  0  0
   25.6825   16.6909   11.5913 H   0  0  0  0  0  0  0  0  0  0  0  0
   24.2667   18.3230   13.6073 H   0  0  0  0  0  0  0  0  0  0  0  0
   26.8882   18.0614   14.6672 H   0  0  0  0  0  0  0  0  0  0  0  0
   24.7970   18.5416   16.8324 H   0  0  0  0  0  0  0  0  0  0  0  0
   25.9005   17.1313   16.6919 H   0  0  0  0  0  0  0  0  0  0  0  0
   26.7283   18.8556   18.3056 H   0  0  0  0  0  0  0  0  0  0  0  0
   27.8495   18.5893   16.9103 H   0  0  0  0  0  0  0  0  0  0  0  0
   26.7038   21.7208   15.2693 H   0  0  0  0  0  0  0  0  0  0  0  0
   21.4866   14.3230    9.6787 H   0  0  0  0  0  0  0  0  0  0  0  0
   22.0860   15.9826    4.9950 H   0  0  0  0  0  0  0  0  0  0  0  0
  1  2  1  0
  2  3  1  0
  3  4  2  0
  4  5  1  0
  5  6  1  0
  6  7  2  0
  6  8  2  0
  6  9  1  0
  9 10  1  0
 10 11  2  0
 11 12  1  0
 12 13  2  0
 13 14  1  0
 14 15  2  0
 14 16  1  0
 16 17  1  0
 17 18  1  0
 18 19  1  0
 19 20  1  0
 20 21  2  0
 20 22  1  0
 22 23  1  0
 23 24  2  0
 13 25  1  0
 25 26  1  0
 26 27  2  0
 27 28  1  0
  5 29  1  0
 29 30  2  0
 30  3  1  0
 28  9  2  0
 27 12  1  0
 23 17  1  0
  1 31  1  0
  1 32  1  0
  1 33  1  0
  2 34  1  0
  2 35  1  0
  4 36  1  0
 10 37  1  0
 11 38  1  0
 16 39  1  0
 17 40  1  6
 18 41  1  0
 18 42  1  0
 19 43  1  0
 19 44  1  0
 22 45  1  0
 28 46  1  0
 29 47  1  0
M  END
>  <meeko>  (265) 
{"is_sidechain": [true], "free_energy": -11.03, "intermolecular_energy": 0.0, "internal_energy": -11.03, "cluster_size": 18, "cluster_id": 1, "rank_in_cluster": 1}

>  <_RMSD_MCS_to_ref>  (265) 
0.8236186415245024

$$$$
ligand
     RDKit          3D

 49 53  0  0  0  0  0  0  0  0999 V2000
   18.9090   19.1540    7.5370 C   0  0  0  0  0  0  0  0  0  0  0  0
   18.7730   17.6460    7.6780 C   0  0  0  0  0  0  0  0  0  0  0  0
   19.9440   16.9210    7.1150 C   0  0  0  0  0  0  0  0  0  0  0  0
   20.9400   16.2320    7.7770 C   0  0  0  0  0  0  0  0  0  0  0  0
   21.7560   15.7800    6.7810 N   0  0  0  0  0  0  0  0  0  0  0  0
   23.0170   14.6820    6.9570 S   0  0  0  0  0  6  0  0  0  0  0  0
   22.3830   13.4050    7.2190 O   0  0  0  0  0  0  0  0  0  0  0  0
   23.9000   14.8980    5.8290 O   0  0  0  0  0  0  0  0  0  0  0  0
   23.8440   15.2250    8.4280 C   0  0  0  0  0  0  0  0  0  0  0  0
   25.1610   15.6930    8.3560 C   0  0  0  0  0  0  0  0  0  0  0  0
   25.8110   16.1200    9.5170 C   0  0  0  0  0  0  0  0  0  0  0  0
   25.1540   16.0900   10.7490 C   0  0  0  0  0  0  0  0  0  0  0  0
   25.8480   16.5320   11.9040 N   0  0  0  0  0  0  0  0  0  0  0  0
   25.2350   16.5280   13.0580 C   0  0  0  0  0  0  0  0  0  0  0  0
   26.1440   17.1010   14.4520 S   0  0  0  0  0  0  0  0  0  0  0  0
   25.0660   18.4790   14.9860 C   0  0  1  0  0  0  0  0  0  0  0  0
   24.8960   18.5020   16.5040 C   0  0  0  0  0  0  0  0  0  0  0  0
   26.1760   18.9130   17.2200 C   0  0  0  0  0  0  0  0  0  0  0  0
   26.7140   20.2150   16.6810 C   0  0  0  0  0  0  0  0  0  0  0  0
   27.4280   20.9560   17.3490 O   0  0  0  0  0  0  0  0  0  0  0  0
   26.4050   20.5210   15.3790 N   0  0  0  0  0  0  0  0  0  0  0  0
   25.6310   19.8040   14.4990 C   0  0  0  0  0  0  0  0  0  0  0  0
   25.4510   20.2070   13.3500 O   0  0  0  0  0  0  0  0  0  0  0  0
   23.9160   16.0680   13.1720 N   0  0  0  0  0  0  0  0  0  0  0  0
   23.1940   15.9810   14.3140 N   0  0  0  0  0  0  0  0  0  0  0  0
   22.0480   15.4700   13.8510 C   0  0  0  0  0  0  0  0  0  0  0  0
   22.0050   15.2220   12.5050 N   0  0  0  0  0  0  0  0  0  0  0  0
   23.1940   15.6140   12.1030 C   0  0  0  0  0  0  0  0  0  0  0  0
   23.8190   15.6230   10.8000 C   0  0  0  0  0  0  0  0  0  0  0  0
   23.1590   15.1970    9.6470 C   0  0  0  0  0  0  0  0  0  0  0  0
   21.2390   16.1490    5.5810 C   0  0  0  0  0  0  0  0  0  0  0  0
   20.1390   16.8540    5.7490 N   0  0  0  0  0  0  0  0  0  0  0  0
   18.9504   19.6134    8.5356 H   0  0  0  0  0  0  0  0  0  0  0  0
   19.8320   19.3891    6.9867 H   0  0  0  0  0  0  0  0  0  0  0  0
   18.0430   19.5504    6.9867 H   0  0  0  0  0  0  0  0  0  0  0  0
   18.6819   17.3968    8.7455 H   0  0  0  0  0  0  0  0  0  0  0  0
   17.8804   17.3335    7.1163 H   0  0  0  0  0  0  0  0  0  0  0  0
   21.0508   16.0815    8.8610 H   0  0  0  0  0  0  0  0  0  0  0  0
   25.6830   15.7246    7.3883 H   0  0  0  0  0  0  0  0  0  0  0  0
   26.8480   16.4825    9.4601 H   0  0  0  0  0  0  0  0  0  0  0  0
   24.0726   18.3233   14.5400 H   0  0  0  0  0  0  0  0  0  0  0  0
   24.1011   19.2177   16.7607 H   0  0  0  0  0  0  0  0  0  0  0  0
   24.6385   17.4836   16.8305 H   0  0  0  0  0  0  0  0  0  0  0  0
   25.9641   19.0301   18.2930 H   0  0  0  0  0  0  0  0  0  0  0  0
   26.9317   18.1310   17.0545 H   0  0  0  0  0  0  0  0  0  0  0  0
   26.8036   21.3987   15.0161 H   0  0  0  0  0  0  0  0  0  0  0  0
   21.1928   15.2618   14.5107 H   0  0  0  0  0  0  0  0  0  0  0  0
   22.1179   14.8452    9.6959 H   0  0  0  0  0  0  0  0  0  0  0  0
   21.6775   15.8947    4.6047 H   0  0  0  0  0  0  0  0  0  0  0  0
  1  2  1  0
  2  3  1  0
  3  4  2  0
  4  5  1  0
  5  6  1  0
  6  7  2  0
  6  8  2  0
  6  9  1  0
  9 10  2  0
 10 11  1  0
 11 12  2  0
 12 13  1  0
 13 14  2  0
 14 15  1  0
 15 16  1  0
 16 17  1  0
 17 18  1  0
 18 19  1  0
 19 20  2  0
 19 21  1  0
 21 22  1  0
 22 23  2  0
 14 24  1  0
 24 25  1  0
 25 26  2  0
 26 27  1  0
 27 28  2  0
 28 29  1  0
 29 30  2  0
  5 31  1  0
 31 32  2  0
 32  3  1  0
 30  9  1  0
 29 12  1  0
 22 16  1  0
 28 24  1  0
  1 33  1  0
  1 34  1  0
  1 35  1  0
  2 36  1  0
  2 37  1  0
  4 38  1  0
 10 39  1  0
 11 40  1  0
 16 41  1  6
 17 42  1  0
 17 43  1  0
 18 44  1  0
 18 45  1  0
 21 46  1  0
 26 47  1  0
 30 48  1  0
 31 49  1  0
M  END
>  <meeko>  (266) 
{"is_sidechain": [true], "free_energy": -11.03, "intermolecular_energy": 0.0, "internal_energy": -11.03, "cluster_size": 20, "cluster_id": 1, "rank_in_cluster": 1}

>  <_RMSD_MCS_to_ref>  (266) 
0.7225951494440024

$$$$
ligand
     RDKit          3D

 50 53  0  0  0  0  0  0  0  0999 V2000
   18.7970   18.8170    7.7190 C   0  0  0  0  0  0  0  0  0  0  0  0
   18.5280   17.3290    7.8810 C   0  0  0  0  0  0  0  0  0  0  0  0
   19.7830   16.5310    7.9170 C   0  0  0  0  0  0  0  0  0  0  0  0
   20.1960   15.6020    8.8520 C   0  0  0  0  0  0  0  0  0  0  0  0
   21.4230   15.2000    8.4070 N   0  0  0  0  0  0  0  0  0  0  0  0
   22.3330   13.9350    9.0300 S   0  0  0  0  0  6  0  0  0  0  0  0
   23.3380   13.6610    8.0200 O   0  0  0  0  0  0  0  0  0  0  0  0
   21.3650   12.9440    9.4550 O   0  0  0  0  0  0  0  0  0  0  0  0
   23.1780   14.5210   10.4890 C   0  0  0  0  0  0  0  0  0  0  0  0
   24.5270   14.8950   10.4110 C   0  0  0  0  0  0  0  0  0  0  0  0
   25.1820   15.3590   11.5460 C   0  0  0  0  0  0  0  0  0  0  0  0
   24.4960   15.4590   12.7590 C   0  0  0  0  0  0  0  0  0  0  0  0
   25.2680   16.0080   13.8980 C   0  0  0  0  0  0  0  0  0  0  0  0
   25.7230   15.2580   14.7520 O   0  0  0  0  0  0  0  0  0  0  0  0
   25.4760   17.3660   13.8730 N   0  0  0  0  0  0  0  0  0  0  0  0
   26.3600   18.0130   14.8330 C   0  0  2  0  0  0  0  0  0  0  0  0
   25.8480   17.8790   16.2630 C   0  0  0  0  0  0  0  0  0  0  0  0
   26.7920   18.6050   17.2090 C   0  0  0  0  0  0  0  0  0  0  0  0
   26.9710   20.0500   16.8070 C   0  0  0  0  0  0  0  0  0  0  0  0
   27.1550   20.9450   17.6270 O   0  0  0  0  0  0  0  0  0  0  0  0
   26.9530   20.3220   15.4620 N   0  0  0  0  0  0  0  0  0  0  0  0
   26.4690   19.4980   14.4760 C   0  0  0  0  0  0  0  0  0  0  0  0
   26.1600   19.9400   13.3690 O   0  0  0  0  0  0  0  0  0  0  0  0
   23.1430   15.0550   12.8740 C   0  0  0  0  0  0  0  0  0  0  0  0
   22.4310   15.0650   14.0860 C   0  0  0  0  0  0  0  0  0  0  0  0
   21.1360   14.7090   14.2360 N   0  0  0  0  0  0  0  0  0  0  0  0
   20.4990   14.2970   13.1310 C   0  0  0  0  0  0  0  0  0  0  0  0
   21.1010   14.2180   11.8860 C   0  0  0  0  0  0  0  0  0  0  0  0
   22.4570   14.5900   11.7220 C   0  0  0  0  0  0  0  0  0  0  0  0
   21.7100   15.8450    7.2460 C   0  0  0  0  0  0  0  0  0  0  0  0
   20.7260   16.6550    6.9160 N   0  0  0  0  0  0  0  0  0  0  0  0
   18.8815   19.2845    8.7111 H   0  0  0  0  0  0  0  0  0  0  0  0
   19.7359   18.9616    7.1643 H   0  0  0  0  0  0  0  0  0  0  0  0
   17.9682   19.2812    7.1643 H   0  0  0  0  0  0  0  0  0  0  0  0
   17.9793   17.1686    8.8208 H   0  0  0  0  0  0  0  0  0  0  0  0
   17.9411   16.9957    7.0124 H   0  0  0  0  0  0  0  0  0  0  0  0
   19.6590   15.2632    9.7503 H   0  0  0  0  0  0  0  0  0  0  0  0
   25.0655   14.8215    9.4546 H   0  0  0  0  0  0  0  0  0  0  0  0
   26.2419   15.6478   11.4890 H   0  0  0  0  0  0  0  0  0  0  0  0
   24.9977   17.9373   13.1619 H   0  0  0  0  0  0  0  0  0  0  0  0
   27.3419   17.5198   14.7816 H   0  0  0  0  0  0  0  0  0  0  0  0
   24.8436   18.3216   16.3359 H   0  0  0  0  0  0  0  0  0  0  0  0
   25.8003   16.8148   16.5374 H   0  0  0  0  0  0  0  0  0  0  0  0
   26.3785   18.5654   18.2275 H   0  0  0  0  0  0  0  0  0  0  0  0
   27.7733   18.1097   17.1668 H   0  0  0  0  0  0  0  0  0  0  0  0
   27.3388   21.2294   15.1642 H   0  0  0  0  0  0  0  0  0  0  0  0
   22.9727   15.3894   14.9867 H   0  0  0  0  0  0  0  0  0  0  0  0
   19.4417   14.0061   13.2175 H   0  0  0  0  0  0  0  0  0  0  0  0
   20.5222   13.8643   11.0200 H   0  0  0  0  0  0  0  0  0  0  0  0
   22.6337   15.7096    6.6642 H   0  0  0  0  0  0  0  0  0  0  0  0
  1  2  1  0
  2  3  1  0
  3  4  2  0
  4  5  1  0
  5  6  1  0
  6  7  2  0
  6  8  2  0
  6  9  1  0
  9 10  2  0
 10 11  1  0
 11 12  2  0
 12 13  1  0
 13 14  2  0
 13 15  1  0
 15 16  1  0
 16 17  1  0
 17 18  1  0
 18 19  1  0
 19 20  2  0
 19 21  1  0
 21 22  1  0
 22 23  2  0
 12 24  1  0
 24 25  2  0
 25 26  1  0
 26 27  2  0
 27 28  1  0
 28 29  2  0
  5 30  1  0
 30 31  2  0
 31  3  1  0
 29  9  1  0
 22 16  1  0
 29 24  1  0
  1 32  1  0
  1 33  1  0
  1 34  1  0
  2 35  1  0
  2 36  1  0
  4 37  1  0
 10 38  1  0
 11 39  1  0
 15 40  1  0
 16 41  1  1
 17 42  1  0
 17 43  1  0
 18 44  1  0
 18 45  1  0
 21 46  1  0
 25 47  1  0
 27 48  1  0
 28 49  1  0
 30 50  1  0
M  END
>  <meeko>  (267) 
{"is_sidechain": [true], "free_energy": -11.02, "intermolecular_energy": 0.0, "internal_energy": -11.02, "cluster_size": 18, "cluster_id": 1, "rank_in_cluster": 1}

>  <_RMSD_MCS_to_ref>  (267) 
0.860327715337462

$$$$
ligand
     RDKit          3D

 47 50  0  0  0  0  0  0  0  0999 V2000
   18.9090   19.1540    7.5370 C   0  0  0  0  0  0  0  0  0  0  0  0
   18.7730   17.6460    7.6780 C   0  0  0  0  0  0  0  0  0  0  0  0
   20.0580   16.9390    7.4270 C   0  0  0  0  0  0  0  0  0  0  0  0
   20.6950   15.9910    8.2040 C   0  0  0  0  0  0  0  0  0  0  0  0
   21.8350   15.7010    7.5100 N   0  0  0  0  0  0  0  0  0  0  0  0
   22.9520   14.5150    7.9000 S   0  0  0  0  0  6  0  0  0  0  0  0
   23.7550   14.3180    6.7020 O   0  0  0  0  0  0  0  0  0  0  0  0
   22.2150   13.4260    8.5110 O   0  0  0  0  0  0  0  0  0  0  0  0
   23.9990   15.2660    9.1040 C   0  0  0  0  0  0  0  0  0  0  0  0
   25.2480   15.5960    8.6770 N   0  0  0  0  0  0  0  0  0  0  0  0
   26.1020   16.1690    9.5550 C   0  0  0  0  0  0  0  0  0  0  0  0
   25.8060   16.4460   10.8830 C   0  0  0  0  0  0  0  0  0  0  0  0
   24.5210   16.0930   11.3260 C   0  0  0  0  0  0  0  0  0  0  0  0
   23.7920   16.1660   12.5470 C   0  0  0  0  0  0  0  0  0  0  0  0
   24.2580   16.7010   13.8360 C   0  0  0  0  0  0  0  0  0  0  0  0
   24.0480   16.1480   14.9110 O   0  0  0  0  0  0  0  0  0  0  0  0
   24.9490   17.8920   13.7140 N   0  0  0  0  0  0  0  0  0  0  0  0
   25.1660   18.7440   14.8670 C   0  0  1  0  0  0  0  0  0  0  0  0
   26.0680   18.0580   15.8850 C   0  0  0  0  0  0  0  0  0  0  0  0
   26.2770   18.9760   17.0790 C   0  0  0  0  0  0  0  0  0  0  0  0
   26.8270   20.3160   16.6490 C   0  0  0  0  0  0  0  0  0  0  0  0
   27.6160   20.9540   17.3400 O   0  0  0  0  0  0  0  0  0  0  0  0
   26.3810   20.8070   15.4490 N   0  0  0  0  0  0  0  0  0  0  0  0
   25.8190   20.0670   14.4350 C   0  0  0  0  0  0  0  0  0  0  0  0
   25.8530   20.4700   13.2740 O   0  0  0  0  0  0  0  0  0  0  0  0
   22.5480   15.6510   12.4080 N   0  0  0  0  0  0  0  0  0  0  0  0
   22.4980   15.2580   11.1230 N   0  0  0  0  0  0  0  0  0  0  0  0
   23.6460   15.5070   10.4230 C   0  0  0  0  0  0  0  0  0  0  0  0
   21.8420   16.4060    6.3500 C   0  0  0  0  0  0  0  0  0  0  0  0
   20.7840   17.1880    6.2790 N   0  0  0  0  0  0  0  0  0  0  0  0
   18.9504   19.6134    8.5356 H   0  0  0  0  0  0  0  0  0  0  0  0
   19.8320   19.3891    6.9867 H   0  0  0  0  0  0  0  0  0  0  0  0
   18.0430   19.5504    6.9867 H   0  0  0  0  0  0  0  0  0  0  0  0
   18.4353   17.4149    8.6990 H   0  0  0  0  0  0  0  0  0  0  0  0
   18.0462   17.3012    6.9278 H   0  0  0  0  0  0  0  0  0  0  0  0
   20.3606   15.5668    9.1623 H   0  0  0  0  0  0  0  0  0  0  0  0
   27.1050   16.4353    9.1903 H   0  0  0  0  0  0  0  0  0  0  0  0
   26.5399   16.9174   11.5532 H   0  0  0  0  0  0  0  0  0  0  0  0
   25.3137   18.1773   12.7940 H   0  0  0  0  0  0  0  0  0  0  0  0
   24.1872   18.9442   15.3274 H   0  0  0  0  0  0  0  0  0  0  0  0
   25.5968   17.1223   16.2203 H   0  0  0  0  0  0  0  0  0  0  0  0
   27.0398   17.8341   15.4208 H   0  0  0  0  0  0  0  0  0  0  0  0
   25.3131   19.1299   17.5862 H   0  0  0  0  0  0  0  0  0  0  0  0
   27.0020   18.5039   17.7583 H   0  0  0  0  0  0  0  0  0  0  0  0
   26.4753   21.8207   15.2930 H   0  0  0  0  0  0  0  0  0  0  0  0
   21.6704   14.8102   10.7041 H   0  0  0  0  0  0  0  0  0  0  0  0
   22.6218   16.3344    5.5775 H   0  0  0  0  0  0  0  0  0  0  0  0
  1  2  1  0
  2  3  1  0
  3  4  2  0
  4  5  1  0
  5  6  1  0
  6  7  2  0
  6  8  2  0
  6  9  1  0
  9 10  2  0
 10 11  1  0
 11 12  2  0
 12 13  1  0
 13 14  1  0
 14 15  1  0
 15 16  2  0
 15 17  1  0
 17 18  1  0
 18 19  1  0
 19 20  1  0
 20 21  1  0
 21 22  2  0
 21 23  1  0
 23 24  1  0
 24 25  2  0
 14 26  2  0
 26 27  1  0
 27 28  1  0
  5 29  1  0
 29 30  2  0
 30  3  1  0
 28  9  1  0
 28 13  2  0
 24 18  1  0
  1 31  1  0
  1 32  1  0
  1 33  1  0
  2 34  1  0
  2 35  1  0
  4 36  1  0
 11 37  1  0
 12 38  1  0
 17 39  1  0
 18 40  1  1
 19 41  1  0
 19 42  1  0
 20 43  1  0
 20 44  1  0
 23 45  1  0
 27 46  1  0
 29 47  1  0
M  END
>  <meeko>  (268) 
{"is_sidechain": [true], "free_energy": -11.02, "intermolecular_energy": 0.0, "internal_energy": -11.02, "cluster_size": 16, "cluster_id": 1, "rank_in_cluster": 1}

>  <_RMSD_MCS_to_ref>  (268) 
0.6458242795064307

$$$$
ligand
     RDKit          3D

 50 53  0  0  0  0  0  0  0  0999 V2000
   18.9090   19.1540    7.5370 C   0  0  0  0  0  0  0  0  0  0  0  0
   18.7730   17.6460    7.6780 C   0  0  0  0  0  0  0  0  0  0  0  0
   20.0950   16.9620    7.7080 C   0  0  0  0  0  0  0  0  0  0  0  0
   20.8260   16.5410    8.8000 C   0  0  0  0  0  0  0  0  0  0  0  0
   21.9500   15.9790    8.2600 N   0  0  0  0  0  0  0  0  0  0  0  0
   23.3680   15.6090    9.1010 S   0  0  0  0  0  6  0  0  0  0  0  0
   23.8210   14.3610    8.5130 O   0  0  0  0  0  0  0  0  0  0  0  0
   24.1540   16.8300    9.0600 O   0  0  0  0  0  0  0  0  0  0  0  0
   22.7730   15.3330   10.7590 C   0  0  0  0  0  0  0  0  0  0  0  0
   21.5960   14.6890   10.8810 N   0  0  0  0  0  0  0  0  0  0  0  0
   21.1950   14.5580   12.1510 C   0  0  0  0  0  0  0  0  0  0  0  0
   21.8830   15.0350   13.2520 C   0  0  0  0  0  0  0  0  0  0  0  0
   23.0590   15.6910   12.9990 C   0  0  0  0  0  0  0  0  0  0  0  0
   23.8830   16.3340   14.0740 C   0  0  0  0  0  0  0  0  0  0  0  0
   24.1730   15.7520   15.1110 O   0  0  0  0  0  0  0  0  0  0  0  0
   24.2550   17.6360   13.7920 N   0  0  0  0  0  0  0  0  0  0  0  0
   24.6890   18.5380   14.8440 C   0  0  1  0  0  0  0  0  0  0  0  0
   25.7880   17.8990   15.6830 C   0  0  0  0  0  0  0  0  0  0  0  0
   26.2390   18.8730   16.7600 C   0  0  0  0  0  0  0  0  0  0  0  0
   26.6730   20.1900   16.1600 C   0  0  0  0  0  0  0  0  0  0  0  0
   27.5960   20.8530   16.6220 O   0  0  0  0  0  0  0  0  0  0  0  0
   25.9640   20.6330   15.0720 N   0  0  0  0  0  0  0  0  0  0  0  0
   25.2320   19.8350   14.2240 C   0  0  0  0  0  0  0  0  0  0  0  0
   25.0500   20.1710   13.0550 O   0  0  0  0  0  0  0  0  0  0  0  0
   23.5420   15.8420   11.7430 N   0  0  0  0  0  0  0  0  0  0  0  0
   21.1390   14.7730   14.5150 C   0  0  0  0  0  0  0  0  0  0  0  0
   20.1460   13.6920   14.0560 C   0  0  0  0  0  0  0  0  0  0  0  0
   19.8920   13.9320   12.5630 C   0  0  0  0  0  0  0  0  0  0  0  0
   21.8830   16.0800    6.9040 C   0  0  0  0  0  0  0  0  0  0  0  0
   20.7750   16.6900    6.5370 N   0  0  0  0  0  0  0  0  0  0  0  0
   18.9504   19.6134    8.5356 H   0  0  0  0  0  0  0  0  0  0  0  0
   19.8320   19.3891    6.9867 H   0  0  0  0  0  0  0  0  0  0  0  0
   18.0430   19.5504    6.9867 H   0  0  0  0  0  0  0  0  0  0  0  0
   18.2384   17.4246    8.6135 H   0  0  0  0  0  0  0  0  0  0  0  0
   18.2202   17.2737    6.8029 H   0  0  0  0  0  0  0  0  0  0  0  0
   20.5640   16.6359    9.8641 H   0  0  0  0  0  0  0  0  0  0  0  0
   24.2236   17.9717   12.8187 H   0  0  0  0  0  0  0  0  0  0  0  0
   23.8240   18.7572   15.4873 H   0  0  0  0  0  0  0  0  0  0  0  0
   25.4024   16.9836   16.1555 H   0  0  0  0  0  0  0  0  0  0  0  0
   26.6419   17.6481   15.0366 H   0  0  0  0  0  0  0  0  0  0  0  0
   25.4042   19.0526   17.4535 H   0  0  0  0  0  0  0  0  0  0  0  0
   27.0964   18.4329   17.2901 H   0  0  0  0  0  0  0  0  0  0  0  0
   25.9813   21.6438   14.8746 H   0  0  0  0  0  0  0  0  0  0  0  0
   21.8058   14.3986   15.3057 H   0  0  0  0  0  0  0  0  0  0  0  0
   20.6664   15.6638   14.9544 H   0  0  0  0  0  0  0  0  0  0  0  0
   20.5762   12.6916   14.2113 H   0  0  0  0  0  0  0  0  0  0  0  0
   19.2093   13.7458   14.6303 H   0  0  0  0  0  0  0  0  0  0  0  0
   19.7089   12.9890   12.0271 H   0  0  0  0  0  0  0  0  0  0  0  0
   19.0044   14.5442   12.3453 H   0  0  0  0  0  0  0  0  0  0  0  0
   22.6492   15.7038    6.2101 H   0  0  0  0  0  0  0  0  0  0  0  0
  1  2  1  0
  2  3  1  0
  3  4  2  0
  4  5  1  0
  5  6  1  0
  6  7  2  0
  6  8  2  0
  6  9  1  0
  9 10  2  0
 10 11  1  0
 11 12  2  0
 12 13  1  0
 13 14  1  0
 14 15  2  0
 14 16  1  0
 16 17  1  0
 17 18  1  0
 18 19  1  0
 19 20  1  0
 20 21  2  0
 20 22  1  0
 22 23  1  0
 23 24  2  0
 13 25  2  0
 12 26  1  0
 26 27  1  0
 27 28  1  0
  5 29  1  0
 29 30  2  0
 30  3  1  0
 25  9  1  0
 28 11  1  0
 23 17  1  0
  1 31  1  0
  1 32  1  0
  1 33  1  0
  2 34  1  0
  2 35  1  0
  4 36  1  0
 16 37  1  0
 17 38  1  1
 18 39  1  0
 18 40  1  0
 19 41  1  0
 19 42  1  0
 22 43  1  0
 26 44  1  0
 26 45  1  0
 27 46  1  0
 27 47  1  0
 28 48  1  0
 28 49  1  0
 29 50  1  0
M  END
>  <meeko>  (269) 
{"is_sidechain": [true], "free_energy": -11.02, "intermolecular_energy": 0.0, "internal_energy": -11.02, "cluster_size": 19, "cluster_id": 1, "rank_in_cluster": 1}

>  <_RMSD_MCS_to_ref>  (269) 
0.3910755823509205

$$$$
ligand
     RDKit          3D

 53 57  0  0  0  0  0  0  0  0999 V2000
   18.9090   19.1530    7.5370 C   0  0  0  0  0  0  0  0  0  0  0  0
   18.7730   17.6470    7.6780 C   0  0  0  0  0  0  0  0  0  0  0  0
   20.0880   16.9510    7.6210 C   0  0  0  0  0  0  0  0  0  0  0  0
   20.6450   16.0750    8.5300 C   0  0  0  0  0  0  0  0  0  0  0  0
   21.8490   15.7440    7.9820 N   0  0  0  0  0  0  0  0  0  0  0  0
   22.9720   14.6630    8.6020 S   0  0  0  0  0  6  0  0  0  0  0  0
   22.2520   13.7390    9.4550 O   0  0  0  0  0  0  0  0  0  0  0  0
   23.7030   14.2140    7.4310 O   0  0  0  0  0  0  0  0  0  0  0  0
   24.0830   15.6050    9.6210 C   0  0  0  0  0  0  0  0  0  0  0  0
   23.6190   15.9500   10.9030 C   0  0  0  0  0  0  0  0  0  0  0  0
   24.4680   16.6680   11.7200 C   0  0  0  0  0  0  0  0  0  0  0  0
   25.7410   17.0610   11.3200 C   0  0  0  0  0  0  0  0  0  0  0  0
   26.2040   16.7370   10.0570 C   0  0  0  0  0  0  0  0  0  0  0  0
   25.3710   16.0010    9.1870 C   0  0  0  0  0  0  0  0  0  0  0  0
   25.9010   15.7100    7.8730 C   0  0  0  0  0  0  0  0  0  0  0  0
   25.7840   16.3940    6.6440 C   0  0  0  0  0  0  0  0  0  0  0  0
   26.4600   15.7910    5.6650 N   0  0  0  0  0  0  0  0  0  0  0  0
   27.0260   14.7320    6.2680 N   0  0  0  0  0  0  0  0  0  0  0  0
   26.7310   14.6460    7.5990 C   0  0  0  0  0  0  0  0  0  0  0  0
   26.4010   17.8430   12.4080 C   0  0  0  0  0  0  0  0  0  0  0  0
   25.4250   17.7670   13.4880 N   0  0  0  0  0  0  0  0  0  0  0  0
   25.4860   18.5980   14.6850 C   0  0  1  0  0  0  0  0  0  0  0  0
   26.3380   17.9760   15.7870 C   0  0  0  0  0  0  0  0  0  0  0  0
   26.2820   18.8580   17.0260 C   0  0  0  0  0  0  0  0  0  0  0  0
   26.7100   20.2710   16.7090 C   0  0  0  0  0  0  0  0  0  0  0  0
   27.3550   20.9560   17.4980 O   0  0  0  0  0  0  0  0  0  0  0  0
   26.3290   20.7680   15.4890 N   0  0  0  0  0  0  0  0  0  0  0  0
   26.0150   20.0110   14.3830 C   0  0  0  0  0  0  0  0  0  0  0  0
   26.1740   20.4650   13.2520 O   0  0  0  0  0  0  0  0  0  0  0  0
   24.2480   17.1550   13.0850 C   0  0  0  0  0  0  0  0  0  0  0  0
   23.2140   17.0260   13.7110 O   0  0  0  0  0  0  0  0  0  0  0  0
   21.9670   16.3470    6.7700 C   0  0  0  0  0  0  0  0  0  0  0  0
   20.9330   17.1300    6.5410 N   0  0  0  0  0  0  0  0  0  0  0  0
   18.9505   19.6125    8.5356 H   0  0  0  0  0  0  0  0  0  0  0  0
   19.8320   19.3879    6.9867 H   0  0  0  0  0  0  0  0  0  0  0  0
   18.0430   19.5494    6.9867 H   0  0  0  0  0  0  0  0  0  0  0  0
   18.2969   17.4241    8.6442 H   0  0  0  0  0  0  0  0  0  0  0  0
   18.1648   17.2847    6.8361 H   0  0  0  0  0  0  0  0  0  0  0  0
   20.2158   15.7238    9.4800 H   0  0  0  0  0  0  0  0  0  0  0  0
   22.6144   15.6577   11.2425 H   0  0  0  0  0  0  0  0  0  0  0  0
   27.2085   17.0490    9.7350 H   0  0  0  0  0  0  0  0  0  0  0  0
   25.2024   17.3179    6.5091 H   0  0  0  0  0  0  0  0  0  0  0  0
   27.6231   14.0524    5.7755 H   0  0  0  0  0  0  0  0  0  0  0  0
   27.0845   13.8824    8.3075 H   0  0  0  0  0  0  0  0  0  0  0  0
   27.3567   17.3852   12.7030 H   0  0  0  0  0  0  0  0  0  0  0  0
   26.6530   18.8733   12.1165 H   0  0  0  0  0  0  0  0  0  0  0  0
   24.4475   18.6695   15.0406 H   0  0  0  0  0  0  0  0  0  0  0  0
   25.9504   16.9757   16.0304 H   0  0  0  0  0  0  0  0  0  0  0  0
   27.3793   17.8904   15.4430 H   0  0  0  0  0  0  0  0  0  0  0  0
   25.2513   18.8727   17.4099 H   0  0  0  0  0  0  0  0  0  0  0  0
   26.9699   18.4458   17.7789 H   0  0  0  0  0  0  0  0  0  0  0  0
   26.2732   21.7919   15.3923 H   0  0  0  0  0  0  0  0  0  0  0  0
   22.8087   16.2015    6.0769 H   0  0  0  0  0  0  0  0  0  0  0  0
  1  2  1  0
  2  3  1  0
  3  4  2  0
  4  5  1  0
  5  6  1  0
  6  7  2  0
  6  8  2  0
  6  9  1  0
  9 10  2  0
 10 11  1  0
 11 12  2  0
 12 13  1  0
 13 14  2  0
 14 15  1  0
 15 16  1  0
 16 17  2  0
 17 18  1  0
 18 19  1  0
 12 20  1  0
 20 21  1  0
 21 22  1  0
 22 23  1  0
 23 24  1  0
 24 25  1  0
 25 26  2  0
 25 27  1  0
 27 28  1  0
 28 29  2  0
 21 30  1  0
 30 31  2  0
  5 32  1  0
 32 33  2  0
 33  3  1  0
 14  9  1  0
 19 15  2  0
 28 22  1  0
 30 11  1  0
  1 34  1  0
  1 35  1  0
  1 36  1  0
  2 37  1  0
  2 38  1  0
  4 39  1  0
 10 40  1  0
 13 41  1  0
 16 42  1  0
 18 43  1  0
 19 44  1  0
 20 45  1  0
 20 46  1  0
 22 47  1  1
 23 48  1  0
 23 49  1  0
 24 50  1  0
 24 51  1  0
 27 52  1  0
 32 53  1  0
M  END
>  <meeko>  (270) 
{"is_sidechain": [true], "free_energy": -11.02, "intermolecular_energy": 0.0, "internal_energy": -11.02, "cluster_size": 19, "cluster_id": 1, "rank_in_cluster": 1}

>  <_RMSD_MCS_to_ref>  (270) 
0.8179442048344266

$$$$
ligand
     RDKit          3D

 48 51  0  0  0  0  0  0  0  0999 V2000
   18.9090   19.1540    7.5370 C   0  0  0  0  0  0  0  0  0  0  0  0
   18.7730   17.6460    7.6780 C   0  0  0  0  0  0  0  0  0  0  0  0
   20.0610   16.9410    7.4370 C   0  0  0  0  0  0  0  0  0  0  0  0
   20.7240   16.0390    8.2470 C   0  0  0  0  0  0  0  0  0  0  0  0
   21.8400   15.7080    7.5340 N   0  0  0  0  0  0  0  0  0  0  0  0
   23.1280   14.7880    8.1200 S   0  0  0  0  0  6  0  0  0  0  0  0
   22.5550   13.4590    8.2540 O   0  0  0  0  0  0  0  0  0  0  0  0
   24.2140   15.0210    7.1850 O   0  0  0  0  0  0  0  0  0  0  0  0
   23.5300   15.4260    9.6820 C   0  0  0  0  0  0  0  0  0  0  0  0
   22.6600   15.2410   10.6970 C   0  0  0  0  0  0  0  0  0  0  0  0
   22.9620   15.7960   12.0060 C   0  0  0  0  0  0  0  0  0  0  0  0
   24.0900   16.5010   12.2360 C   0  0  0  0  0  0  0  0  0  0  0  0
   24.3150   17.0440   13.6160 C   0  0  0  0  0  0  0  0  0  0  0  0
   23.8570   16.4870   14.6110 O   0  0  0  0  0  0  0  0  0  0  0  0
   25.0510   18.1950   13.6930 N   0  0  0  0  0  0  0  0  0  0  0  0
   25.3070   18.8750   14.9500 C   0  0  1  0  0  0  0  0  0  0  0  0
   26.3640   18.1470   15.7740 C   0  0  0  0  0  0  0  0  0  0  0  0
   26.5990   18.8950   17.0770 C   0  0  0  0  0  0  0  0  0  0  0  0
   26.9830   20.3330   16.8210 C   0  0  0  0  0  0  0  0  0  0  0  0
   27.7430   20.9530   17.5590 O   0  0  0  0  0  0  0  0  0  0  0  0
   26.4080   20.9390   15.7320 N   0  0  0  0  0  0  0  0  0  0  0  0
   25.7740   20.3110   14.6860 C   0  0  0  0  0  0  0  0  0  0  0  0
   25.5850   20.9030   13.6240 O   0  0  0  0  0  0  0  0  0  0  0  0
   25.0170   16.6980   11.1670 C   0  0  0  0  0  0  0  0  0  0  0  0
   26.1680   17.3420   11.1350 N   0  0  0  0  0  0  0  0  0  0  0  0
   26.6370   17.2010    9.8620 C   0  0  0  0  0  0  0  0  0  0  0  0
   25.7650   16.4610    9.1000 C   0  0  0  0  0  0  0  0  0  0  0  0
   24.7080   16.1410    9.9210 N   0  0  0  0  0  0  0  0  0  0  0  0
   21.8460   16.3970    6.3650 C   0  0  0  0  0  0  0  0  0  0  0  0
   20.7770   17.1600    6.2770 N   0  0  0  0  0  0  0  0  0  0  0  0
   18.9504   19.6134    8.5356 H   0  0  0  0  0  0  0  0  0  0  0  0
   19.8320   19.3891    6.9867 H   0  0  0  0  0  0  0  0  0  0  0  0
   18.0430   19.5504    6.9867 H   0  0  0  0  0  0  0  0  0  0  0  0
   18.4278   17.4151    8.6966 H   0  0  0  0  0  0  0  0  0  0  0  0
   18.0518   17.2997    6.9230 H   0  0  0  0  0  0  0  0  0  0  0  0
   20.4218   15.6719    9.2389 H   0  0  0  0  0  0  0  0  0  0  0  0
   21.7306   14.6752   10.5351 H   0  0  0  0  0  0  0  0  0  0  0  0
   22.2524   15.6373   12.8314 H   0  0  0  0  0  0  0  0  0  0  0  0
   25.4382   18.5942   12.8261 H   0  0  0  0  0  0  0  0  0  0  0  0
   24.3663   18.8852   15.5201 H   0  0  0  0  0  0  0  0  0  0  0  0
   26.0174   17.1267   15.9949 H   0  0  0  0  0  0  0  0  0  0  0  0
   27.3039   18.1012   15.2043 H   0  0  0  0  0  0  0  0  0  0  0  0
   25.6764   18.8713   17.6755 H   0  0  0  0  0  0  0  0  0  0  0  0
   27.4239   18.4053   17.6153 H   0  0  0  0  0  0  0  0  0  0  0  0
   26.4563   21.9672   15.6946 H   0  0  0  0  0  0  0  0  0  0  0  0
   27.5845   17.6224    9.4951 H   0  0  0  0  0  0  0  0  0  0  0  0
   25.8876   16.1802    8.0435 H   0  0  0  0  0  0  0  0  0  0  0  0
   22.6328   16.3277    5.5994 H   0  0  0  0  0  0  0  0  0  0  0  0
  1  2  1  0
  2  3  1  0
  3  4  2  0
  4  5  1  0
  5  6  1  0
  6  7  2  0
  6  8  2  0
  6  9  1  0
  9 10  2  0
 10 11  1  0
 11 12  2  0
 12 13  1  0
 13 14  2  0
 13 15  1  0
 15 16  1  0
 16 17  1  0
 17 18  1  0
 18 19  1  0
 19 20  2  0
 19 21  1  0
 21 22  1  0
 22 23  2  0
 12 24  1  0
 24 25  2  0
 25 26  1  0
 26 27  2  0
 27 28  1  0
  5 29  1  0
 29 30  2  0
 30  3  1  0
 28  9  1  0
 22 16  1  0
 28 24  1  0
  1 31  1  0
  1 32  1  0
  1 33  1  0
  2 34  1  0
  2 35  1  0
  4 36  1  0
 10 37  1  0
 11 38  1  0
 15 39  1  0
 16 40  1  1
 17 41  1  0
 17 42  1  0
 18 43  1  0
 18 44  1  0
 21 45  1  0
 26 46  1  0
 27 47  1  0
 29 48  1  0
M  END
>  <meeko>  (271) 
{"is_sidechain": [true], "free_energy": -11.01, "intermolecular_energy": 0.0, "internal_energy": -11.01, "cluster_size": 19, "cluster_id": 1, "rank_in_cluster": 1}

>  <_RMSD_MCS_to_ref>  (271) 
0.7832558826959284

$$$$
ligand
     RDKit          3D

 55 59  0  0  0  0  0  0  0  0999 V2000
   18.9090   19.1540    7.5370 C   0  0  0  0  0  0  0  0  0  0  0  0
   18.7730   17.6460    7.6780 C   0  0  0  0  0  0  0  0  0  0  0  0
   20.0540   17.0000    8.0710 C   0  0  0  0  0  0  0  0  0  0  0  0
   21.2850   17.0610    7.4490 C   0  0  0  0  0  0  0  0  0  0  0  0
   22.0930   16.2880    8.2320 N   0  0  0  0  0  0  0  0  0  0  0  0
   23.7250   15.9990    7.9710 S   0  0  0  0  0  6  0  0  0  0  0  0
   23.8800   16.1460    6.5350 O   0  0  0  0  0  0  0  0  0  0  0  0
   24.4580   16.8290    8.9060 O   0  0  0  0  0  0  0  0  0  0  0  0
   24.0130   14.2980    8.3840 C   0  0  0  0  0  0  0  0  0  0  0  0
   24.2840   13.4320    7.3150 C   0  0  0  0  0  0  0  0  0  0  0  0
   24.4940   12.0960    7.5880 C   0  0  0  0  0  0  0  0  0  0  0  0
   24.4550   11.5830    8.8310 N   0  0  0  0  0  0  0  0  0  0  0  0
   24.2130   12.4460    9.8470 C   0  0  0  0  0  0  0  0  0  0  0  0
   23.9830   13.8160    9.7010 C   0  0  0  0  0  0  0  0  0  0  0  0
   23.7400   14.6190   10.9020 C   0  0  0  0  0  0  0  0  0  0  0  0
   22.5800   14.3930   11.6850 C   0  0  0  0  0  0  0  0  0  0  0  0
   22.3070   15.1450   12.8360 C   0  0  0  0  0  0  0  0  0  0  0  0
   23.2140   16.1180   13.2060 C   0  0  0  0  0  0  0  0  0  0  0  0
   24.3670   16.3230   12.4530 C   0  0  0  0  0  0  0  0  0  0  0  0
   24.6590   15.5960   11.3120 C   0  0  0  0  0  0  0  0  0  0  0  0
   25.1410   17.3950   13.0870 C   0  0  0  0  0  0  0  0  0  0  0  0
   26.2350   17.7770   12.7210 O   0  0  0  0  0  0  0  0  0  0  0  0
   24.3860   17.8580   14.1530 N   0  0  0  0  0  0  0  0  0  0  0  0
   24.9400   18.7570   15.1580 C   0  0  1  0  0  0  0  0  0  0  0  0
   25.9640   18.0700   16.0560 C   0  0  0  0  0  0  0  0  0  0  0  0
   26.4280   19.0430   17.1290 C   0  0  0  0  0  0  0  0  0  0  0  0
   26.9740   20.3120   16.5160 C   0  0  0  0  0  0  0  0  0  0  0  0
   27.9230   20.9200   17.0000 O   0  0  0  0  0  0  0  0  0  0  0  0
   26.3420   20.7680   15.3870 N   0  0  0  0  0  0  0  0  0  0  0  0
   25.5850   20.0040   14.5290 C   0  0  0  0  0  0  0  0  0  0  0  0
   25.4690   20.3290   13.3490 O   0  0  0  0  0  0  0  0  0  0  0  0
   23.1870   17.0570   14.3660 C   0  0  0  0  0  0  0  0  0  0  0  0
   21.3820   15.8250    9.2900 C   0  0  0  0  0  0  0  0  0  0  0  0
   20.1270   16.2170    9.2080 N   0  0  0  0  0  0  0  0  0  0  0  0
   18.9504   19.6134    8.5356 H   0  0  0  0  0  0  0  0  0  0  0  0
   19.8320   19.3891    6.9867 H   0  0  0  0  0  0  0  0  0  0  0  0
   18.0430   19.5504    6.9867 H   0  0  0  0  0  0  0  0  0  0  0  0
   18.0165   17.4290    8.4466 H   0  0  0  0  0  0  0  0  0  0  0  0
   18.4772   17.2409    6.6990 H   0  0  0  0  0  0  0  0  0  0  0  0
   21.5532   17.6072    6.5326 H   0  0  0  0  0  0  0  0  0  0  0  0
   24.3281   13.8091    6.2826 H   0  0  0  0  0  0  0  0  0  0  0  0
   24.7036   11.4171    6.7482 H   0  0  0  0  0  0  0  0  0  0  0  0
   24.1963   12.0354   10.8674 H   0  0  0  0  0  0  0  0  0  0  0  0
   21.8746   13.6057   11.3809 H   0  0  0  0  0  0  0  0  0  0  0  0
   21.3969   14.9652   13.4271 H   0  0  0  0  0  0  0  0  0  0  0  0
   25.5833   15.7788   10.7443 H   0  0  0  0  0  0  0  0  0  0  0  0
   24.0823   19.0666   15.7732 H   0  0  0  0  0  0  0  0  0  0  0  0
   25.5041   17.1911   16.5315 H   0  0  0  0  0  0  0  0  0  0  0  0
   26.8261   17.7500   15.4524 H   0  0  0  0  0  0  0  0  0  0  0  0
   25.5760   19.2953   17.7774 H   0  0  0  0  0  0  0  0  0  0  0  0
   27.2293   18.5641   17.7109 H   0  0  0  0  0  0  0  0  0  0  0  0
   26.4429   21.7681   15.1624 H   0  0  0  0  0  0  0  0  0  0  0  0
   23.2378   16.5116   15.3199 H   0  0  0  0  0  0  0  0  0  0  0  0
   22.2655   17.6548   14.4243 H   0  0  0  0  0  0  0  0  0  0  0  0
   21.7951   15.2089   10.1023 H   0  0  0  0  0  0  0  0  0  0  0  0
  1  2  1  0
  2  3  1  0
  3  4  2  0
  4  5  1  0
  5  6  1  0
  6  7  2  0
  6  8  2  0
  6  9  1  0
  9 10  2  0
 10 11  1  0
 11 12  2  0
 12 13  1  0
 13 14  2  0
 14 15  1  0
 15 16  2  0
 16 17  1  0
 17 18  2  0
 18 19  1  0
 19 20  2  0
 19 21  1  0
 21 22  2  0
 21 23  1  0
 23 24  1  0
 24 25  1  0
 25 26  1  0
 26 27  1  0
 27 28  2  0
 27 29  1  0
 29 30  1  0
 30 31  2  0
 23 32  1  0
  5 33  1  0
 33 34  2  0
 34  3  1  0
 14  9  1  0
 20 15  1  0
 30 24  1  0
 32 18  1  0
  1 35  1  0
  1 36  1  0
  1 37  1  0
  2 38  1  0
  2 39  1  0
  4 40  1  0
 10 41  1  0
 11 42  1  0
 13 43  1  0
 16 44  1  0
 17 45  1  0
 20 46  1  0
 24 47  1  1
 25 48  1  0
 25 49  1  0
 26 50  1  0
 26 51  1  0
 29 52  1  0
 32 53  1  0
 32 54  1  0
 33 55  1  0
M  END
>  <meeko>  (272) 
{"is_sidechain": [true], "free_energy": -11.01, "intermolecular_energy": 0.0, "internal_energy": -11.01, "cluster_size": 19, "cluster_id": 1, "rank_in_cluster": 1}

>  <_RMSD_MCS_to_ref>  (272) 
1.9996086978317644

$$$$
ligand
     RDKit          3D

 58 62  0  0  0  0  0  0  0  0999 V2000
   18.8250   19.0170    7.5350 C   0  0  0  0  0  0  0  0  0  0  0  0
   18.5200   17.5420    7.7330 C   0  0  0  0  0  0  0  0  0  0  0  0
   19.7570   16.7240    7.8670 C   0  0  0  0  0  0  0  0  0  0  0  0
   20.1080   15.8390    8.8670 C   0  0  0  0  0  0  0  0  0  0  0  0
   21.3450   15.3930    8.5000 N   0  0  0  0  0  0  0  0  0  0  0  0
   22.1830   14.1220    9.2100 S   0  0  0  0  0  6  0  0  0  0  0  0
   23.3950   13.9580    8.4320 O   0  0  0  0  0  0  0  0  0  0  0  0
   21.2170   13.0540    9.3780 O   0  0  0  0  0  0  0  0  0  0  0  0
   22.6150   14.7560   10.8070 C   0  0  0  0  0  0  0  0  0  0  0  0
   21.6880   14.6520   11.8650 C   0  0  0  0  0  0  0  0  0  0  0  0
   22.0000   15.1580   13.1360 C   0  0  0  0  0  0  0  0  0  0  0  0
   21.0180   15.0920   14.2140 C   0  0  0  0  0  0  0  0  0  0  0  0
   20.4340   13.9470   14.6010 C   0  0  0  0  0  0  0  0  0  0  0  0
   20.6190   12.5800   14.0250 C   0  0  0  0  0  0  0  0  0  0  0  0
   19.3020   11.9350   14.4000 C   0  0  0  0  0  0  0  0  0  0  0  0
   18.9570   12.4820   15.6780 O   0  0  0  0  0  0  0  0  0  0  0  0
   19.4050   13.8460   15.6850 C   0  0  0  0  0  0  0  0  0  0  0  0
   23.2420   15.7490   13.3160 C   0  0  0  0  0  0  0  0  0  0  0  0
   24.1440   15.8280   12.2550 C   0  0  0  0  0  0  0  0  0  0  0  0
   23.8700   15.3410   10.9920 C   0  0  0  0  0  0  0  0  0  0  0  0
   25.3470   16.5190   12.7280 C   0  0  0  0  0  0  0  0  0  0  0  0
   26.2970   16.8120   12.0290 O   0  0  0  0  0  0  0  0  0  0  0  0
   25.1650   16.7670   14.0780 N   0  0  0  0  0  0  0  0  0  0  0  0
   26.0280   17.6880   14.8110 C   0  0  2  0  0  0  0  0  0  0  0  0
   25.8190   17.6100   16.3200 C   0  0  0  0  0  0  0  0  0  0  0  0
   26.8080   18.5350   17.0140 C   0  0  0  0  0  0  0  0  0  0  0  0
   26.6880   19.9490   16.4970 C   0  0  0  0  0  0  0  0  0  0  0  0
   26.8340   20.9280   17.2230 O   0  0  0  0  0  0  0  0  0  0  0  0
   26.4230   20.0940   15.1590 N   0  0  0  0  0  0  0  0  0  0  0  0
   25.8360   19.1440   14.3540 C   0  0  0  0  0  0  0  0  0  0  0  0
   25.2010   19.4810   13.3570 O   0  0  0  0  0  0  0  0  0  0  0  0
   23.8290   16.3950   14.5290 C   0  0  0  0  0  0  0  0  0  0  0  0
   21.6850   15.9530    7.3100 C   0  0  0  0  0  0  0  0  0  0  0  0
   20.7430   16.7770    6.9020 N   0  0  0  0  0  0  0  0  0  0  0  0
   18.9260   19.5054    8.5155 H   0  0  0  0  0  0  0  0  0  0  0  0
   19.7645   19.1250    6.9731 H   0  0  0  0  0  0  0  0  0  0  0  0
   18.0054   19.4887    6.9731 H   0  0  0  0  0  0  0  0  0  0  0  0
   17.9172   17.4245    8.6456 H   0  0  0  0  0  0  0  0  0  0  0  0
   17.9760   17.1879    6.8449 H   0  0  0  0  0  0  0  0  0  0  0  0
   19.5244   15.5577    9.7560 H   0  0  0  0  0  0  0  0  0  0  0  0
   20.7139   14.1710   11.6925 H   0  0  0  0  0  0  0  0  0  0  0  0
   20.7442   16.0226   14.7327 H   0  0  0  0  0  0  0  0  0  0  0  0
   20.7566   12.6153   12.9342 H   0  0  0  0  0  0  0  0  0  0  0  0
   21.5085   12.0471   14.3921 H   0  0  0  0  0  0  0  0  0  0  0  0
   18.5291   12.1790   13.6563 H   0  0  0  0  0  0  0  0  0  0  0  0
   19.3802   10.8383   14.4336 H   0  0  0  0  0  0  0  0  0  0  0  0
   18.5648   14.5255   15.4792 H   0  0  0  0  0  0  0  0  0  0  0  0
   19.8206   14.1291   16.6633 H   0  0  0  0  0  0  0  0  0  0  0  0
   24.6022   15.4102   10.1740 H   0  0  0  0  0  0  0  0  0  0  0  0
   27.0557   17.3694   14.5822 H   0  0  0  0  0  0  0  0  0  0  0  0
   24.7923   17.9196   16.5651 H   0  0  0  0  0  0  0  0  0  0  0  0
   25.9798   16.5766   16.6610 H   0  0  0  0  0  0  0  0  0  0  0  0
   26.6061   18.5299   18.0953 H   0  0  0  0  0  0  0  0  0  0  0  0
   27.8264   18.1739   16.8081 H   0  0  0  0  0  0  0  0  0  0  0  0
   26.6850   20.9882   14.7200 H   0  0  0  0  0  0  0  0  0  0  0  0
   23.8767   15.6887   15.3710 H   0  0  0  0  0  0  0  0  0  0  0  0
   23.2396   17.2470   14.8988 H   0  0  0  0  0  0  0  0  0  0  0  0
   22.6172   15.7467    6.7637 H   0  0  0  0  0  0  0  0  0  0  0  0
  1  2  1  0
  2  3  1  0
  3  4  2  0
  4  5  1  0
  5  6  1  0
  6  7  2  0
  6  8  2  0
  6  9  1  0
  9 10  2  0
 10 11  1  0
 11 12  1  0
 12 13  2  0
 13 14  1  0
 14 15  1  0
 15 16  1  0
 16 17  1  0
 11 18  2  0
 18 19  1  0
 19 20  2  0
 19 21  1  0
 21 22  2  0
 21 23  1  0
 23 24  1  0
 24 25  1  0
 25 26  1  0
 26 27  1  0
 27 28  2  0
 27 29  1  0
 29 30  1  0
 30 31  2  0
 23 32  1  0
  5 33  1  0
 33 34  2  0
 34  3  1  0
 20  9  1  0
 30 24  1  0
 17 13  1  0
 32 18  1  0
  1 35  1  0
  1 36  1  0
  1 37  1  0
  2 38  1  0
  2 39  1  0
  4 40  1  0
 10 41  1  0
 12 42  1  0
 14 43  1  0
 14 44  1  0
 15 45  1  0
 15 46  1  0
 17 47  1  0
 17 48  1  0
 20 49  1  0
 24 50  1  1
 25 51  1  0
 25 52  1  0
 26 53  1  0
 26 54  1  0
 29 55  1  0
 32 56  1  0
 32 57  1  0
 33 58  1  0
M  END
>  <meeko>  (273) 
{"is_sidechain": [true], "free_energy": -11.0, "intermolecular_energy": 0.0, "internal_energy": -11.0, "cluster_size": 17, "cluster_id": 1, "rank_in_cluster": 1}

>  <_RMSD_MCS_to_ref>  (273) 
1.9596676305491763

$$$$
ligand
     RDKit          3D

 54 58  0  0  0  0  0  0  0  0999 V2000
   18.7970   18.8170    7.7190 C   0  0  0  0  0  0  0  0  0  0  0  0
   18.5280   17.3290    7.8810 C   0  0  0  0  0  0  0  0  0  0  0  0
   19.7470   16.5120    7.6390 C   0  0  0  0  0  0  0  0  0  0  0  0
   20.7630   16.1830    8.5170 C   0  0  0  0  0  0  0  0  0  0  0  0
   21.5880   15.3780    7.7840 N   0  0  0  0  0  0  0  0  0  0  0  0
   23.0520   14.7440    8.2930 S   0  0  0  0  0  6  0  0  0  0  0  0
   24.0280   15.5450    7.5700 O   0  0  0  0  0  0  0  0  0  0  0  0
   22.9920   13.3070    8.1200 O   0  0  0  0  0  0  0  0  0  0  0  0
   23.2790   15.1020   10.0310 C   0  0  0  0  0  0  0  0  0  0  0  0
   24.4710   15.8060   10.3300 C   0  0  0  0  0  0  0  0  0  0  0  0
   24.7280   16.1650   11.6370 C   0  0  0  0  0  0  0  0  0  0  0  0
   23.8240   15.8320   12.6320 C   0  0  0  0  0  0  0  0  0  0  0  0
   22.6520   15.1410   12.3780 C   0  0  0  0  0  0  0  0  0  0  0  0
   22.3480   14.7520   11.0520 C   0  0  0  0  0  0  0  0  0  0  0  0
   21.1180   13.9780   10.8340 C   0  0  0  0  0  0  0  0  0  0  0  0
   21.1090   12.6060   10.5790 C   0  0  0  0  0  0  0  0  0  0  0  0
   19.9750   11.8960   10.3630 N   0  0  0  0  0  0  0  0  0  0  0  0
   18.8320   12.6130   10.4050 C   0  0  0  0  0  0  0  0  0  0  0  0
   18.8270   13.9740   10.6450 C   0  0  0  0  0  0  0  0  0  0  0  0
   19.9630   14.6800   10.8710 N   0  0  0  0  0  0  0  0  0  0  0  0
   24.3380   16.3380   13.9080 C   0  0  0  0  0  0  0  0  0  0  0  0
   23.7310   16.2840   14.9600 O   0  0  0  0  0  0  0  0  0  0  0  0
   25.5840   16.8870   13.6470 N   0  0  0  0  0  0  0  0  0  0  0  0
   26.3270   17.7160   14.5920 C   0  0  2  0  0  0  0  0  0  0  0  0
   25.8660   17.5660   16.0410 C   0  0  0  0  0  0  0  0  0  0  0  0
   26.7430   18.4230   16.9390 C   0  0  0  0  0  0  0  0  0  0  0  0
   26.7260   19.8700   16.5040 C   0  0  0  0  0  0  0  0  0  0  0  0
   26.9800   20.7880   17.2780 O   0  0  0  0  0  0  0  0  0  0  0  0
   26.4910   20.1110   15.1740 N   0  0  0  0  0  0  0  0  0  0  0  0
   26.2980   19.1930   14.1680 C   0  0  0  0  0  0  0  0  0  0  0  0
   26.2090   19.5610   12.9970 O   0  0  0  0  0  0  0  0  0  0  0  0
   25.8760   16.9190   12.2210 C   0  0  0  0  0  0  0  0  0  0  0  0
   21.1430   15.3370    6.5020 C   0  0  0  0  0  0  0  0  0  0  0  0
   19.9990   15.9790    6.3890 N   0  0  0  0  0  0  0  0  0  0  0  0
   18.8815   19.2845    8.7111 H   0  0  0  0  0  0  0  0  0  0  0  0
   19.7359   18.9616    7.1643 H   0  0  0  0  0  0  0  0  0  0  0  0
   17.9682   19.2812    7.1643 H   0  0  0  0  0  0  0  0  0  0  0  0
   18.1728   17.1419    8.9051 H   0  0  0  0  0  0  0  0  0  0  0  0
   17.7713   17.0380    7.1376 H   0  0  0  0  0  0  0  0  0  0  0  0
   20.8801   16.4972    9.5647 H   0  0  0  0  0  0  0  0  0  0  0  0
   25.1821   16.0630    9.5311 H   0  0  0  0  0  0  0  0  0  0  0  0
   21.9629   14.8964   13.1998 H   0  0  0  0  0  0  0  0  0  0  0  0
   22.0713   12.0737   10.5519 H   0  0  0  0  0  0  0  0  0  0  0  0
   17.8739   12.0975   10.2430 H   0  0  0  0  0  0  0  0  0  0  0  0
   17.8640   14.5056   10.6531 H   0  0  0  0  0  0  0  0  0  0  0  0
   27.3629   17.3474   14.5604 H   0  0  0  0  0  0  0  0  0  0  0  0
   24.8194   17.8930   16.1293 H   0  0  0  0  0  0  0  0  0  0  0  0
   25.9458   16.5120   16.3456 H   0  0  0  0  0  0  0  0  0  0  0  0
   26.3722   18.3551   17.9724 H   0  0  0  0  0  0  0  0  0  0  0  0
   27.7764   18.0522   16.8712 H   0  0  0  0  0  0  0  0  0  0  0  0
   26.4546   21.1016   14.8943 H   0  0  0  0  0  0  0  0  0  0  0  0
   25.9052   17.9522   11.8447 H   0  0  0  0  0  0  0  0  0  0  0  0
   26.8564   16.4907   11.9653 H   0  0  0  0  0  0  0  0  0  0  0  0
   21.6655   14.8370    5.6731 H   0  0  0  0  0  0  0  0  0  0  0  0
  1  2  1  0
  2  3  1  0
  3  4  2  0
  4  5  1  0
  5  6  1  0
  6  7  2  0
  6  8  2  0
  6  9  1  0
  9 10  2  0
 10 11  1  0
 11 12  2  0
 12 13  1  0
 13 14  2  0
 14 15  1  0
 15 16  2  0
 16 17  1  0
 17 18  2  0
 18 19  1  0
 19 20  2  0
 12 21  1  0
 21 22  2  0
 21 23  1  0
 23 24  1  0
 24 25  1  0
 25 26  1  0
 26 27  1  0
 27 28  2  0
 27 29  1  0
 29 30  1  0
 30 31  2  0
 23 32  1  0
  5 33  1  0
 33 34  2  0
 34  3  1  0
 14  9  1  0
 20 15  1  0
 30 24  1  0
 32 11  1  0
  1 35  1  0
  1 36  1  0
  1 37  1  0
  2 38  1  0
  2 39  1  0
  4 40  1  0
 10 41  1  0
 13 42  1  0
 16 43  1  0
 18 44  1  0
 19 45  1  0
 24 46  1  1
 25 47  1  0
 25 48  1  0
 26 49  1  0
 26 50  1  0
 29 51  1  0
 32 52  1  0
 32 53  1  0
 33 54  1  0
M  END
>  <meeko>  (274) 
{"is_sidechain": [true], "free_energy": -11.0, "intermolecular_energy": 0.0, "internal_energy": -11.0, "cluster_size": 13, "cluster_id": 1, "rank_in_cluster": 1}

>  <_RMSD_MCS_to_ref>  (274) 
0.9202944577084492

$$$$
ligand
     RDKit          3D

 60 64  0  0  0  0  0  0  0  0999 V2000
   18.7970   18.8170    7.7190 C   0  0  0  0  0  0  0  0  0  0  0  0
   18.5280   17.3290    7.8810 C   0  0  0  0  0  0  0  0  0  0  0  0
   19.7750   16.5210    7.8010 C   0  0  0  0  0  0  0  0  0  0  0  0
   20.3710   15.7440    8.7750 C   0  0  0  0  0  0  0  0  0  0  0  0
   21.4890   15.2460    8.1690 N   0  0  0  0  0  0  0  0  0  0  0  0
   22.4970   14.0530    8.7880 S   0  0  0  0  0  6  0  0  0  0  0  0
   23.6980   14.0820    7.9760 O   0  0  0  0  0  0  0  0  0  0  0  0
   21.6700   12.8680    8.9110 O   0  0  0  0  0  0  0  0  0  0  0  0
   22.8950   14.6470   10.4060 C   0  0  0  0  0  0  0  0  0  0  0  0
   24.1000   15.3010   10.6270 C   0  0  0  0  0  0  0  0  0  0  0  0
   24.3340   15.7220   11.9200 C   0  0  0  0  0  0  0  0  0  0  0  0
   23.4350   15.5330   12.9820 C   0  0  0  0  0  0  0  0  0  0  0  0
   22.2100   14.9090   12.7690 C   0  0  0  0  0  0  0  0  0  0  0  0
   21.2200   14.6840   13.7190 N   0  0  0  0  0  0  0  0  0  0  0  0
   19.9120   14.1310   13.3320 C   0  0  0  0  0  0  0  0  0  0  0  0
   18.8920   14.3050   14.4820 C   0  0  0  0  0  0  0  0  0  0  0  0
   19.3410   13.7050   15.7540 N   0  0  0  0  0  0  0  0  0  0  0  0
   20.6500   14.2880   16.1140 C   0  0  0  0  0  0  0  0  0  0  0  0
   21.7240   14.1460   15.0090 C   0  0  0  0  0  0  0  0  0  0  0  0
   21.9640   14.4670   11.4500 C   0  0  0  0  0  0  0  0  0  0  0  0
   24.0160   16.1640   14.2100 C   0  0  0  0  0  0  0  0  0  0  0  0
   25.3230   16.6320   13.7710 N   0  0  0  0  0  0  0  0  0  0  0  0
   26.1580   17.5410   14.5480 C   0  0  2  0  0  0  0  0  0  0  0  0
   25.9490   17.3860   16.0510 C   0  0  0  0  0  0  0  0  0  0  0  0
   26.9110   18.3030   16.7920 C   0  0  0  0  0  0  0  0  0  0  0  0
   26.7520   19.7360   16.3420 C   0  0  0  0  0  0  0  0  0  0  0  0
   26.8480   20.6820   17.1160 O   0  0  0  0  0  0  0  0  0  0  0  0
   26.5040   19.9350   15.0080 N   0  0  0  0  0  0  0  0  0  0  0  0
   25.9310   19.0130   14.1620 C   0  0  0  0  0  0  0  0  0  0  0  0
   25.2760   19.3840   13.1900 O   0  0  0  0  0  0  0  0  0  0  0  0
   25.5070   16.4510   12.4130 C   0  0  0  0  0  0  0  0  0  0  0  0
   26.4420   16.8130   11.7270 O   0  0  0  0  0  0  0  0  0  0  0  0
   21.5250   15.6730    6.8810 C   0  0  0  0  0  0  0  0  0  0  0  0
   20.5000   16.4610    6.6270 N   0  0  0  0  0  0  0  0  0  0  0  0
   18.8815   19.2845    8.7111 H   0  0  0  0  0  0  0  0  0  0  0  0
   19.7359   18.9616    7.1643 H   0  0  0  0  0  0  0  0  0  0  0  0
   17.9682   19.2812    7.1643 H   0  0  0  0  0  0  0  0  0  0  0  0
   18.0575   17.1585    8.8606 H   0  0  0  0  0  0  0  0  0  0  0  0
   17.8676   17.0136    7.0598 H   0  0  0  0  0  0  0  0  0  0  0  0
   20.0244   15.5668    9.8038 H   0  0  0  0  0  0  0  0  0  0  0  0
   24.8256   15.4733    9.8184 H   0  0  0  0  0  0  0  0  0  0  0  0
   19.5452   14.6585   12.4391 H   0  0  0  0  0  0  0  0  0  0  0  0
   20.0274   13.0585   13.1163 H   0  0  0  0  0  0  0  0  0  0  0  0
   18.7260   15.3805   14.6422 H   0  0  0  0  0  0  0  0  0  0  0  0
   17.9703   13.7845   14.1827 H   0  0  0  0  0  0  0  0  0  0  0  0
   18.6550   13.9084   16.4949 H   0  0  0  0  0  0  0  0  0  0  0  0
   20.5069   15.3585   16.3226 H   0  0  0  0  0  0  0  0  0  0  0  0
   21.0171   13.7329   16.9898 H   0  0  0  0  0  0  0  0  0  0  0  0
   22.6246   14.7034   15.3062 H   0  0  0  0  0  0  0  0  0  0  0  0
   21.9621   13.0798   14.8802 H   0  0  0  0  0  0  0  0  0  0  0  0
   21.0111   13.9638   11.2290 H   0  0  0  0  0  0  0  0  0  0  0  0
   23.3930   17.0036   14.5520 H   0  0  0  0  0  0  0  0  0  0  0  0
   24.0753   15.4682   15.0599 H   0  0  0  0  0  0  0  0  0  0  0  0
   27.1934   17.2609   14.3043 H   0  0  0  0  0  0  0  0  0  0  0  0
   24.9139   17.6557   16.3074 H   0  0  0  0  0  0  0  0  0  0  0  0
   26.1379   16.3423   16.3426 H   0  0  0  0  0  0  0  0  0  0  0  0
   26.7074   18.2407   17.8712 H   0  0  0  0  0  0  0  0  0  0  0  0
   27.9396   17.9803   16.5733 H   0  0  0  0  0  0  0  0  0  0  0  0
   26.7674   20.8467   14.6075 H   0  0  0  0  0  0  0  0  0  0  0  0
   22.3013   15.3994    6.1513 H   0  0  0  0  0  0  0  0  0  0  0  0
  1  2  1  0
  2  3  1  0
  3  4  2  0
  4  5  1  0
  5  6  1  0
  6  7  2  0
  6  8  2  0
  6  9  1  0
  9 10  2  0
 10 11  1  0
 11 12  2  0
 12 13  1  0
 13 14  1  0
 14 15  1  0
 15 16  1  0
 16 17  1  0
 17 18  1  0
 18 19  1  0
 13 20  2  0
 12 21  1  0
 21 22  1  0
 22 23  1  0
 23 24  1  0
 24 25  1  0
 25 26  1  0
 26 27  2  0
 26 28  1  0
 28 29  1  0
 29 30  2  0
 22 31  1  0
 31 32  2  0
  5 33  1  0
 33 34  2  0
 34  3  1  0
 20  9  1  0
 29 23  1  0
 31 11  1  0
 19 14  1  0
  1 35  1  0
  1 36  1  0
  1 37  1  0
  2 38  1  0
  2 39  1  0
  4 40  1  0
 10 41  1  0
 15 42  1  0
 15 43  1  0
 16 44  1  0
 16 45  1  0
 17 46  1  0
 18 47  1  0
 18 48  1  0
 19 49  1  0
 19 50  1  0
 20 51  1  0
 21 52  1  0
 21 53  1  0
 23 54  1  1
 24 55  1  0
 24 56  1  0
 25 57  1  0
 25 58  1  0
 28 59  1  0
 33 60  1  0
M  END
>  <meeko>  (275) 
{"is_sidechain": [true], "free_energy": -11.0, "intermolecular_energy": 0.0, "internal_energy": -11.0, "cluster_size": 18, "cluster_id": 1, "rank_in_cluster": 1}

>  <_RMSD_MCS_to_ref>  (275) 
1.9833683470298704

$$$$
ligand
     RDKit          3D

 49 52  0  0  0  0  0  0  0  0999 V2000
   18.7970   18.8170    7.7190 C   0  0  0  0  0  0  0  0  0  0  0  0
   18.5280   17.3290    7.8810 C   0  0  0  0  0  0  0  0  0  0  0  0
   19.7850   16.5340    7.9310 C   0  0  0  0  0  0  0  0  0  0  0  0
   20.5510   16.1890    9.0270 C   0  0  0  0  0  0  0  0  0  0  0  0
   21.5880   15.4750    8.4990 N   0  0  0  0  0  0  0  0  0  0  0  0
   22.7370   14.6200    9.3770 S   0  0  0  0  0  6  0  0  0  0  0  0
   23.7610   15.5900    9.7220 O   0  0  0  0  0  0  0  0  0  0  0  0
   23.0220   13.4220    8.6120 O   0  0  0  0  0  0  0  0  0  0  0  0
   21.8790   14.1650   10.8590 C   0  0  0  0  0  0  0  0  0  0  0  0
   20.6530   13.4900   10.7560 C   0  0  0  0  0  0  0  0  0  0  0  0
   19.9390   13.1300   11.8980 C   0  0  0  0  0  0  0  0  0  0  0  0
   20.4330   13.4300   13.1720 C   0  0  0  0  0  0  0  0  0  0  0  0
   21.6710   14.0880   13.3000 C   0  0  0  0  0  0  0  0  0  0  0  0
   22.4480   14.5220   14.4100 C   0  0  0  0  0  0  0  0  0  0  0  0
   23.6040   15.1180   13.9320 C   0  0  0  0  0  0  0  0  0  0  0  0
   24.7350   15.7260   14.5950 C   0  0  0  0  0  0  0  0  0  0  0  0
   25.7050   15.0750   14.9690 O   0  0  0  0  0  0  0  0  0  0  0  0
   24.6590   17.0850   14.7670 N   0  0  0  0  0  0  0  0  0  0  0  0
   25.7780   17.8550   15.2850 C   0  0  2  0  0  0  0  0  0  0  0  0
   25.8500   17.8180   16.8080 C   0  0  0  0  0  0  0  0  0  0  0  0
   27.0160   18.6730   17.2810 C   0  0  0  0  0  0  0  0  0  0  0  0
   26.9120   20.0850   16.7550 C   0  0  0  0  0  0  0  0  0  0  0  0
   27.2960   21.0580   17.3950 O   0  0  0  0  0  0  0  0  0  0  0  0
   26.3840   20.2340   15.4970 N   0  0  0  0  0  0  0  0  0  0  0  0
   25.6200   19.3090   14.8300 C   0  0  0  0  0  0  0  0  0  0  0  0
   24.8660   19.6440   13.9170 O   0  0  0  0  0  0  0  0  0  0  0  0
   23.5410   15.0370   12.5570 N   0  0  0  0  0  0  0  0  0  0  0  0
   22.3710   14.4350   12.1470 C   0  0  0  0  0  0  0  0  0  0  0  0
   21.4180   15.3680    7.1560 C   0  0  0  0  0  0  0  0  0  0  0  0
   20.3330   16.0120    6.7760 N   0  0  0  0  0  0  0  0  0  0  0  0
   18.8815   19.2845    8.7111 H   0  0  0  0  0  0  0  0  0  0  0  0
   19.7359   18.9616    7.1643 H   0  0  0  0  0  0  0  0  0  0  0  0
   17.9682   19.2812    7.1643 H   0  0  0  0  0  0  0  0  0  0  0  0
   17.9701   17.1693    8.8155 H   0  0  0  0  0  0  0  0  0  0  0  0
   17.9496   16.9928    7.0078 H   0  0  0  0  0  0  0  0  0  0  0  0
   20.3676   16.4335   10.0837 H   0  0  0  0  0  0  0  0  0  0  0  0
   20.2507   13.2421    9.7627 H   0  0  0  0  0  0  0  0  0  0  0  0
   18.9778   12.6049   11.7963 H   0  0  0  0  0  0  0  0  0  0  0  0
   19.8578   13.1535   14.0680 H   0  0  0  0  0  0  0  0  0  0  0  0
   22.1767   14.4042   15.4695 H   0  0  0  0  0  0  0  0  0  0  0  0
   23.7855   17.5729   14.5225 H   0  0  0  0  0  0  0  0  0  0  0  0
   26.7063   17.4105   14.8969 H   0  0  0  0  0  0  0  0  0  0  0  0
   24.9127   18.2107   17.2291 H   0  0  0  0  0  0  0  0  0  0  0  0
   25.9961   16.7806   17.1433 H   0  0  0  0  0  0  0  0  0  0  0  0
   27.0174   18.6998   18.3807 H   0  0  0  0  0  0  0  0  0  0  0  0
   27.9478   18.2292   16.9005 H   0  0  0  0  0  0  0  0  0  0  0  0
   26.5786   21.1201   15.0092 H   0  0  0  0  0  0  0  0  0  0  0  0
   24.2729   15.3815   11.9194 H   0  0  0  0  0  0  0  0  0  0  0  0
   22.0915   14.8206    6.4802 H   0  0  0  0  0  0  0  0  0  0  0  0
  1  2  1  0
  2  3  1  0
  3  4  2  0
  4  5  1  0
  5  6  1  0
  6  7  2  0
  6  8  2  0
  6  9  1  0
  9 10  2  0
 10 11  1  0
 11 12  2  0
 12 13  1  0
 13 14  1  0
 14 15  2  0
 15 16  1  0
 16 17  2  0
 16 18  1  0
 18 19  1  0
 19 20  1  0
 20 21  1  0
 21 22  1  0
 22 23  2  0
 22 24  1  0
 24 25  1  0
 25 26  2  0
 15 27  1  0
 27 28  1  0
  5 29  1  0
 29 30  2  0
 30  3  1  0
 28  9  1  0
 28 13  2  0
 25 19  1  0
  1 31  1  0
  1 32  1  0
  1 33  1  0
  2 34  1  0
  2 35  1  0
  4 36  1  0
 10 37  1  0
 11 38  1  0
 12 39  1  0
 14 40  1  0
 18 41  1  0
 19 42  1  6
 20 43  1  0
 20 44  1  0
 21 45  1  0
 21 46  1  0
 24 47  1  0
 27 48  1  0
 29 49  1  0
M  END
>  <meeko>  (276) 
{"is_sidechain": [true], "free_energy": -11.0, "intermolecular_energy": 0.0, "internal_energy": -11.0, "cluster_size": 16, "cluster_id": 1, "rank_in_cluster": 1}

>  <_RMSD_MCS_to_ref>  (276) 
0.612067704588307

$$$$
ligand
     RDKit          3D

 46 49  0  0  0  0  0  0  0  0999 V2000
   18.7970   18.8170    7.7190 C   0  0  0  0  0  0  0  0  0  0  0  0
   18.5280   17.3290    7.8810 C   0  0  0  0  0  0  0  0  0  0  0  0
   19.7730   16.5190    7.7950 C   0  0  0  0  0  0  0  0  0  0  0  0
   20.3500   15.7080    8.7520 C   0  0  0  0  0  0  0  0  0  0  0  0
   21.4790   15.2310    8.1490 N   0  0  0  0  0  0  0  0  0  0  0  0
   22.5390   14.1110    8.8110 S   0  0  0  0  0  6  0  0  0  0  0  0
   23.3990   13.7230    7.7070 O   0  0  0  0  0  0  0  0  0  0  0  0
   21.7410   13.1490    9.5400 O   0  0  0  0  0  0  0  0  0  0  0  0
   23.5200   14.9900    9.9620 C   0  0  0  0  0  0  0  0  0  0  0  0
   24.8080   15.4500    9.6150 C   0  0  0  0  0  0  0  0  0  0  0  0
   25.6340   16.1540   10.5270 C   0  0  0  0  0  0  0  0  0  0  0  0
   25.2470   16.4550   11.8550 C   0  0  0  0  0  0  0  0  0  0  0  0
   26.1570   17.1930   12.7530 C   0  0  0  0  0  0  0  0  0  0  0  0
   27.1720   17.7050   12.2930 O   0  0  0  0  0  0  0  0  0  0  0  0
   25.8180   17.2800   14.0810 N   0  0  0  0  0  0  0  0  0  0  0  0
   26.5980   18.0700   15.0220 C   0  0  2  0  0  0  0  0  0  0  0  0
   26.1520   17.8450   16.4630 C   0  0  0  0  0  0  0  0  0  0  0  0
   26.9880   18.7080   17.3950 C   0  0  0  0  0  0  0  0  0  0  0  0
   26.9140   20.1660   17.0050 C   0  0  0  0  0  0  0  0  0  0  0  0
   26.9600   21.0720   17.8320 O   0  0  0  0  0  0  0  0  0  0  0  0
   26.8230   20.4400   15.6640 N   0  0  0  0  0  0  0  0  0  0  0  0
   26.4510   19.5570   14.6800 C   0  0  0  0  0  0  0  0  0  0  0  0
   26.0410   19.9580   13.5920 O   0  0  0  0  0  0  0  0  0  0  0  0
   23.9640   15.9930   12.2160 C   0  0  0  0  0  0  0  0  0  0  0  0
   23.2950   16.0980   13.3740 N   0  0  0  0  0  0  0  0  0  0  0  0
   22.0820   15.4680   13.1810 O   0  0  0  0  0  0  0  0  0  0  0  0
   21.9710   14.9590   11.9040 N   0  0  0  0  0  0  0  0  0  0  0  0
   23.1100   15.2650   11.2740 C   0  0  0  0  0  0  0  0  0  0  0  0
   21.5500   15.7180    6.8840 C   0  0  0  0  0  0  0  0  0  0  0  0
   20.5270   16.5100    6.6390 N   0  0  0  0  0  0  0  0  0  0  0  0
   18.8815   19.2845    8.7111 H   0  0  0  0  0  0  0  0  0  0  0  0
   19.7359   18.9616    7.1643 H   0  0  0  0  0  0  0  0  0  0  0  0
   17.9682   19.2812    7.1643 H   0  0  0  0  0  0  0  0  0  0  0  0
   18.0617   17.1583    8.8626 H   0  0  0  0  0  0  0  0  0  0  0  0
   17.8643   17.0152    7.0618 H   0  0  0  0  0  0  0  0  0  0  0  0
   19.9843   15.4949    9.7673 H   0  0  0  0  0  0  0  0  0  0  0  0
   25.1848   15.2553    8.6001 H   0  0  0  0  0  0  0  0  0  0  0  0
   26.6264   16.4832   10.1853 H   0  0  0  0  0  0  0  0  0  0  0  0
   24.9887   16.7721   14.4204 H   0  0  0  0  0  0  0  0  0  0  0  0
   27.6477   17.7524   14.9367 H   0  0  0  0  0  0  0  0  0  0  0  0
   25.0911   18.1172   16.5649 H   0  0  0  0  0  0  0  0  0  0  0  0
   26.2866   16.7855   16.7264 H   0  0  0  0  0  0  0  0  0  0  0  0
   26.6137   18.5923   18.4229 H   0  0  0  0  0  0  0  0  0  0  0  0
   28.0361   18.3818   17.3242 H   0  0  0  0  0  0  0  0  0  0  0  0
   27.0556   21.3984   15.3670 H   0  0  0  0  0  0  0  0  0  0  0  0
   22.3491   15.4841    6.1652 H   0  0  0  0  0  0  0  0  0  0  0  0
  1  2  1  0
  2  3  1  0
  3  4  2  0
  4  5  1  0
  5  6  1  0
  6  7  2  0
  6  8  2  0
  6  9  1  0
  9 10  2  0
 10 11  1  0
 11 12  2  0
 12 13  1  0
 13 14  2  0
 13 15  1  0
 15 16  1  0
 16 17  1  0
 17 18  1  0
 18 19  1  0
 19 20  2  0
 19 21  1  0
 21 22  1  0
 22 23  2  0
 12 24  1  0
 24 25  2  0
 25 26  1  0
 26 27  1  0
 27 28  2  0
  5 29  1  0
 29 30  2  0
 30  3  1  0
 28  9  1  0
 22 16  1  0
 28 24  1  0
  1 31  1  0
  1 32  1  0
  1 33  1  0
  2 34  1  0
  2 35  1  0
  4 36  1  0
 10 37  1  0
 11 38  1  0
 15 39  1  0
 16 40  1  1
 17 41  1  0
 17 42  1  0
 18 43  1  0
 18 44  1  0
 21 45  1  0
 29 46  1  0
M  END
>  <meeko>  (277) 
{"is_sidechain": [true], "free_energy": -11.0, "intermolecular_energy": 0.0, "internal_energy": -11.0, "cluster_size": 19, "cluster_id": 1, "rank_in_cluster": 1}

>  <_RMSD_MCS_to_ref>  (277) 
0.9657280500568812

$$$$
ligand
     RDKit          3D

 56 60  0  0  0  0  0  0  0  0999 V2000
   18.9090   19.1540    7.5370 C   0  0  0  0  0  0  0  0  0  0  0  0
   18.7730   17.6460    7.6780 C   0  0  0  0  0  0  0  0  0  0  0  0
   19.9300   16.9180    7.0910 C   0  0  0  0  0  0  0  0  0  0  0  0
   21.1220   16.5660    7.6890 C   0  0  0  0  0  0  0  0  0  0  0  0
   21.8070   15.8970    6.7140 N   0  0  0  0  0  0  0  0  0  0  0  0
   23.1870   14.9440    6.9410 S   0  0  0  0  0  6  0  0  0  0  0  0
   22.6860   13.7440    7.5880 O   0  0  0  0  0  0  0  0  0  0  0  0
   23.8230   14.8820    5.6370 O   0  0  0  0  0  0  0  0  0  0  0  0
   24.1880   15.7070    7.9940 O   0  0  0  0  0  0  0  0  0  0  0  0
   23.9720   15.5390    9.3360 C   0  0  0  0  0  0  0  0  0  0  0  0
   23.1310   16.4570    9.9800 C   0  0  0  0  0  0  0  0  0  0  0  0
   22.9850   16.4170   11.3670 C   0  0  0  0  0  0  0  0  0  0  0  0
   23.6660   15.4370   12.0760 C   0  0  0  0  0  0  0  0  0  0  0  0
   24.4470   14.4800   11.4110 C   0  0  0  0  0  0  0  0  0  0  0  0
   24.6080   14.5140   10.0370 C   0  0  0  0  0  0  0  0  0  0  0  0
   25.1050   13.5470   12.3810 C   0  0  0  0  0  0  0  0  0  0  0  0
   24.2730   13.7910   13.6510 C   0  0  0  0  0  0  0  0  0  0  0  0
   23.7670   15.2440   13.5720 C   0  0  2  0  0  0  0  0  0  0  0  0
   22.4890   15.4990   14.3570 C   0  0  0  0  0  0  0  0  0  0  0  0
   22.7010   16.8730   14.9300 C   0  0  0  0  0  0  0  0  0  0  0  0
   21.8340   17.5150   15.5020 O   0  0  0  0  0  0  0  0  0  0  0  0
   24.0100   17.2310   14.7740 N   0  0  0  0  0  0  0  0  0  0  0  0
   24.6370   18.3700   15.4300 C   0  0  1  0  0  0  0  0  0  0  0  0
   25.6220   18.0030   16.5360 C   0  0  0  0  0  0  0  0  0  0  0  0
   26.1660   19.2790   17.1630 C   0  0  0  0  0  0  0  0  0  0  0  0
   26.8000   20.1750   16.1230 C   0  0  0  0  0  0  0  0  0  0  0  0
   27.7090   20.9530   16.3950 O   0  0  0  0  0  0  0  0  0  0  0  0
   26.2730   20.1190   14.8570 N   0  0  0  0  0  0  0  0  0  0  0  0
   25.3230   19.2450   14.3780 C   0  0  0  0  0  0  0  0  0  0  0  0
   25.0310   19.2290   13.1820 O   0  0  0  0  0  0  0  0  0  0  0  0
   24.7400   16.2390   14.1770 C   0  0  0  0  0  0  0  0  0  0  0  0
   25.9590   16.1900   14.1040 O   0  0  0  0  0  0  0  0  0  0  0  0
   21.0400   15.8450    5.5940 C   0  0  0  0  0  0  0  0  0  0  0  0
   19.8930   16.4630    5.7860 N   0  0  0  0  0  0  0  0  0  0  0  0
   18.9504   19.6134    8.5356 H   0  0  0  0  0  0  0  0  0  0  0  0
   19.8320   19.3891    6.9867 H   0  0  0  0  0  0  0  0  0  0  0  0
   18.0430   19.5504    6.9867 H   0  0  0  0  0  0  0  0  0  0  0  0
   18.7026   17.3955    8.7468 H   0  0  0  0  0  0  0  0  0  0  0  0
   17.8690   17.3370    7.1328 H   0  0  0  0  0  0  0  0  0  0  0  0
   21.4477   16.7763    8.7184 H   0  0  0  0  0  0  0  0  0  0  0  0
   22.5857   17.2095    9.3914 H   0  0  0  0  0  0  0  0  0  0  0  0
   22.3450   17.1453   11.8867 H   0  0  0  0  0  0  0  0  0  0  0  0
   25.2159   13.7596    9.5160 H   0  0  0  0  0  0  0  0  0  0  0  0
   25.0312   12.5017   12.0466 H   0  0  0  0  0  0  0  0  0  0  0  0
   26.1834   13.7209   12.5103 H   0  0  0  0  0  0  0  0  0  0  0  0
   23.4226   13.0942   13.6875 H   0  0  0  0  0  0  0  0  0  0  0  0
   24.8749   13.6288   14.5573 H   0  0  0  0  0  0  0  0  0  0  0  0
   21.6102   15.4795   13.6957 H   0  0  0  0  0  0  0  0  0  0  0  0
   22.2985   14.7370   15.1271 H   0  0  0  0  0  0  0  0  0  0  0  0
   23.8283   18.9200   15.9335 H   0  0  0  0  0  0  0  0  0  0  0  0
   25.1081   17.4057   17.3035 H   0  0  0  0  0  0  0  0  0  0  0  0
   26.4506   17.4154   16.1139 H   0  0  0  0  0  0  0  0  0  0  0  0
   25.3401   19.8207   17.6472 H   0  0  0  0  0  0  0  0  0  0  0  0
   26.9353   19.0034   17.8994 H   0  0  0  0  0  0  0  0  0  0  0  0
   26.6306   20.8133   14.1854 H   0  0  0  0  0  0  0  0  0  0  0  0
   21.3364   15.3540    4.6553 H   0  0  0  0  0  0  0  0  0  0  0  0
  1  2  1  0
  2  3  1  0
  3  4  2  0
  4  5  1  0
  5  6  1  0
  6  7  2  0
  6  8  2  0
  6  9  1  0
  9 10  1  0
 10 11  2  0
 11 12  1  0
 12 13  2  0
 13 14  1  0
 14 15  2  0
 14 16  1  0
 16 17  1  0
 18 17  1  6
 18 19  1  0
 19 20  1  0
 20 21  2  0
 20 22  1  0
 22 23  1  0
 23 24  1  0
 24 25  1  0
 25 26  1  0
 26 27  2  0
 26 28  1  0
 28 29  1  0
 29 30  2  0
 22 31  1  0
 31 32  2  0
  5 33  1  0
 33 34  2  0
 34  3  1  0
 15 10  1  0
 31 18  1  0
 18 13  1  0
 29 23  1  0
  1 35  1  0
  1 36  1  0
  1 37  1  0
  2 38  1  0
  2 39  1  0
  4 40  1  0
 11 41  1  0
 12 42  1  0
 15 43  1  0
 16 44  1  0
 16 45  1  0
 17 46  1  0
 17 47  1  0
 19 48  1  0
 19 49  1  0
 23 50  1  1
 24 51  1  0
 24 52  1  0
 25 53  1  0
 25 54  1  0
 28 55  1  0
 33 56  1  0
M  END
>  <meeko>  (278) 
{"is_sidechain": [true], "free_energy": -11.0, "intermolecular_energy": 0.0, "internal_energy": -11.0, "cluster_size": 20, "cluster_id": 1, "rank_in_cluster": 1}

>  <_RMSD_MCS_to_ref>  (278) 
1.682569681568443

$$$$
ligand
     RDKit          3D

 52 55  0  0  0  0  0  0  0  0999 V2000
   18.9090   19.1540    7.5370 C   0  0  0  0  0  0  0  0  0  0  0  0
   18.7730   17.6460    7.6780 C   0  0  0  0  0  0  0  0  0  0  0  0
   20.0930   16.9600    7.6800 C   0  0  0  0  0  0  0  0  0  0  0  0
   21.0010   16.8260    8.7120 C   0  0  0  0  0  0  0  0  0  0  0  0
   22.0380   16.1310    8.1600 N   0  0  0  0  0  0  0  0  0  0  0  0
   23.3470   15.4840    8.9910 S   0  0  0  0  0  6  0  0  0  0  0  0
   24.3670   16.5140    8.9990 O   0  0  0  0  0  0  0  0  0  0  0  0
   23.5700   14.1730    8.4110 O   0  0  0  0  0  0  0  0  0  0  0  0
   22.7350   15.2840   10.6420 C   0  0  0  0  0  0  0  0  0  0  0  0
   21.5920   14.5120   10.8670 C   0  0  0  0  0  0  0  0  0  0  0  0
   21.1350   14.3980   12.1710 C   0  0  0  0  0  0  0  0  0  0  0  0
   21.8110   15.0040   13.2440 C   0  0  0  0  0  0  0  0  0  0  0  0
   22.9740   15.7380   13.0220 C   0  0  0  0  0  0  0  0  0  0  0  0
   23.7480   16.4060   14.0970 C   0  0  0  0  0  0  0  0  0  0  0  0
   24.0730   15.7780   15.0990 O   0  0  0  0  0  0  0  0  0  0  0  0
   24.0130   17.7420   13.9240 N   0  0  0  0  0  0  0  0  0  0  0  0
   24.6090   18.5390   14.9860 C   0  0  1  0  0  0  0  0  0  0  0  0
   25.7390   17.8010   15.6980 C   0  0  0  0  0  0  0  0  0  0  0  0
   26.3430   18.7050   16.7610 C   0  0  0  0  0  0  0  0  0  0  0  0
   26.8120   20.0120   16.1660 C   0  0  0  0  0  0  0  0  0  0  0  0
   27.8020   20.6090   16.5810 O   0  0  0  0  0  0  0  0  0  0  0  0
   26.0560   20.5280   15.1440 N   0  0  0  0  0  0  0  0  0  0  0  0
   25.1670   19.8260   14.3700 C   0  0  0  0  0  0  0  0  0  0  0  0
   24.8390   20.2260   13.2530 O   0  0  0  0  0  0  0  0  0  0  0  0
   23.4290   15.8890   11.7050 C   0  0  0  0  0  0  0  0  0  0  0  0
   21.0870   14.7160   14.5280 C   0  0  0  0  0  0  0  0  0  0  0  0
   19.7070   14.2820   14.0170 C   0  0  0  0  0  0  0  0  0  0  0  0
   19.9360   13.6370   12.6460 C   0  0  0  0  0  0  0  0  0  0  0  0
   21.7310   15.8250    6.8720 C   0  0  0  0  0  0  0  0  0  0  0  0
   20.5590   16.3260    6.5440 N   0  0  0  0  0  0  0  0  0  0  0  0
   18.9504   19.6134    8.5356 H   0  0  0  0  0  0  0  0  0  0  0  0
   19.8320   19.3891    6.9867 H   0  0  0  0  0  0  0  0  0  0  0  0
   18.0430   19.5504    6.9867 H   0  0  0  0  0  0  0  0  0  0  0  0
   18.2570   17.4238    8.6237 H   0  0  0  0  0  0  0  0  0  0  0  0
   18.2019   17.2764    6.8136 H   0  0  0  0  0  0  0  0  0  0  0  0
   20.9093   17.1954    9.7441 H   0  0  0  0  0  0  0  0  0  0  0  0
   21.0721   14.0113   10.0369 H   0  0  0  0  0  0  0  0  0  0  0  0
   23.7854   18.1892   13.0245 H   0  0  0  0  0  0  0  0  0  0  0  0
   23.8294   18.7534   15.7318 H   0  0  0  0  0  0  0  0  0  0  0  0
   25.3415   16.8917   16.1725 H   0  0  0  0  0  0  0  0  0  0  0  0
   26.5139   17.5244   14.9680 H   0  0  0  0  0  0  0  0  0  0  0  0
   25.5833   18.9127   17.5290 H   0  0  0  0  0  0  0  0  0  0  0  0
   27.2107   18.1922   17.2017 H   0  0  0  0  0  0  0  0  0  0  0  0
   26.1656   21.5316   14.9397 H   0  0  0  0  0  0  0  0  0  0  0  0
   24.3323   16.4830   11.5021 H   0  0  0  0  0  0  0  0  0  0  0  0
   21.5774   13.9092   15.0925 H   0  0  0  0  0  0  0  0  0  0  0  0
   21.0577   15.5670   15.2244 H   0  0  0  0  0  0  0  0  0  0  0  0
   19.2566   13.5551   14.7089 H   0  0  0  0  0  0  0  0  0  0  0  0
   19.0211   15.1389   13.9448 H   0  0  0  0  0  0  0  0  0  0  0  0
   20.1492   12.5616   12.7357 H   0  0  0  0  0  0  0  0  0  0  0  0
   19.0695   13.6868   11.9702 H   0  0  0  0  0  0  0  0  0  0  0  0
   22.3730   15.2398    6.1972 H   0  0  0  0  0  0  0  0  0  0  0  0
  1  2  1  0
  2  3  1  0
  3  4  2  0
  4  5  1  0
  5  6  1  0
  6  7  2  0
  6  8  2  0
  6  9  1  0
  9 10  2  0
 10 11  1  0
 11 12  2  0
 12 13  1  0
 13 14  1  0
 14 15  2  0
 14 16  1  0
 16 17  1  0
 17 18  1  0
 18 19  1  0
 19 20  1  0
 20 21  2  0
 20 22  1  0
 22 23  1  0
 23 24  2  0
 13 25  2  0
 12 26  1  0
 26 27  1  0
 27 28  1  0
  5 29  1  0
 29 30  2  0
 30  3  1  0
 25  9  1  0
 28 11  1  0
 23 17  1  0
  1 31  1  0
  1 32  1  0
  1 33  1  0
  2 34  1  0
  2 35  1  0
  4 36  1  0
 10 37  1  0
 16 38  1  0
 17 39  1  1
 18 40  1  0
 18 41  1  0
 19 42  1  0
 19 43  1  0
 22 44  1  0
 25 45  1  0
 26 46  1  0
 26 47  1  0
 27 48  1  0
 27 49  1  0
 28 50  1  0
 28 51  1  0
 29 52  1  0
M  END
>  <meeko>  (279) 
{"is_sidechain": [true], "free_energy": -11.0, "intermolecular_energy": 0.0, "internal_energy": -11.0, "cluster_size": 20, "cluster_id": 1, "rank_in_cluster": 1}

>  <_RMSD_MCS_to_ref>  (279) 
0.4234978682879575

$$$$
ligand
     RDKit          3D

 50 53  0  0  0  0  0  0  0  0999 V2000
   18.9090   19.1540    7.5370 C   0  0  0  0  0  0  0  0  0  0  0  0
   18.7730   17.6460    7.6780 C   0  0  0  0  0  0  0  0  0  0  0  0
   20.0520   16.9380    7.4000 C   0  0  0  0  0  0  0  0  0  0  0  0
   20.7920   16.1230    8.2330 C   0  0  0  0  0  0  0  0  0  0  0  0
   21.8630   15.7520    7.4720 N   0  0  0  0  0  0  0  0  0  0  0  0
   23.1200   14.7530    7.9670 S   0  0  0  0  0  6  0  0  0  0  0  0
   24.0240   14.7390    6.8280 O   0  0  0  0  0  0  0  0  0  0  0  0
   22.5240   13.5300    8.4700 O   0  0  0  0  0  0  0  0  0  0  0  0
   23.9550   15.5610    9.2990 C   0  0  0  0  0  0  0  0  0  0  0  0
   25.1550   16.2260    9.0030 C   0  0  0  0  0  0  0  0  0  0  0  0
   25.8380   16.8870   10.0100 C   0  0  0  0  0  0  0  0  0  0  0  0
   25.3260   16.8670   11.3040 C   0  0  0  0  0  0  0  0  0  0  0  0
   24.1300   16.1710   11.6180 C   0  0  0  0  0  0  0  0  0  0  0  0
   23.5650   16.1000   12.9160 C   0  0  0  0  0  0  0  0  0  0  0  0
   24.2090   16.6890   14.1110 C   0  0  0  0  0  0  0  0  0  0  0  0
   24.5310   15.9760   15.0530 O   0  0  0  0  0  0  0  0  0  0  0  0
   24.4560   18.0380   14.0520 N   0  0  0  0  0  0  0  0  0  0  0  0
   25.0150   18.7630   15.1840 C   0  0  1  0  0  0  0  0  0  0  0  0
   26.1490   17.9940   15.8490 C   0  0  0  0  0  0  0  0  0  0  0  0
   26.7100   18.8150   17.0000 C   0  0  0  0  0  0  0  0  0  0  0  0
   27.1510   20.1830   16.5340 C   0  0  0  0  0  0  0  0  0  0  0  0
   28.1110   20.7680   17.0260 O   0  0  0  0  0  0  0  0  0  0  0  0
   26.4030   20.7660   15.5420 N   0  0  0  0  0  0  0  0  0  0  0  0
   25.5410   20.1160   14.6940 C   0  0  0  0  0  0  0  0  0  0  0  0
   25.2120   20.6100   13.6160 O   0  0  0  0  0  0  0  0  0  0  0  0
   22.3460   15.4660   13.1430 C   0  0  0  0  0  0  0  0  0  0  0  0
   21.7390   14.8680   12.0690 C   0  0  0  0  0  0  0  0  0  0  0  0
   22.2640   14.8730   10.8260 N   0  0  0  0  0  0  0  0  0  0  0  0
   23.4210   15.5160   10.5850 C   0  0  0  0  0  0  0  0  0  0  0  0
   21.7620   16.3290    6.2470 C   0  0  0  0  0  0  0  0  0  0  0  0
   20.6650   17.0550    6.1670 N   0  0  0  0  0  0  0  0  0  0  0  0
   18.9504   19.6134    8.5356 H   0  0  0  0  0  0  0  0  0  0  0  0
   19.8320   19.3891    6.9867 H   0  0  0  0  0  0  0  0  0  0  0  0
   18.0430   19.5504    6.9867 H   0  0  0  0  0  0  0  0  0  0  0  0
   18.4553   17.4134    8.7051 H   0  0  0  0  0  0  0  0  0  0  0  0
   18.0305   17.3036    6.9422 H   0  0  0  0  0  0  0  0  0  0  0  0
   20.5697   15.8379    9.2719 H   0  0  0  0  0  0  0  0  0  0  0  0
   25.5508   16.2221    7.9767 H   0  0  0  0  0  0  0  0  0  0  0  0
   26.7739   17.4214    9.7899 H   0  0  0  0  0  0  0  0  0  0  0  0
   25.8609   17.4032   12.1018 H   0  0  0  0  0  0  0  0  0  0  0  0
   24.2404   18.5503   13.1848 H   0  0  0  0  0  0  0  0  0  0  0  0
   24.2191   18.8985   15.9311 H   0  0  0  0  0  0  0  0  0  0  0  0
   25.7672   17.0366   16.2332 H   0  0  0  0  0  0  0  0  0  0  0  0
   26.9438   17.8024   15.1131 H   0  0  0  0  0  0  0  0  0  0  0  0
   25.9325   18.9318   17.7693 H   0  0  0  0  0  0  0  0  0  0  0  0
   27.5851   18.2882   17.4084 H   0  0  0  0  0  0  0  0  0  0  0  0
   26.4970   21.7848   15.4228 H   0  0  0  0  0  0  0  0  0  0  0  0
   21.8888   15.4459   14.1433 H   0  0  0  0  0  0  0  0  0  0  0  0
   20.7769   14.3592   12.2284 H   0  0  0  0  0  0  0  0  0  0  0  0
   22.4937   16.2074    5.4347 H   0  0  0  0  0  0  0  0  0  0  0  0
  1  2  1  0
  2  3  1  0
  3  4  2  0
  4  5  1  0
  5  6  1  0
  6  7  2  0
  6  8  2  0
  6  9  1  0
  9 10  2  0
 10 11  1  0
 11 12  2  0
 12 13  1  0
 13 14  2  0
 14 15  1  0
 15 16  2  0
 15 17  1  0
 17 18  1  0
 18 19  1  0
 19 20  1  0
 20 21  1  0
 21 22  2  0
 21 23  1  0
 23 24  1  0
 24 25  2  0
 14 26  1  0
 26 27  2  0
 27 28  1  0
 28 29  2  0
  5 30  1  0
 30 31  2  0
 31  3  1  0
 29  9  1  0
 29 13  1  0
 24 18  1  0
  1 32  1  0
  1 33  1  0
  1 34  1  0
  2 35  1  0
  2 36  1  0
  4 37  1  0
 10 38  1  0
 11 39  1  0
 12 40  1  0
 17 41  1  0
 18 42  1  1
 19 43  1  0
 19 44  1  0
 20 45  1  0
 20 46  1  0
 23 47  1  0
 26 48  1  0
 27 49  1  0
 30 50  1  0
M  END
>  <meeko>  (280) 
{"is_sidechain": [true], "free_energy": -11.0, "intermolecular_energy": 0.0, "internal_energy": -11.0, "cluster_size": 15, "cluster_id": 1, "rank_in_cluster": 1}

>  <_RMSD_MCS_to_ref>  (280) 
0.6374610227735934

$$$$
ligand
     RDKit          3D

 52 55  0  0  0  0  0  0  0  0999 V2000
   18.9090   19.1540    7.5370 C   0  0  0  0  0  0  0  0  0  0  0  0
   18.7730   17.6460    7.6780 C   0  0  0  0  0  0  0  0  0  0  0  0
   20.0960   16.9700    7.7510 C   0  0  0  0  0  0  0  0  0  0  0  0
   20.8610   16.6760    8.8630 C   0  0  0  0  0  0  0  0  0  0  0  0
   21.9760   16.0770    8.3530 N   0  0  0  0  0  0  0  0  0  0  0  0
   23.3300   15.5970    9.2200 S   0  0  0  0  0  6  0  0  0  0  0  0
   23.5930   14.2290    8.8110 O   0  0  0  0  0  0  0  0  0  0  0  0
   24.3070   16.6560    9.0460 O   0  0  0  0  0  0  0  0  0  0  0  0
   22.8490   15.5640   10.9280 C   0  0  0  0  0  0  0  0  0  0  0  0
   23.5610   16.3980   11.7120 N   0  0  0  0  0  0  0  0  0  0  0  0
   23.1830   16.4230   12.9970 C   0  0  0  0  0  0  0  0  0  0  0  0
   23.9170   17.3550   13.9320 C   0  0  0  0  0  0  0  0  0  0  0  0
   23.3730   17.8840   14.8950 O   0  0  0  0  0  0  0  0  0  0  0  0
   25.2520   17.5480   13.6310 N   0  0  0  0  0  0  0  0  0  0  0  0
   26.1480   18.2780   14.5110 C   0  0  2  0  0  0  0  0  0  0  0  0
   25.9570   17.8890   15.9730 C   0  0  0  0  0  0  0  0  0  0  0  0
   26.9030   18.7020   16.8430 C   0  0  0  0  0  0  0  0  0  0  0  0
   26.7090   20.1850   16.6260 C   0  0  0  0  0  0  0  0  0  0  0  0
   26.8550   21.0070   17.5240 O   0  0  0  0  0  0  0  0  0  0  0  0
   26.3860   20.5820   15.3530 N   0  0  0  0  0  0  0  0  0  0  0  0
   25.8890   19.7800   14.3560 C   0  0  0  0  0  0  0  0  0  0  0  0
   25.2890   20.2620   13.3950 O   0  0  0  0  0  0  0  0  0  0  0  0
   22.1730   15.7040   13.5350 N   0  0  0  0  0  0  0  0  0  0  0  0
   21.4930   14.8900   12.6970 C   0  0  0  0  0  0  0  0  0  0  0  0
   21.7990   14.7650   11.3510 C   0  0  0  0  0  0  0  0  0  0  0  0
   20.9840   13.8940   10.4390 C   0  0  0  0  0  0  0  0  0  0  0  0
   20.1730   12.9060   11.1570 N   0  0  0  0  0  0  0  0  0  0  0  0
   19.4230   13.5350   12.2440 C   0  0  0  0  0  0  0  0  0  0  0  0
   20.3820   14.0710   13.3050 C   0  0  0  0  0  0  0  0  0  0  0  0
   21.8840   16.0430    6.9980 C   0  0  0  0  0  0  0  0  0  0  0  0
   20.7370   16.5550    6.6000 N   0  0  0  0  0  0  0  0  0  0  0  0
   18.9504   19.6134    8.5356 H   0  0  0  0  0  0  0  0  0  0  0  0
   19.8320   19.3891    6.9867 H   0  0  0  0  0  0  0  0  0  0  0  0
   18.0430   19.5504    6.9867 H   0  0  0  0  0  0  0  0  0  0  0  0
   18.2103   17.4249    8.5970 H   0  0  0  0  0  0  0  0  0  0  0  0
   18.2479   17.2683    6.7883 H   0  0  0  0  0  0  0  0  0  0  0  0
   20.6253   16.8784    9.9182 H   0  0  0  0  0  0  0  0  0  0  0  0
   25.6245   17.1608   12.7522 H   0  0  0  0  0  0  0  0  0  0  0  0
   27.1800   18.0257   14.2258 H   0  0  0  0  0  0  0  0  0  0  0  0
   24.9182   18.0910   16.2732 H   0  0  0  0  0  0  0  0  0  0  0  0
   26.1738   16.8179   16.0982 H   0  0  0  0  0  0  0  0  0  0  0  0
   26.7101   18.4661   17.8999 H   0  0  0  0  0  0  0  0  0  0  0  0
   27.9364   18.4428   16.5693 H   0  0  0  0  0  0  0  0  0  0  0  0
   26.5301   21.5758   15.1238 H   0  0  0  0  0  0  0  0  0  0  0  0
   20.3125   14.5361    9.8501 H   0  0  0  0  0  0  0  0  0  0  0  0
   21.6880   13.3385    9.8020 H   0  0  0  0  0  0  0  0  0  0  0  0
   19.5111   12.4708   10.4986 H   0  0  0  0  0  0  0  0  0  0  0  0
   18.8263   14.3662   11.8403 H   0  0  0  0  0  0  0  0  0  0  0  0
   18.7611   12.7863   12.7037 H   0  0  0  0  0  0  0  0  0  0  0  0
   19.8182   14.7024   14.0074 H   0  0  0  0  0  0  0  0  0  0  0  0
   20.8351   13.2113   13.8203 H   0  0  0  0  0  0  0  0  0  0  0  0
   22.6588   15.6438    6.3269 H   0  0  0  0  0  0  0  0  0  0  0  0
  1  2  1  0
  2  3  1  0
  3  4  2  0
  4  5  1  0
  5  6  1  0
  6  7  2  0
  6  8  2  0
  6  9  1  0
  9 10  2  0
 10 11  1  0
 11 12  1  0
 12 13  2  0
 12 14  1  0
 14 15  1  0
 15 16  1  0
 16 17  1  0
 17 18  1  0
 18 19  2  0
 18 20  1  0
 20 21  1  0
 21 22  2  0
 11 23  2  0
 23 24  1  0
 24 25  2  0
 25 26  1  0
 26 27  1  0
 27 28  1  0
 28 29  1  0
  5 30  1  0
 30 31  2  0
 31  3  1  0
 25  9  1  0
 21 15  1  0
 29 24  1  0
  1 32  1  0
  1 33  1  0
  1 34  1  0
  2 35  1  0
  2 36  1  0
  4 37  1  0
 14 38  1  0
 15 39  1  6
 16 40  1  0
 16 41  1  0
 17 42  1  0
 17 43  1  0
 20 44  1  0
 26 45  1  0
 26 46  1  0
 27 47  1  0
 28 48  1  0
 28 49  1  0
 29 50  1  0
 29 51  1  0
 30 52  1  0
M  END
>  <meeko>  (281) 
{"is_sidechain": [true], "free_energy": -11.0, "intermolecular_energy": 0.0, "internal_energy": -11.0, "cluster_size": 20, "cluster_id": 1, "rank_in_cluster": 1}

>  <_RMSD_MCS_to_ref>  (281) 
0.6990590501206285

$$$$
ligand
     RDKit          3D

 54 58  0  0  0  0  0  0  0  0999 V2000
   18.9090   19.1540    7.5370 C   0  0  0  0  0  0  0  0  0  0  0  0
   18.7730   17.6460    7.6780 C   0  0  0  0  0  0  0  0  0  0  0  0
   19.7410   16.9140    6.8170 C   0  0  0  0  0  0  0  0  0  0  0  0
   21.1150   16.8310    6.9310 C   0  0  0  0  0  0  0  0  0  0  0  0
   21.4920   16.0420    5.8830 N   0  0  0  0  0  0  0  0  0  0  0  0
   23.0710   15.7540    5.3840 S   0  0  0  0  0  6  0  0  0  0  0  0
   23.6900   17.0590    5.2470 O   0  0  0  0  0  0  0  0  0  0  0  0
   22.9590   14.8300    4.2700 O   0  0  0  0  0  0  0  0  0  0  0  0
   23.8200   14.9140    6.7290 C   0  0  0  0  0  0  0  0  0  0  0  0
   24.5250   13.7530    6.5070 C   0  0  0  0  0  0  0  0  0  0  0  0
   25.0780   13.0730    7.5350 N   0  0  0  0  0  0  0  0  0  0  0  0
   24.8860   13.6100    8.7740 C   0  0  0  0  0  0  0  0  0  0  0  0
   24.1730   14.7900    9.0050 C   0  0  0  0  0  0  0  0  0  0  0  0
   23.9500   15.3880   10.3410 C   0  0  0  0  0  0  0  0  0  0  0  0
   22.8490   14.9660   11.1410 C   0  0  0  0  0  0  0  0  0  0  0  0
   22.5870   15.4950   12.4150 C   0  0  0  0  0  0  0  0  0  0  0  0
   23.4360   16.4670   12.8980 C   0  0  0  0  0  0  0  0  0  0  0  0
   24.5100   16.8940   12.1240 C   0  0  0  0  0  0  0  0  0  0  0  0
   24.7910   16.3860   10.8660 C   0  0  0  0  0  0  0  0  0  0  0  0
   25.2320   17.9250   12.8770 C   0  0  0  0  0  0  0  0  0  0  0  0
   26.2560   18.4650   12.5060 O   0  0  0  0  0  0  0  0  0  0  0  0
   24.5250   18.1340   14.0510 N   0  0  0  0  0  0  0  0  0  0  0  0
   25.0840   18.9000   15.1590 C   0  0  1  0  0  0  0  0  0  0  0  0
   26.1810   18.1400   15.9000 C   0  0  0  0  0  0  0  0  0  0  0  0
   26.6510   18.9630   17.0890 C   0  0  0  0  0  0  0  0  0  0  0  0
   27.1100   20.3350   16.6550 C   0  0  0  0  0  0  0  0  0  0  0  0
   28.0490   20.9140   17.1930 O   0  0  0  0  0  0  0  0  0  0  0  0
   26.4090   20.9220   15.6320 N   0  0  0  0  0  0  0  0  0  0  0  0
   25.6400   20.2600   14.7030 C   0  0  0  0  0  0  0  0  0  0  0  0
   25.4430   20.7540   13.5950 O   0  0  0  0  0  0  0  0  0  0  0  0
   23.4210   17.1940   14.2010 C   0  0  0  0  0  0  0  0  0  0  0  0
   23.6220   15.4580    7.9580 N   0  0  0  0  0  0  0  0  0  0  0  0
   20.3910   15.7050    5.1620 C   0  0  0  0  0  0  0  0  0  0  0  0
   19.3050   16.2090    5.7120 N   0  0  0  0  0  0  0  0  0  0  0  0
   18.9504   19.6134    8.5356 H   0  0  0  0  0  0  0  0  0  0  0  0
   19.8320   19.3891    6.9867 H   0  0  0  0  0  0  0  0  0  0  0  0
   18.0430   19.5504    6.9867 H   0  0  0  0  0  0  0  0  0  0  0  0
   18.9527   17.3702    8.7276 H   0  0  0  0  0  0  0  0  0  0  0  0
   17.7578   17.3661    7.3602 H   0  0  0  0  0  0  0  0  0  0  0  0
   21.7587   17.2950    7.6928 H   0  0  0  0  0  0  0  0  0  0  0  0
   24.6395   13.3744    5.4806 H   0  0  0  0  0  0  0  0  0  0  0  0
   25.3162   13.0853    9.6398 H   0  0  0  0  0  0  0  0  0  0  0  0
   22.1754   14.1926   10.7435 H   0  0  0  0  0  0  0  0  0  0  0  0
   21.7303   15.1443   13.0092 H   0  0  0  0  0  0  0  0  0  0  0  0
   25.6527   16.7549   10.2904 H   0  0  0  0  0  0  0  0  0  0  0  0
   24.2430   19.0679   15.8479 H   0  0  0  0  0  0  0  0  0  0  0  0
   25.7851   17.1767   16.2540 H   0  0  0  0  0  0  0  0  0  0  0  0
   27.0269   17.9603   15.2202 H   0  0  0  0  0  0  0  0  0  0  0  0
   25.8201   19.0712   17.8017 H   0  0  0  0  0  0  0  0  0  0  0  0
   27.4993   18.4439   17.5590 H   0  0  0  0  0  0  0  0  0  0  0  0
   26.4632   21.9475   15.5527 H   0  0  0  0  0  0  0  0  0  0  0  0
   23.5958   16.5065   15.0417 H   0  0  0  0  0  0  0  0  0  0  0  0
   22.4588   17.6795   14.4210 H   0  0  0  0  0  0  0  0  0  0  0  0
   20.4044   15.0959    4.2461 H   0  0  0  0  0  0  0  0  0  0  0  0
  1  2  1  0
  2  3  1  0
  3  4  2  0
  4  5  1  0
  5  6  1  0
  6  7  2  0
  6  8  2  0
  6  9  1  0
  9 10  2  0
 10 11  1  0
 11 12  2  0
 12 13  1  0
 13 14  1  0
 14 15  2  0
 15 16  1  0
 16 17  2  0
 17 18  1  0
 18 19  2  0
 18 20  1  0
 20 21  2  0
 20 22  1  0
 22 23  1  0
 23 24  1  0
 24 25  1  0
 25 26  1  0
 26 27  2  0
 26 28  1  0
 28 29  1  0
 29 30  2  0
 22 31  1  0
 13 32  2  0
  5 33  1  0
 33 34  2  0
 34  3  1  0
 32  9  1  0
 19 14  1  0
 29 23  1  0
 31 17  1  0
  1 35  1  0
  1 36  1  0
  1 37  1  0
  2 38  1  0
  2 39  1  0
  4 40  1  0
 10 41  1  0
 12 42  1  0
 15 43  1  0
 16 44  1  0
 19 45  1  0
 23 46  1  1
 24 47  1  0
 24 48  1  0
 25 49  1  0
 25 50  1  0
 28 51  1  0
 31 52  1  0
 31 53  1  0
 33 54  1  0
M  END
>  <meeko>  (282) 
{"is_sidechain": [true], "free_energy": -10.99, "intermolecular_energy": 0.0, "internal_energy": -10.99, "cluster_size": 19, "cluster_id": 1, "rank_in_cluster": 1}

>  <_RMSD_MCS_to_ref>  (282) 
1.9455489228264378

$$$$
ligand
     RDKit          3D

 50 53  0  0  0  0  0  0  0  0999 V2000
   18.9090   19.1540    7.5370 C   0  0  0  0  0  0  0  0  0  0  0  0
   18.7730   17.6460    7.6780 C   0  0  0  0  0  0  0  0  0  0  0  0
   20.0890   16.9540    7.6140 C   0  0  0  0  0  0  0  0  0  0  0  0
   21.0540   16.8290    8.5950 C   0  0  0  0  0  0  0  0  0  0  0  0
   22.0460   16.1080    7.9960 N   0  0  0  0  0  0  0  0  0  0  0  0
   23.4500   15.5670    8.7420 S   0  0  0  0  0  6  0  0  0  0  0  0
   24.3690   16.6830    8.6320 O   0  0  0  0  0  0  0  0  0  0  0  0
   23.7550   14.2670    8.1790 O   0  0  0  0  0  0  0  0  0  0  0  0
   23.0010   15.3680   10.4500 C   0  0  0  0  0  0  0  0  0  0  0  0
   23.9110   15.8540   11.3930 C   0  0  0  0  0  0  0  0  0  0  0  0
   23.5640   15.7530   12.7210 C   0  0  0  0  0  0  0  0  0  0  0  0
   24.4840   16.2720   13.7830 C   0  0  0  0  0  0  0  0  0  0  0  0
   24.8860   15.5540   14.6900 O   0  0  0  0  0  0  0  0  0  0  0  0
   24.8410   17.5920   13.6360 N   0  0  0  0  0  0  0  0  0  0  0  0
   25.8470   18.2280   14.4670 C   0  0  2  0  0  0  0  0  0  0  0  0
   25.6380   17.9290   15.9480 C   0  0  0  0  0  0  0  0  0  0  0  0
   26.7060   18.6370   16.7660 C   0  0  0  0  0  0  0  0  0  0  0  0
   26.7130   20.1220   16.4890 C   0  0  0  0  0  0  0  0  0  0  0  0
   26.9950   20.9510   17.3490 O   0  0  0  0  0  0  0  0  0  0  0  0
   26.4170   20.5100   15.2070 N   0  0  0  0  0  0  0  0  0  0  0  0
   25.7930   19.7450   14.2520 C   0  0  0  0  0  0  0  0  0  0  0  0
   25.2500   20.2690   13.2800 O   0  0  0  0  0  0  0  0  0  0  0  0
   22.3970   15.2150   13.1540 N   0  0  0  0  0  0  0  0  0  0  0  0
   21.5380   14.7350   12.2460 C   0  0  0  0  0  0  0  0  0  0  0  0
   20.3570   14.1850   12.7250 C   0  0  0  0  0  0  0  0  0  0  0  0
   19.3940   13.6460   11.8750 C   0  0  0  0  0  0  0  0  0  0  0  0
   19.6140   13.6470   10.5080 C   0  0  0  0  0  0  0  0  0  0  0  0
   20.7930   14.1960   10.0010 C   0  0  0  0  0  0  0  0  0  0  0  0
   21.7780   14.7660   10.8520 C   0  0  0  0  0  0  0  0  0  0  0  0
   21.6930   15.8370    6.7140 C   0  0  0  0  0  0  0  0  0  0  0  0
   20.4960   16.3240    6.4550 N   0  0  0  0  0  0  0  0  0  0  0  0
   18.9504   19.6134    8.5356 H   0  0  0  0  0  0  0  0  0  0  0  0
   19.8320   19.3891    6.9867 H   0  0  0  0  0  0  0  0  0  0  0  0
   18.0430   19.5504    6.9867 H   0  0  0  0  0  0  0  0  0  0  0  0
   18.3017   17.4219    8.6463 H   0  0  0  0  0  0  0  0  0  0  0  0
   18.1595   17.2827    6.8403 H   0  0  0  0  0  0  0  0  0  0  0  0
   21.0286   17.2206    9.6226 H   0  0  0  0  0  0  0  0  0  0  0  0
   24.8682   16.3003   11.0854 H   0  0  0  0  0  0  0  0  0  0  0  0
   24.3759   18.1517   12.9071 H   0  0  0  0  0  0  0  0  0  0  0  0
   26.8279   17.8252   14.1742 H   0  0  0  0  0  0  0  0  0  0  0  0
   24.6441   18.2851   16.2568 H   0  0  0  0  0  0  0  0  0  0  0  0
   25.7084   16.8441   16.1155 H   0  0  0  0  0  0  0  0  0  0  0  0
   26.5065   18.4726   17.8352 H   0  0  0  0  0  0  0  0  0  0  0  0
   27.6874   18.2264   16.4864 H   0  0  0  0  0  0  0  0  0  0  0  0
   26.6884   21.4656   14.9347 H   0  0  0  0  0  0  0  0  0  0  0  0
   20.1758   14.1744   13.8099 H   0  0  0  0  0  0  0  0  0  0  0  0
   18.4659   13.2228   12.2867 H   0  0  0  0  0  0  0  0  0  0  0  0
   18.8649   13.2181    9.8262 H   0  0  0  0  0  0  0  0  0  0  0  0
   20.9641   14.1872    8.9144 H   0  0  0  0  0  0  0  0  0  0  0  0
   22.3173   15.2887    5.9932 H   0  0  0  0  0  0  0  0  0  0  0  0
  1  2  1  0
  2  3  1  0
  3  4  2  0
  4  5  1  0
  5  6  1  0
  6  7  2  0
  6  8  2  0
  6  9  1  0
  9 10  2  0
 10 11  1  0
 11 12  1  0
 12 13  2  0
 12 14  1  0
 14 15  1  0
 15 16  1  0
 16 17  1  0
 17 18  1  0
 18 19  2  0
 18 20  1  0
 20 21  1  0
 21 22  2  0
 11 23  2  0
 23 24  1  0
 24 25  2  0
 25 26  1  0
 26 27  2  0
 27 28  1  0
 28 29  2  0
  5 30  1  0
 30 31  2  0
 31  3  1  0
 29  9  1  0
 21 15  1  0
 29 24  1  0
  1 32  1  0
  1 33  1  0
  1 34  1  0
  2 35  1  0
  2 36  1  0
  4 37  1  0
 10 38  1  0
 14 39  1  0
 15 40  1  6
 16 41  1  0
 16 42  1  0
 17 43  1  0
 17 44  1  0
 20 45  1  0
 25 46  1  0
 26 47  1  0
 27 48  1  0
 28 49  1  0
 30 50  1  0
M  END
>  <meeko>  (283) 
{"is_sidechain": [true], "free_energy": -10.99, "intermolecular_energy": 0.0, "internal_energy": -10.99, "cluster_size": 19, "cluster_id": 1, "rank_in_cluster": 1}

>  <_RMSD_MCS_to_ref>  (283) 
0.5641847609112147

$$$$
ligand
     RDKit          3D

 50 53  0  0  0  0  0  0  0  0999 V2000
   18.9090   19.1540    7.5370 C   0  0  0  0  0  0  0  0  0  0  0  0
   18.7730   17.6460    7.6780 C   0  0  0  0  0  0  0  0  0  0  0  0
   20.0440   16.9360    7.3720 C   0  0  0  0  0  0  0  0  0  0  0  0
   20.5410   15.7700    7.9190 C   0  0  0  0  0  0  0  0  0  0  0  0
   21.7210   15.5660    7.2600 N   0  0  0  0  0  0  0  0  0  0  0  0
   22.8680   14.3960    7.6260 S   0  0  0  0  0  6  0  0  0  0  0  0
   22.1190   13.3110    8.2300 O   0  0  0  0  0  0  0  0  0  0  0  0
   23.6380   14.2260    6.4080 O   0  0  0  0  0  0  0  0  0  0  0  0
   23.9640   15.0530    8.8700 C   0  0  0  0  0  0  0  0  0  0  0  0
   25.2410   15.4940    8.5000 C   0  0  0  0  0  0  0  0  0  0  0  0
   26.0960   16.0020    9.4650 C   0  0  0  0  0  0  0  0  0  0  0  0
   25.6830   16.0730   10.7930 C   0  0  0  0  0  0  0  0  0  0  0  0
   24.3980   15.6410   11.2140 C   0  0  0  0  0  0  0  0  0  0  0  0
   23.9190   15.6880   12.5510 C   0  0  0  0  0  0  0  0  0  0  0  0
   24.7210   16.2370   13.7200 C   0  0  0  0  0  0  0  0  0  0  0  0
   25.0330   15.5890   14.7110 O   0  0  0  0  0  0  0  0  0  0  0  0
   25.1030   17.5550   13.5620 N   0  0  0  0  0  0  0  0  0  0  0  0
   26.0250   18.2190   14.4640 C   0  0  2  0  0  0  0  0  0  0  0  0
   25.7180   17.9040   15.9250 C   0  0  0  0  0  0  0  0  0  0  0  0
   26.7030   18.6380   16.8210 C   0  0  0  0  0  0  0  0  0  0  0  0
   26.6850   20.1240   16.5520 C   0  0  0  0  0  0  0  0  0  0  0  0
   26.8890   20.9540   17.4340 O   0  0  0  0  0  0  0  0  0  0  0  0
   26.4640   20.5120   15.2560 N   0  0  0  0  0  0  0  0  0  0  0  0
   25.9420   19.7340   14.2500 C   0  0  0  0  0  0  0  0  0  0  0  0
   25.4640   20.2500   13.2410 O   0  0  0  0  0  0  0  0  0  0  0  0
   22.6820   15.2540   12.9420 N   0  0  0  0  0  0  0  0  0  0  0  0
   21.8800   14.7620   11.9910 C   0  0  0  0  0  0  0  0  0  0  0  0
   22.2430   14.6770   10.6610 C   0  0  0  0  0  0  0  0  0  0  0  0
   23.5190   15.1140   10.2290 C   0  0  0  0  0  0  0  0  0  0  0  0
   21.9230   16.5840    6.3820 C   0  0  0  0  0  0  0  0  0  0  0  0
   20.9230   17.4390    6.4330 N   0  0  0  0  0  0  0  0  0  0  0  0
   18.9504   19.6134    8.5356 H   0  0  0  0  0  0  0  0  0  0  0  0
   19.8320   19.3891    6.9867 H   0  0  0  0  0  0  0  0  0  0  0  0
   18.0430   19.5504    6.9867 H   0  0  0  0  0  0  0  0  0  0  0  0
   18.4765   17.4121    8.7111 H   0  0  0  0  0  0  0  0  0  0  0  0
   18.0146   17.3065    6.9572 H   0  0  0  0  0  0  0  0  0  0  0  0
   20.0902   15.1472    8.7057 H   0  0  0  0  0  0  0  0  0  0  0  0
   25.5632   15.4374    7.4498 H   0  0  0  0  0  0  0  0  0  0  0  0
   27.1007   16.3491    9.1821 H   0  0  0  0  0  0  0  0  0  0  0  0
   26.3778   16.4786   11.5431 H   0  0  0  0  0  0  0  0  0  0  0  0
   24.7169   18.0889   12.7703 H   0  0  0  0  0  0  0  0  0  0  0  0
   27.0371   17.8503   14.2412 H   0  0  0  0  0  0  0  0  0  0  0  0
   24.6943   18.2288   16.1626 H   0  0  0  0  0  0  0  0  0  0  0  0
   25.8078   16.8206   16.0926 H   0  0  0  0  0  0  0  0  0  0  0  0
   26.4324   18.4606   17.8723 H   0  0  0  0  0  0  0  0  0  0  0  0
   27.7139   18.2586   16.6108 H   0  0  0  0  0  0  0  0  0  0  0  0
   26.7134   21.4811   15.0121 H   0  0  0  0  0  0  0  0  0  0  0  0
   20.8806   14.4071   12.2831 H   0  0  0  0  0  0  0  0  0  0  0  0
   21.5328   14.2651    9.9289 H   0  0  0  0  0  0  0  0  0  0  0  0
   22.7980   16.6799    5.7223 H   0  0  0  0  0  0  0  0  0  0  0  0
  1  2  1  0
  2  3  1  0
  3  4  2  0
  4  5  1  0
  5  6  1  0
  6  7  2  0
  6  8  2  0
  6  9  1  0
  9 10  2  0
 10 11  1  0
 11 12  2  0
 12 13  1  0
 13 14  2  0
 14 15  1  0
 15 16  2  0
 15 17  1  0
 17 18  1  0
 18 19  1  0
 19 20  1  0
 20 21  1  0
 21 22  2  0
 21 23  1  0
 23 24  1  0
 24 25  2  0
 14 26  1  0
 26 27  2  0
 27 28  1  0
 28 29  2  0
  5 30  1  0
 30 31  2  0
 31  3  1  0
 29  9  1  0
 29 13  1  0
 24 18  1  0
  1 32  1  0
  1 33  1  0
  1 34  1  0
  2 35  1  0
  2 36  1  0
  4 37  1  0
 10 38  1  0
 11 39  1  0
 12 40  1  0
 17 41  1  0
 18 42  1  6
 19 43  1  0
 19 44  1  0
 20 45  1  0
 20 46  1  0
 23 47  1  0
 27 48  1  0
 28 49  1  0
 30 50  1  0
M  END
>  <meeko>  (284) 
{"is_sidechain": [true], "free_energy": -10.99, "intermolecular_energy": 0.0, "internal_energy": -10.99, "cluster_size": 17, "cluster_id": 1, "rank_in_cluster": 1}

>  <_RMSD_MCS_to_ref>  (284) 
0.6676896318233823

$$$$
ligand
     RDKit          3D

 54 57  0  0  0  0  0  0  0  0999 V2000
   18.9090   19.1540    7.5370 C   0  0  0  0  0  0  0  0  0  0  0  0
   18.7730   17.6460    7.6780 C   0  0  0  0  0  0  0  0  0  0  0  0
   20.0780   16.9310    7.6080 C   0  0  0  0  0  0  0  0  0  0  0  0
   21.0770   16.8460    8.5600 C   0  0  0  0  0  0  0  0  0  0  0  0
   22.0660   16.1290    7.9510 N   0  0  0  0  0  0  0  0  0  0  0  0
   23.4120   15.4600    8.7110 S   0  0  0  0  0  6  0  0  0  0  0  0
   24.2780   16.5760    9.0370 O   0  0  0  0  0  0  0  0  0  0  0  0
   23.8350   14.3610    7.8650 O   0  0  0  0  0  0  0  0  0  0  0  0
   22.7220   14.8000   10.2020 C   0  0  0  0  0  0  0  0  0  0  0  0
   22.3660   13.4550   10.2720 C   0  0  0  0  0  0  0  0  0  0  0  0
   21.9390   12.9270   11.4930 C   0  0  0  0  0  0  0  0  0  0  0  0
   21.9040   13.7150   12.6520 C   0  0  0  0  0  0  0  0  0  0  0  0
   22.1960   15.0870   12.5500 C   0  0  0  0  0  0  0  0  0  0  0  0
   22.5960   15.6290   11.3180 C   0  0  0  0  0  0  0  0  0  0  0  0
   22.1900   15.9700   13.7870 C   0  0  2  0  0  0  0  0  0  0  0  0
   23.5910   16.3590   14.2870 C   0  0  0  0  0  0  0  0  0  0  0  0
   24.4100   15.5070   14.6300 O   0  0  0  0  0  0  0  0  0  0  0  0
   23.8870   17.6990   14.3250 N   0  0  0  0  0  0  0  0  0  0  0  0
   25.1790   18.2190   14.7550 C   0  0  2  0  0  0  0  0  0  0  0  0
   25.4210   18.0160   16.2460 C   0  0  0  0  0  0  0  0  0  0  0  0
   26.7350   18.6660   16.6500 C   0  0  0  0  0  0  0  0  0  0  0  0
   26.7770   20.1250   16.2640 C   0  0  0  0  0  0  0  0  0  0  0  0
   27.4280   20.9550   16.8930 O   0  0  0  0  0  0  0  0  0  0  0  0
   26.1020   20.4810   15.1250 N   0  0  0  0  0  0  0  0  0  0  0  0
   25.1980   19.7170   14.4310 C   0  0  0  0  0  0  0  0  0  0  0  0
   24.4750   20.2130   13.5670 O   0  0  0  0  0  0  0  0  0  0  0  0
   21.3910   15.3350   14.9290 C   0  0  0  0  0  0  0  0  0  0  0  0
   21.7670   13.8690   15.0780 C   0  0  0  0  0  0  0  0  0  0  0  0
   21.4620   13.1470   13.8500 N   0  0  0  0  0  0  0  0  0  0  0  0
   21.6510   15.7740    6.7060 C   0  0  0  0  0  0  0  0  0  0  0  0
   20.4380   16.2340    6.4700 N   0  0  0  0  0  0  0  0  0  0  0  0
   18.9504   19.6134    8.5356 H   0  0  0  0  0  0  0  0  0  0  0  0
   19.8320   19.3891    6.9867 H   0  0  0  0  0  0  0  0  0  0  0  0
   18.0430   19.5504    6.9867 H   0  0  0  0  0  0  0  0  0  0  0  0
   18.3054   17.4262    8.6491 H   0  0  0  0  0  0  0  0  0  0  0  0
   18.1604   17.2924    6.8356 H   0  0  0  0  0  0  0  0  0  0  0  0
   21.0752   17.2622    9.5782 H   0  0  0  0  0  0  0  0  0  0  0  0
   22.4204   12.8170    9.3776 H   0  0  0  0  0  0  0  0  0  0  0  0
   21.6247   11.8742   11.5459 H   0  0  0  0  0  0  0  0  0  0  0  0
   22.8096   16.7047   11.2324 H   0  0  0  0  0  0  0  0  0  0  0  0
   21.6975   16.8995   13.4654 H   0  0  0  0  0  0  0  0  0  0  0  0
   23.1607   18.3696   14.0356 H   0  0  0  0  0  0  0  0  0  0  0  0
   25.9771   17.6752   14.2284 H   0  0  0  0  0  0  0  0  0  0  0  0
   24.5979   18.4732   16.8147 H   0  0  0  0  0  0  0  0  0  0  0  0
   25.4684   16.9384   16.4619 H   0  0  0  0  0  0  0  0  0  0  0  0
   26.8541   18.5819   17.7403 H   0  0  0  0  0  0  0  0  0  0  0  0
   27.5504   18.1480   16.1238 H   0  0  0  0  0  0  0  0  0  0  0  0
   26.2938   21.4213   14.7508 H   0  0  0  0  0  0  0  0  0  0  0  0
   21.6134   15.8648   15.8670 H   0  0  0  0  0  0  0  0  0  0  0  0
   20.3172   15.4100   14.7022 H   0  0  0  0  0  0  0  0  0  0  0  0
   22.8436   13.7891   15.2893 H   0  0  0  0  0  0  0  0  0  0  0  0
   21.1898   13.4315   15.9059 H   0  0  0  0  0  0  0  0  0  0  0  0
   20.9435   12.2572   13.8641 H   0  0  0  0  0  0  0  0  0  0  0  0
   22.2457   15.1839    5.9932 H   0  0  0  0  0  0  0  0  0  0  0  0
  1  2  1  0
  2  3  1  0
  3  4  2  0
  4  5  1  0
  5  6  1  0
  6  7  2  0
  6  8  2  0
  6  9  1  0
  9 10  2  0
 10 11  1  0
 11 12  2  0
 12 13  1  0
 13 14  2  0
 13 15  1  0
 15 16  1  0
 16 17  2  0
 16 18  1  0
 18 19  1  0
 19 20  1  0
 20 21  1  0
 21 22  1  0
 22 23  2  0
 22 24  1  0
 24 25  1  0
 25 26  2  0
 15 27  1  0
 27 28  1  0
 28 29  1  0
  5 30  1  0
 30 31  2  0
 31  3  1  0
 14  9  1  0
 25 19  1  0
 29 12  1  0
  1 32  1  0
  1 33  1  0
  1 34  1  0
  2 35  1  0
  2 36  1  0
  4 37  1  0
 10 38  1  0
 11 39  1  0
 14 40  1  0
 15 41  1  6
 18 42  1  0
 19 43  1  6
 20 44  1  0
 20 45  1  0
 21 46  1  0
 21 47  1  0
 24 48  1  0
 27 49  1  0
 27 50  1  0
 28 51  1  0
 28 52  1  0
 29 53  1  0
 30 54  1  0
M  END
>  <meeko>  (285) 
{"is_sidechain": [true], "free_energy": -10.99, "intermolecular_energy": 0.0, "internal_energy": -10.99, "cluster_size": 19, "cluster_id": 1, "rank_in_cluster": 1}

>  <_RMSD_MCS_to_ref>  (285) 
0.5470445848171588

$$$$
ligand
     RDKit          3D

 52 56  0  0  0  0  0  0  0  0999 V2000
   18.9090   19.1540    7.5370 C   0  0  0  0  0  0  0  0  0  0  0  0
   18.7730   17.6460    7.6780 C   0  0  0  0  0  0  0  0  0  0  0  0
   20.0920   16.9600    7.6450 C   0  0  0  0  0  0  0  0  0  0  0  0
   20.6030   16.0190    8.5180 C   0  0  0  0  0  0  0  0  0  0  0  0
   21.8230   15.7060    7.9920 N   0  0  0  0  0  0  0  0  0  0  0  0
   22.9290   14.6260    8.6410 S   0  0  0  0  0  6  0  0  0  0  0  0
   22.1880   13.7280    9.5060 O   0  0  0  0  0  0  0  0  0  0  0  0
   23.6710   14.1420    7.4930 O   0  0  0  0  0  0  0  0  0  0  0  0
   24.0340   15.5650    9.6670 C   0  0  0  0  0  0  0  0  0  0  0  0
   23.5940   15.8880   10.9610 C   0  0  0  0  0  0  0  0  0  0  0  0
   24.4420   16.6370   11.7530 C   0  0  0  0  0  0  0  0  0  0  0  0
   25.6860   17.0820   11.3170 C   0  0  0  0  0  0  0  0  0  0  0  0
   26.1240   16.7800   10.0390 C   0  0  0  0  0  0  0  0  0  0  0  0
   25.2900   16.0190    9.1950 C   0  0  0  0  0  0  0  0  0  0  0  0
   25.7980   15.7020    7.8770 C   0  0  0  0  0  0  0  0  0  0  0  0
   26.7040   14.7030    7.4660 C   0  0  0  0  0  0  0  0  0  0  0  0
   26.9050   14.7840    6.1480 N   0  0  0  0  0  0  0  0  0  0  0  0
   26.1250   15.8280    5.8210 N   0  0  0  0  0  0  0  0  0  0  0  0
   25.4090   16.4040    6.8040 N   0  0  0  0  0  0  0  0  0  0  0  0
   26.3530   17.8760   12.3930 C   0  0  0  0  0  0  0  0  0  0  0  0
   25.4100   17.7620   13.4980 N   0  0  0  0  0  0  0  0  0  0  0  0
   25.4760   18.5910   14.6980 C   0  0  1  0  0  0  0  0  0  0  0  0
   26.3390   17.9700   15.7920 C   0  0  0  0  0  0  0  0  0  0  0  0
   26.2890   18.8500   17.0330 C   0  0  0  0  0  0  0  0  0  0  0  0
   26.7090   20.2660   16.7150 C   0  0  0  0  0  0  0  0  0  0  0  0
   27.3560   20.9520   17.5000 O   0  0  0  0  0  0  0  0  0  0  0  0
   26.3190   20.7630   15.4970 N   0  0  0  0  0  0  0  0  0  0  0  0
   25.9980   20.0060   14.3930 C   0  0  0  0  0  0  0  0  0  0  0  0
   26.1470   20.4620   13.2610 O   0  0  0  0  0  0  0  0  0  0  0  0
   24.2450   17.1100   13.1280 C   0  0  0  0  0  0  0  0  0  0  0  0
   23.2350   16.9420   13.7820 O   0  0  0  0  0  0  0  0  0  0  0  0
   22.0550   16.4870    6.9050 C   0  0  0  0  0  0  0  0  0  0  0  0
   21.0040   17.2390    6.6440 N   0  0  0  0  0  0  0  0  0  0  0  0
   18.9504   19.6134    8.5356 H   0  0  0  0  0  0  0  0  0  0  0  0
   19.8320   19.3891    6.9867 H   0  0  0  0  0  0  0  0  0  0  0  0
   18.0430   19.5504    6.9867 H   0  0  0  0  0  0  0  0  0  0  0  0
   18.2807   17.4223    8.6359 H   0  0  0  0  0  0  0  0  0  0  0  0
   18.1787   17.2785    6.8285 H   0  0  0  0  0  0  0  0  0  0  0  0
   20.1345   15.6150    9.4276 H   0  0  0  0  0  0  0  0  0  0  0  0
   22.6118   15.5572   11.3295 H   0  0  0  0  0  0  0  0  0  0  0  0
   27.1066   17.1281    9.6879 H   0  0  0  0  0  0  0  0  0  0  0  0
   27.1757   13.9658    8.1323 H   0  0  0  0  0  0  0  0  0  0  0  0
   26.0768   16.1751    4.8524 H   0  0  0  0  0  0  0  0  0  0  0  0
   27.3299   17.4452   12.6577 H   0  0  0  0  0  0  0  0  0  0  0  0
   26.5663   18.9155   12.1034 H   0  0  0  0  0  0  0  0  0  0  0  0
   24.4405   18.6576   15.0630 H   0  0  0  0  0  0  0  0  0  0  0  0
   25.9571   16.9678   16.0366 H   0  0  0  0  0  0  0  0  0  0  0  0
   27.3779   17.8886   15.4398 H   0  0  0  0  0  0  0  0  0  0  0  0
   25.2612   18.8599   17.4249 H   0  0  0  0  0  0  0  0  0  0  0  0
   26.9845   18.4394   17.7798 H   0  0  0  0  0  0  0  0  0  0  0  0
   26.2617   21.7869   15.4008 H   0  0  0  0  0  0  0  0  0  0  0  0
   22.9890   16.4914    6.3239 H   0  0  0  0  0  0  0  0  0  0  0  0
  1  2  1  0
  2  3  1  0
  3  4  2  0
  4  5  1  0
  5  6  1  0
  6  7  2  0
  6  8  2  0
  6  9  1  0
  9 10  2  0
 10 11  1  0
 11 12  2  0
 12 13  1  0
 13 14  2  0
 14 15  1  0
 15 16  1  0
 16 17  2  0
 17 18  1  0
 18 19  1  0
 12 20  1  0
 20 21  1  0
 21 22  1  0
 22 23  1  0
 23 24  1  0
 24 25  1  0
 25 26  2  0
 25 27  1  0
 27 28  1  0
 28 29  2  0
 21 30  1  0
 30 31  2  0
  5 32  1  0
 32 33  2  0
 33  3  1  0
 14  9  1  0
 19 15  2  0
 28 22  1  0
 30 11  1  0
  1 34  1  0
  1 35  1  0
  1 36  1  0
  2 37  1  0
  2 38  1  0
  4 39  1  0
 10 40  1  0
 13 41  1  0
 16 42  1  0
 18 43  1  0
 20 44  1  0
 20 45  1  0
 22 46  1  1
 23 47  1  0
 23 48  1  0
 24 49  1  0
 24 50  1  0
 27 51  1  0
 32 52  1  0
M  END
>  <meeko>  (286) 
{"is_sidechain": [true], "free_energy": -10.99, "intermolecular_energy": 0.0, "internal_energy": -10.99, "cluster_size": 19, "cluster_id": 1, "rank_in_cluster": 1}

>  <_RMSD_MCS_to_ref>  (286) 
0.7883079629462363

$$$$
ligand
     RDKit          3D

 55 59  0  0  0  0  0  0  0  0999 V2000
   18.9090   19.1540    7.5370 C   0  0  0  0  0  0  0  0  0  0  0  0
   18.7730   17.6460    7.6780 C   0  0  0  0  0  0  0  0  0  0  0  0
   20.0840   16.9500    7.5640 C   0  0  0  0  0  0  0  0  0  0  0  0
   20.7360   16.1690    8.4970 C   0  0  0  0  0  0  0  0  0  0  0  0
   21.8860   15.7870    7.8650 N   0  0  0  0  0  0  0  0  0  0  0  0
   23.0770   14.8060    8.5200 S   0  0  0  0  0  6  0  0  0  0  0  0
   22.4690   13.4860    8.5530 O   0  0  0  0  0  0  0  0  0  0  0  0
   24.3030   15.0610    7.7930 O   0  0  0  0  0  0  0  0  0  0  0  0
   23.3060   15.3470   10.2070 C   0  0  0  0  0  0  0  0  0  0  0  0
   24.3000   16.3310   10.4130 C   0  0  0  0  0  0  0  0  0  0  0  0
   24.5330   16.7760   11.7000 C   0  0  0  0  0  0  0  0  0  0  0  0
   23.7970   16.2600   12.7570 C   0  0  0  0  0  0  0  0  0  0  0  0
   22.8110   15.3050   12.5870 C   0  0  0  0  0  0  0  0  0  0  0  0
   22.5380   14.8280   11.2870 C   0  0  0  0  0  0  0  0  0  0  0  0
   21.4750   13.8280   11.1510 C   0  0  0  0  0  0  0  0  0  0  0  0
   20.1490   14.2110   10.9100 C   0  0  0  0  0  0  0  0  0  0  0  0
   19.1550   13.2430   10.7780 C   0  0  0  0  0  0  0  0  0  0  0  0
   19.5180   11.9120   10.8770 C   0  0  0  0  0  0  0  0  0  0  0  0
   20.7850   11.4970   11.0860 N   0  0  0  0  0  0  0  0  0  0  0  0
   21.7300   12.4570   11.2090 C   0  0  0  0  0  0  0  0  0  0  0  0
   24.2630   16.8950   13.9940 C   0  0  0  0  0  0  0  0  0  0  0  0
   23.8690   16.6170   15.1100 O   0  0  0  0  0  0  0  0  0  0  0  0
   25.2180   17.8300   13.6280 N   0  0  0  0  0  0  0  0  0  0  0  0
   26.0950   18.4540   14.6130 C   0  0  2  0  0  0  0  0  0  0  0  0
   25.7210   18.0880   16.0460 C   0  0  0  0  0  0  0  0  0  0  0  0
   26.7270   18.7090   17.0040 C   0  0  0  0  0  0  0  0  0  0  0  0
   26.8160   20.2050   16.8070 C   0  0  0  0  0  0  0  0  0  0  0  0
   26.9900   20.9820   17.7390 O   0  0  0  0  0  0  0  0  0  0  0  0
   26.7100   20.6610   15.5170 N   0  0  0  0  0  0  0  0  0  0  0  0
   26.1110   19.9870   14.4770 C   0  0  0  0  0  0  0  0  0  0  0  0
   25.6270   20.6050   13.5310 O   0  0  0  0  0  0  0  0  0  0  0  0
   25.5240   17.7740   12.2040 C   0  0  0  0  0  0  0  0  0  0  0  0
   21.8980   16.2980    6.6080 C   0  0  0  0  0  0  0  0  0  0  0  0
   20.8210   17.0280    6.4000 N   0  0  0  0  0  0  0  0  0  0  0  0
   18.9504   19.6134    8.5356 H   0  0  0  0  0  0  0  0  0  0  0  0
   19.8320   19.3891    6.9867 H   0  0  0  0  0  0  0  0  0  0  0  0
   18.0430   19.5504    6.9867 H   0  0  0  0  0  0  0  0  0  0  0  0
   18.3364   17.4202    8.6621 H   0  0  0  0  0  0  0  0  0  0  0  0
   18.1282   17.2874    6.8621 H   0  0  0  0  0  0  0  0  0  0  0  0
   20.4060   15.9131    9.5146 H   0  0  0  0  0  0  0  0  0  0  0  0
   24.8756   16.7337    9.5666 H   0  0  0  0  0  0  0  0  0  0  0  0
   22.2483   14.9232   13.4516 H   0  0  0  0  0  0  0  0  0  0  0  0
   19.8921   15.2772   10.8249 H   0  0  0  0  0  0  0  0  0  0  0  0
   18.1083   13.5303   10.5996 H   0  0  0  0  0  0  0  0  0  0  0  0
   18.7307   11.1499   10.7801 H   0  0  0  0  0  0  0  0  0  0  0  0
   22.7702   12.1353   11.3654 H   0  0  0  0  0  0  0  0  0  0  0  0
   27.0997   18.0592   14.4016 H   0  0  0  0  0  0  0  0  0  0  0  0
   24.7146   18.4702   16.2719 H   0  0  0  0  0  0  0  0  0  0  0  0
   25.7305   16.9940   16.1608 H   0  0  0  0  0  0  0  0  0  0  0  0
   26.4140   18.5010   18.0378 H   0  0  0  0  0  0  0  0  0  0  0  0
   27.7160   18.2712   16.8033 H   0  0  0  0  0  0  0  0  0  0  0  0
   27.1128   21.5860   15.3094 H   0  0  0  0  0  0  0  0  0  0  0  0
   25.3785   18.7545   11.7272 H   0  0  0  0  0  0  0  0  0  0  0  0
   26.5682   17.5021   11.9899 H   0  0  0  0  0  0  0  0  0  0  0  0
   22.6937   16.1271    5.8679 H   0  0  0  0  0  0  0  0  0  0  0  0
  1  2  1  0
  2  3  1  0
  3  4  2  0
  4  5  1  0
  5  6  1  0
  6  7  2  0
  6  8  2  0
  6  9  1  0
  9 10  2  0
 10 11  1  0
 11 12  2  0
 12 13  1  0
 13 14  2  0
 14 15  1  0
 15 16  2  0
 16 17  1  0
 17 18  2  0
 18 19  1  0
 19 20  2  0
 12 21  1  0
 21 22  2  0
 21 23  1  0
 23 24  1  0
 24 25  1  0
 25 26  1  0
 26 27  1  0
 27 28  2  0
 27 29  1  0
 29 30  1  0
 30 31  2  0
 23 32  1  0
  5 33  1  0
 33 34  2  0
 34  3  1  0
 14  9  1  0
 20 15  1  0
 30 24  1  0
 32 11  1  0
  1 35  1  0
  1 36  1  0
  1 37  1  0
  2 38  1  0
  2 39  1  0
  4 40  1  0
 10 41  1  0
 13 42  1  0
 16 43  1  0
 17 44  1  0
 18 45  1  0
 20 46  1  0
 24 47  1  6
 25 48  1  0
 25 49  1  0
 26 50  1  0
 26 51  1  0
 29 52  1  0
 32 53  1  0
 32 54  1  0
 33 55  1  0
M  END
>  <meeko>  (287) 
{"is_sidechain": [true], "free_energy": -10.99, "intermolecular_energy": 0.0, "internal_energy": -10.99, "cluster_size": 9, "cluster_id": 1, "rank_in_cluster": 1}

>  <_RMSD_MCS_to_ref>  (287) 
1.08169696927251

$$$$
ligand
     RDKit          3D

 46 49  0  0  0  0  0  0  0  0999 V2000
   18.9090   19.1540    7.5370 C   0  0  0  0  0  0  0  0  0  0  0  0
   18.7730   17.6460    7.6780 C   0  0  0  0  0  0  0  0  0  0  0  0
   20.0670   16.9420    7.4640 C   0  0  0  0  0  0  0  0  0  0  0  0
   20.8670   16.2950    8.3860 C   0  0  0  0  0  0  0  0  0  0  0  0
   21.9330   15.8580    7.6540 N   0  0  0  0  0  0  0  0  0  0  0  0
   23.1410   14.8270    8.2010 S   0  0  0  0  0  6  0  0  0  0  0  0
   22.4640   13.6540    8.7210 O   0  0  0  0  0  0  0  0  0  0  0  0
   24.1110   14.7510    7.1260 O   0  0  0  0  0  0  0  0  0  0  0  0
   23.8650   15.7100    9.5560 C   0  0  0  0  0  0  0  0  0  0  0  0
   25.1920   16.1430    9.4730 C   0  0  0  0  0  0  0  0  0  0  0  0
   25.7550   16.8310   10.5470 C   0  0  0  0  0  0  0  0  0  0  0  0
   24.9880   17.0700   11.6950 C   0  0  0  0  0  0  0  0  0  0  0  0
   25.5510   17.7940   12.8510 C   0  0  0  0  0  0  0  0  0  0  0  0
   26.6830   18.2640   12.7800 O   0  0  0  0  0  0  0  0  0  0  0  0
   24.7260   17.9130   13.9610 N   0  0  0  0  0  0  0  0  0  0  0  0
   25.1970   18.6490   15.1390 C   0  0  1  0  0  0  0  0  0  0  0  0
   26.3270   17.9620   15.9080 C   0  0  0  0  0  0  0  0  0  0  0  0
   26.7100   18.8140   17.1090 C   0  0  0  0  0  0  0  0  0  0  0  0
   27.0960   20.2150   16.6910 C   0  0  0  0  0  0  0  0  0  0  0  0
   27.8310   20.9220   17.3750 O   0  0  0  0  0  0  0  0  0  0  0  0
   26.5150   20.6960   15.5440 N   0  0  0  0  0  0  0  0  0  0  0  0
   25.5790   20.0810   14.7460 C   0  0  0  0  0  0  0  0  0  0  0  0
   25.0190   20.7030   13.8450 O   0  0  0  0  0  0  0  0  0  0  0  0
   23.4190   17.4870   13.9090 C   0  0  0  0  0  0  0  0  0  0  0  0
   22.8760   16.8680   12.9140 N   0  0  0  0  0  0  0  0  0  0  0  0
   23.6660   16.6300   11.7840 C   0  0  0  0  0  0  0  0  0  0  0  0
   23.1060   15.9410   10.7080 C   0  0  0  0  0  0  0  0  0  0  0  0
   21.7450   16.1890    6.3510 C   0  0  0  0  0  0  0  0  0  0  0  0
   20.6240   16.8610    6.2030 N   0  0  0  0  0  0  0  0  0  0  0  0
   18.9504   19.6134    8.5356 H   0  0  0  0  0  0  0  0  0  0  0  0
   19.8320   19.3891    6.9867 H   0  0  0  0  0  0  0  0  0  0  0  0
   18.0430   19.5504    6.9867 H   0  0  0  0  0  0  0  0  0  0  0  0
   18.4080   17.4164    8.6899 H   0  0  0  0  0  0  0  0  0  0  0  0
   18.0678   17.2973    6.9092 H   0  0  0  0  0  0  0  0  0  0  0  0
   20.6863   16.1624    9.4629 H   0  0  0  0  0  0  0  0  0  0  0  0
   25.7860   15.9427    8.5691 H   0  0  0  0  0  0  0  0  0  0  0  0
   26.7954   17.1842   10.4934 H   0  0  0  0  0  0  0  0  0  0  0  0
   24.3529   18.6705   15.8440 H   0  0  0  0  0  0  0  0  0  0  0  0
   25.9890   16.9733   16.2519 H   0  0  0  0  0  0  0  0  0  0  0  0
   27.1997   17.8409   15.2494 H   0  0  0  0  0  0  0  0  0  0  0  0
   25.8532   18.8690   17.7966 H   0  0  0  0  0  0  0  0  0  0  0  0
   27.5765   18.3485   17.6014 H   0  0  0  0  0  0  0  0  0  0  0  0
   26.8176   21.6337   15.2439 H   0  0  0  0  0  0  0  0  0  0  0  0
   22.7856   17.6898   14.7851 H   0  0  0  0  0  0  0  0  0  0  0  0
   22.0686   15.5797   10.7654 H   0  0  0  0  0  0  0  0  0  0  0  0
   22.4339   15.9312    5.5331 H   0  0  0  0  0  0  0  0  0  0  0  0
  1  2  1  0
  2  3  1  0
  3  4  2  0
  4  5  1  0
  5  6  1  0
  6  7  2  0
  6  8  2  0
  6  9  1  0
  9 10  2  0
 10 11  1  0
 11 12  2  0
 12 13  1  0
 13 14  2  0
 13 15  1  0
 15 16  1  0
 16 17  1  0
 17 18  1  0
 18 19  1  0
 19 20  2  0
 19 21  1  0
 21 22  1  0
 22 23  2  0
 15 24  1  0
 24 25  2  0
 25 26  1  0
 26 27  2  0
  5 28  1  0
 28 29  2  0
 29  3  1  0
 27  9  1  0
 26 12  1  0
 22 16  1  0
  1 30  1  0
  1 31  1  0
  1 32  1  0
  2 33  1  0
  2 34  1  0
  4 35  1  0
 10 36  1  0
 11 37  1  0
 16 38  1  1
 17 39  1  0
 17 40  1  0
 18 41  1  0
 18 42  1  0
 21 43  1  0
 24 44  1  0
 27 45  1  0
 28 46  1  0
M  END
>  <meeko>  (288) 
{"is_sidechain": [true], "free_energy": -10.98, "intermolecular_energy": 0.0, "internal_energy": -10.98, "cluster_size": 16, "cluster_id": 1, "rank_in_cluster": 1}

>  <_RMSD_MCS_to_ref>  (288) 
0.6177289948764841

$$$$
ligand
     RDKit          3D

 47 50  0  0  0  0  0  0  0  0999 V2000
   18.9090   19.1540    7.5370 C   0  0  0  0  0  0  0  0  0  0  0  0
   18.7730   17.6460    7.6780 C   0  0  0  0  0  0  0  0  0  0  0  0
   20.0430   16.9360    7.3670 C   0  0  0  0  0  0  0  0  0  0  0  0
   20.8230   16.1510    8.1920 C   0  0  0  0  0  0  0  0  0  0  0  0
   21.8550   15.7480    7.3930 N   0  0  0  0  0  0  0  0  0  0  0  0
   23.1870   14.8630    7.8940 S   0  0  0  0  0  6  0  0  0  0  0  0
   24.2270   15.0560    6.9050 O   0  0  0  0  0  0  0  0  0  0  0  0
   22.6700   13.5510    8.2350 O   0  0  0  0  0  0  0  0  0  0  0  0
   23.8290   15.4980    9.4030 C   0  0  0  0  0  0  0  0  0  0  0  0
   24.9940   16.1970    9.6910 C   0  0  0  0  0  0  0  0  0  0  0  0
   25.0130   16.4710   11.0760 C   0  0  0  0  0  0  0  0  0  0  0  0
   23.8570   15.9340   11.5970 C   0  0  0  0  0  0  0  0  0  0  0  0
   23.2800   15.8660   12.8970 C   0  0  0  0  0  0  0  0  0  0  0  0
   23.9860   16.5010   14.0950 C   0  0  0  0  0  0  0  0  0  0  0  0
   24.2070   15.8720   15.1160 O   0  0  0  0  0  0  0  0  0  0  0  0
   24.3030   17.8270   13.9040 N   0  0  0  0  0  0  0  0  0  0  0  0
   24.7810   18.6640   14.9920 C   0  0  1  0  0  0  0  0  0  0  0  0
   25.8430   17.9620   15.8330 C   0  0  0  0  0  0  0  0  0  0  0  0
   26.3260   18.9000   16.9290 C   0  0  0  0  0  0  0  0  0  0  0  0
   26.8350   20.2000   16.3540 C   0  0  0  0  0  0  0  0  0  0  0  0
   27.7550   20.8310   16.8640 O   0  0  0  0  0  0  0  0  0  0  0  0
   26.1920   20.6720   15.2380 N   0  0  0  0  0  0  0  0  0  0  0  0
   25.3750   19.9490   14.4040 C   0  0  0  0  0  0  0  0  0  0  0  0
   25.1290   20.3330   13.2610 O   0  0  0  0  0  0  0  0  0  0  0  0
   22.1360   15.2800   13.0790 N   0  0  0  0  0  0  0  0  0  0  0  0
   21.5280   14.7230   11.9820 C   0  0  0  0  0  0  0  0  0  0  0  0
   21.9710   14.7320   10.7620 N   0  0  0  0  0  0  0  0  0  0  0  0
   23.1490   15.3540   10.5850 N   0  0  0  0  0  0  0  0  0  0  0  0
   21.7070   16.2990    6.1610 C   0  0  0  0  0  0  0  0  0  0  0  0
   20.6060   17.0220    6.1080 N   0  0  0  0  0  0  0  0  0  0  0  0
   18.9504   19.6134    8.5356 H   0  0  0  0  0  0  0  0  0  0  0  0
   19.8320   19.3891    6.9867 H   0  0  0  0  0  0  0  0  0  0  0  0
   18.0430   19.5504    6.9867 H   0  0  0  0  0  0  0  0  0  0  0  0
   18.4802   17.4118    8.7121 H   0  0  0  0  0  0  0  0  0  0  0  0
   18.0118   17.3068    6.9600 H   0  0  0  0  0  0  0  0  0  0  0  0
   20.6525   15.9060    9.2507 H   0  0  0  0  0  0  0  0  0  0  0  0
   25.7682   16.4871    8.9654 H   0  0  0  0  0  0  0  0  0  0  0  0
   25.7971   17.0079   11.6299 H   0  0  0  0  0  0  0  0  0  0  0  0
   24.1987   18.2370   12.9649 H   0  0  0  0  0  0  0  0  0  0  0  0
   23.9275   18.8875   15.6489 H   0  0  0  0  0  0  0  0  0  0  0  0
   25.4116   17.0582   16.2881 H   0  0  0  0  0  0  0  0  0  0  0  0
   26.6913   17.6813   15.1914 H   0  0  0  0  0  0  0  0  0  0  0  0
   25.4905   19.1131   17.6121 H   0  0  0  0  0  0  0  0  0  0  0  0
   27.1523   18.4106   17.4654 H   0  0  0  0  0  0  0  0  0  0  0  0
   26.3359   21.6644   15.0029 H   0  0  0  0  0  0  0  0  0  0  0  0
   20.5666   14.2170   12.1543 H   0  0  0  0  0  0  0  0  0  0  0  0
   22.4077   16.1614    5.3243 H   0  0  0  0  0  0  0  0  0  0  0  0
  1  2  1  0
  2  3  1  0
  3  4  2  0
  4  5  1  0
  5  6  1  0
  6  7  2  0
  6  8  2  0
  6  9  1  0
  9 10  2  0
 10 11  1  0
 11 12  2  0
 12 13  1  0
 13 14  1  0
 14 15  2  0
 14 16  1  0
 16 17  1  0
 17 18  1  0
 18 19  1  0
 19 20  1  0
 20 21  2  0
 20 22  1  0
 22 23  1  0
 23 24  2  0
 13 25  2  0
 25 26  1  0
 26 27  2  0
 27 28  1  0
  5 29  1  0
 29 30  2  0
 30  3  1  0
 28  9  1  0
 28 12  1  0
 23 17  1  0
  1 31  1  0
  1 32  1  0
  1 33  1  0
  2 34  1  0
  2 35  1  0
  4 36  1  0
 10 37  1  0
 11 38  1  0
 16 39  1  0
 17 40  1  1
 18 41  1  0
 18 42  1  0
 19 43  1  0
 19 44  1  0
 22 45  1  0
 26 46  1  0
 29 47  1  0
M  END
>  <meeko>  (289) 
{"is_sidechain": [true], "free_energy": -10.98, "intermolecular_energy": 0.0, "internal_energy": -10.98, "cluster_size": 11, "cluster_id": 1, "rank_in_cluster": 1}

>  <_RMSD_MCS_to_ref>  (289) 
0.4214020249911799

$$$$
ligand
     RDKit          3D

 53 56  0  0  0  0  0  0  0  0999 V2000
   18.9090   19.1540    7.5370 C   0  0  0  0  0  0  0  0  0  0  0  0
   18.7730   17.6460    7.6780 C   0  0  0  0  0  0  0  0  0  0  0  0
   20.0940   16.9630    7.7040 C   0  0  0  0  0  0  0  0  0  0  0  0
   20.8990   16.6670    8.7870 C   0  0  0  0  0  0  0  0  0  0  0  0
   21.9730   16.0230    8.2410 N   0  0  0  0  0  0  0  0  0  0  0  0
   23.3860   15.6110    9.0500 S   0  0  0  0  0  6  0  0  0  0  0  0
   23.8070   14.3410    8.4910 O   0  0  0  0  0  0  0  0  0  0  0  0
   24.2250   16.7920    9.0130 O   0  0  0  0  0  0  0  0  0  0  0  0
   22.8500   15.3440   10.7170 C   0  0  0  0  0  0  0  0  0  0  0  0
   21.7700   14.4930   10.9680 C   0  0  0  0  0  0  0  0  0  0  0  0
   21.3330   14.2810   12.2850 C   0  0  0  0  0  0  0  0  0  0  0  0
   21.9880   14.9310   13.3550 C   0  0  0  0  0  0  0  0  0  0  0  0
   23.1080   15.7430   13.0840 C   0  0  0  0  0  0  0  0  0  0  0  0
   23.8860   16.4290   14.1440 C   0  0  0  0  0  0  0  0  0  0  0  0
   24.2670   15.8050   15.1260 O   0  0  0  0  0  0  0  0  0  0  0  0
   24.0740   17.7790   13.9690 N   0  0  0  0  0  0  0  0  0  0  0  0
   24.6530   18.6030   15.0200 C   0  0  1  0  0  0  0  0  0  0  0  0
   25.7730   17.8850   15.7650 C   0  0  0  0  0  0  0  0  0  0  0  0
   26.3590   18.8140   16.8160 C   0  0  0  0  0  0  0  0  0  0  0  0
   26.8340   20.1090   16.2010 C   0  0  0  0  0  0  0  0  0  0  0  0
   27.8170   20.7150   16.6150 O   0  0  0  0  0  0  0  0  0  0  0  0
   26.0910   20.6000   15.1580 N   0  0  0  0  0  0  0  0  0  0  0  0
   25.2150   19.8790   14.3860 C   0  0  0  0  0  0  0  0  0  0  0  0
   24.9000   20.2560   13.2570 O   0  0  0  0  0  0  0  0  0  0  0  0
   23.5270   15.9630   11.7670 C   0  0  0  0  0  0  0  0  0  0  0  0
   21.4650   14.7110   14.7580 C   0  0  0  0  0  0  0  0  0  0  0  0
   20.0270   14.2050   14.7430 C   0  0  0  0  0  0  0  0  0  0  0  0
   19.9460   13.0540   13.9040 O   0  0  0  0  0  0  0  0  0  0  0  0
   20.1250   13.4020   12.5290 C   0  0  0  0  0  0  0  0  0  0  0  0
   21.8320   15.9890    6.8910 C   0  0  0  0  0  0  0  0  0  0  0  0
   20.6920   16.5420    6.5320 N   0  0  0  0  0  0  0  0  0  0  0  0
   18.9504   19.6134    8.5356 H   0  0  0  0  0  0  0  0  0  0  0  0
   19.8320   19.3891    6.9867 H   0  0  0  0  0  0  0  0  0  0  0  0
   18.0430   19.5504    6.9867 H   0  0  0  0  0  0  0  0  0  0  0  0
   18.2410   17.4243    8.6149 H   0  0  0  0  0  0  0  0  0  0  0  0
   18.2174   17.2738    6.8046 H   0  0  0  0  0  0  0  0  0  0  0  0
   20.7168   16.8973    9.8471 H   0  0  0  0  0  0  0  0  0  0  0  0
   21.2620   13.9889   10.1327 H   0  0  0  0  0  0  0  0  0  0  0  0
   23.8001   18.2160   13.0774 H   0  0  0  0  0  0  0  0  0  0  0  0
   23.8613   18.8324   15.7484 H   0  0  0  0  0  0  0  0  0  0  0  0
   25.3704   16.9856   16.2540 H   0  0  0  0  0  0  0  0  0  0  0  0
   26.5595   17.5942   15.0530 H   0  0  0  0  0  0  0  0  0  0  0  0
   25.5874   19.0363   17.5678 H   0  0  0  0  0  0  0  0  0  0  0  0
   27.2217   18.3131   17.2796 H   0  0  0  0  0  0  0  0  0  0  0  0
   26.2003   21.5994   14.9341 H   0  0  0  0  0  0  0  0  0  0  0  0
   24.3849   16.6201   11.5615 H   0  0  0  0  0  0  0  0  0  0  0  0
   22.1001   13.9692   15.2644 H   0  0  0  0  0  0  0  0  0  0  0  0
   21.4877   15.6732   15.2906 H   0  0  0  0  0  0  0  0  0  0  0  0
   19.7197   13.9383   15.7650 H   0  0  0  0  0  0  0  0  0  0  0  0
   19.3613   14.9917   14.3583 H   0  0  0  0  0  0  0  0  0  0  0  0
   20.2441   12.4760   11.9474 H   0  0  0  0  0  0  0  0  0  0  0  0
   19.2382   13.9749   12.2203 H   0  0  0  0  0  0  0  0  0  0  0  0
   22.5672   15.5596    6.1945 H   0  0  0  0  0  0  0  0  0  0  0  0
  1  2  1  0
  2  3  1  0
  3  4  2  0
  4  5  1  0
  5  6  1  0
  6  7  2  0
  6  8  2  0
  6  9  1  0
  9 10  2  0
 10 11  1  0
 11 12  2  0
 12 13  1  0
 13 14  1  0
 14 15  2  0
 14 16  1  0
 16 17  1  0
 17 18  1  0
 18 19  1  0
 19 20  1  0
 20 21  2  0
 20 22  1  0
 22 23  1  0
 23 24  2  0
 13 25  2  0
 12 26  1  0
 26 27  1  0
 27 28  1  0
 28 29  1  0
  5 30  1  0
 30 31  2  0
 31  3  1  0
 25  9  1  0
 29 11  1  0
 23 17  1  0
  1 32  1  0
  1 33  1  0
  1 34  1  0
  2 35  1  0
  2 36  1  0
  4 37  1  0
 10 38  1  0
 16 39  1  0
 17 40  1  1
 18 41  1  0
 18 42  1  0
 19 43  1  0
 19 44  1  0
 22 45  1  0
 25 46  1  0
 26 47  1  0
 26 48  1  0
 27 49  1  0
 27 50  1  0
 29 51  1  0
 29 52  1  0
 30 53  1  0
M  END
>  <meeko>  (290) 
{"is_sidechain": [true], "free_energy": -10.98, "intermolecular_energy": 0.0, "internal_energy": -10.98, "cluster_size": 19, "cluster_id": 1, "rank_in_cluster": 1}

>  <_RMSD_MCS_to_ref>  (290) 
0.4365496026290208

$$$$
ligand
     RDKit          3D

 51 54  0  0  0  0  0  0  0  0999 V2000
   18.9090   19.1540    7.5370 C   0  0  0  0  0  0  0  0  0  0  0  0
   18.7730   17.6460    7.6780 C   0  0  0  0  0  0  0  0  0  0  0  0
   20.0930   16.9590    7.6610 C   0  0  0  0  0  0  0  0  0  0  0  0
   20.9410   16.6820    8.7160 C   0  0  0  0  0  0  0  0  0  0  0  0
   21.9880   16.0230    8.1390 N   0  0  0  0  0  0  0  0  0  0  0  0
   23.4420   15.6360    8.8880 S   0  0  0  0  0  6  0  0  0  0  0  0
   23.8580   14.3630    8.3320 O   0  0  0  0  0  0  0  0  0  0  0  0
   24.2610   16.8290    8.7820 O   0  0  0  0  0  0  0  0  0  0  0  0
   22.9870   15.3870   10.5800 C   0  0  0  0  0  0  0  0  0  0  0  0
   23.8380   15.9200   11.5610 C   0  0  0  0  0  0  0  0  0  0  0  0
   23.5540   15.7340   12.9190 C   0  0  0  0  0  0  0  0  0  0  0  0
   24.5040   16.2970   13.9180 C   0  0  0  0  0  0  0  0  0  0  0  0
   25.0200   15.5610   14.7500 O   0  0  0  0  0  0  0  0  0  0  0  0
   24.7780   17.6420   13.8260 N   0  0  0  0  0  0  0  0  0  0  0  0
   25.8120   18.2550   14.6490 C   0  0  2  0  0  0  0  0  0  0  0  0
   25.6290   17.9520   16.1330 C   0  0  0  0  0  0  0  0  0  0  0  0
   26.7100   18.6610   16.9330 C   0  0  0  0  0  0  0  0  0  0  0  0
   26.7120   20.1470   16.6570 C   0  0  0  0  0  0  0  0  0  0  0  0
   26.9900   20.9760   17.5170 O   0  0  0  0  0  0  0  0  0  0  0  0
   26.4100   20.5340   15.3760 N   0  0  0  0  0  0  0  0  0  0  0  0
   25.7560   19.7710   14.4410 C   0  0  0  0  0  0  0  0  0  0  0  0
   25.1680   20.2870   13.4900 O   0  0  0  0  0  0  0  0  0  0  0  0
   22.4250   15.0000   13.2960 C   0  0  0  0  0  0  0  0  0  0  0  0
   21.5650   14.4820   12.3180 C   0  0  0  0  0  0  0  0  0  0  0  0
   20.3780   13.7210   12.7140 C   0  0  0  0  0  0  0  0  0  0  0  0
   19.5480   13.2360   11.7830 C   0  0  0  0  0  0  0  0  0  0  0  0
   19.7970   13.4590   10.3420 C   0  0  0  0  0  0  0  0  0  0  0  0
   19.0200   13.0270    9.4990 O   0  0  0  0  0  0  0  0  0  0  0  0
   20.9260   14.1590   10.0150 N   0  0  0  0  0  0  0  0  0  0  0  0
   21.8360   14.6840   10.9510 C   0  0  0  0  0  0  0  0  0  0  0  0
   21.7890   15.9580    6.7970 C   0  0  0  0  0  0  0  0  0  0  0  0
   20.6390   16.5130    6.4740 N   0  0  0  0  0  0  0  0  0  0  0  0
   18.9504   19.6134    8.5356 H   0  0  0  0  0  0  0  0  0  0  0  0
   19.8320   19.3891    6.9867 H   0  0  0  0  0  0  0  0  0  0  0  0
   18.0430   19.5504    6.9867 H   0  0  0  0  0  0  0  0  0  0  0  0
   18.2698   17.4231    8.6304 H   0  0  0  0  0  0  0  0  0  0  0  0
   18.1894   17.2778    6.8214 H   0  0  0  0  0  0  0  0  0  0  0  0
   20.8039   16.9346    9.7778 H   0  0  0  0  0  0  0  0  0  0  0  0
   24.7321   16.4864   11.2612 H   0  0  0  0  0  0  0  0  0  0  0  0
   24.2440   18.2244   13.1653 H   0  0  0  0  0  0  0  0  0  0  0  0
   26.7837   17.8393   14.3440 H   0  0  0  0  0  0  0  0  0  0  0  0
   24.6399   18.3053   16.4599 H   0  0  0  0  0  0  0  0  0  0  0  0
   25.7040   16.8669   16.2972 H   0  0  0  0  0  0  0  0  0  0  0  0
   26.5286   18.4960   18.0053 H   0  0  0  0  0  0  0  0  0  0  0  0
   27.6867   18.2514   16.6360 H   0  0  0  0  0  0  0  0  0  0  0  0
   26.6995   21.4804   15.0907 H   0  0  0  0  0  0  0  0  0  0  0  0
   22.2116   14.8290   14.3615 H   0  0  0  0  0  0  0  0  0  0  0  0
   20.1681   13.5476   13.7798 H   0  0  0  0  0  0  0  0  0  0  0  0
   18.6639   12.6607   12.0952 H   0  0  0  0  0  0  0  0  0  0  0  0
   21.1233   14.3121    9.0157 H   0  0  0  0  0  0  0  0  0  0  0  0
   22.4900   15.5053    6.0803 H   0  0  0  0  0  0  0  0  0  0  0  0
  1  2  1  0
  2  3  1  0
  3  4  2  0
  4  5  1  0
  5  6  1  0
  6  7  2  0
  6  8  2  0
  6  9  1  0
  9 10  2  0
 10 11  1  0
 11 12  1  0
 12 13  2  0
 12 14  1  0
 14 15  1  0
 15 16  1  0
 16 17  1  0
 17 18  1  0
 18 19  2  0
 18 20  1  0
 20 21  1  0
 21 22  2  0
 11 23  2  0
 23 24  1  0
 24 25  1  0
 25 26  2  0
 26 27  1  0
 27 28  2  0
 27 29  1  0
 29 30  1  0
  5 31  1  0
 31 32  2  0
 32  3  1  0
 30  9  1  0
 21 15  1  0
 30 24  2  0
  1 33  1  0
  1 34  1  0
  1 35  1  0
  2 36  1  0
  2 37  1  0
  4 38  1  0
 10 39  1  0
 14 40  1  0
 15 41  1  6
 16 42  1  0
 16 43  1  0
 17 44  1  0
 17 45  1  0
 20 46  1  0
 23 47  1  0
 25 48  1  0
 26 49  1  0
 29 50  1  0
 31 51  1  0
M  END
>  <meeko>  (291) 
{"is_sidechain": [true], "free_energy": -10.98, "intermolecular_energy": 0.0, "internal_energy": -10.98, "cluster_size": 20, "cluster_id": 1, "rank_in_cluster": 1}

>  <_RMSD_MCS_to_ref>  (291) 
0.5734663605362279

$$$$
ligand
     RDKit          3D

 45 48  0  0  0  0  0  0  0  0999 V2000
   18.9090   19.1540    7.5370 C   0  0  0  0  0  0  0  0  0  0  0  0
   18.7730   17.6460    7.6780 C   0  0  0  0  0  0  0  0  0  0  0  0
   20.0680   16.9930    8.0090 C   0  0  0  0  0  0  0  0  0  0  0  0
   20.4090   16.2560    9.1270 C   0  0  0  0  0  0  0  0  0  0  0  0
   21.7110   15.9070    8.9100 N   0  0  0  0  0  0  0  0  0  0  0  0
   22.6430   14.9380    9.9170 S   0  0  0  0  0  6  0  0  0  0  0  0
   21.9990   14.9290   11.2150 O   0  0  0  0  0  0  0  0  0  0  0  0
   22.8470   13.7200    9.1540 O   0  0  0  0  0  0  0  0  0  0  0  0
   24.2040   15.7580   10.0720 C   0  0  0  0  0  0  0  0  0  0  0  0
   25.1050   15.6770    8.9970 C   0  0  0  0  0  0  0  0  0  0  0  0
   26.3450   16.3060    9.0800 C   0  0  0  0  0  0  0  0  0  0  0  0
   26.6820   17.0070   10.2330 C   0  0  0  0  0  0  0  0  0  0  0  0
   25.7720   17.0670   11.2980 C   0  0  0  0  0  0  0  0  0  0  0  0
   26.0910   17.8030   12.5190 C   0  0  0  0  0  0  0  0  0  0  0  0
   27.1830   18.3500   12.6400 O   0  0  0  0  0  0  0  0  0  0  0  0
   25.0880   17.8380   13.4690 N   0  0  0  0  0  0  0  0  0  0  0  0
   25.2630   18.5810   14.7160 C   0  0  1  0  0  0  0  0  0  0  0  0
   26.2800   17.9530   15.6670 C   0  0  0  0  0  0  0  0  0  0  0  0
   26.3710   18.7900   16.9340 C   0  0  0  0  0  0  0  0  0  0  0  0
   26.7160   20.2260   16.6220 C   0  0  0  0  0  0  0  0  0  0  0  0
   27.2870   20.9530   17.4310 O   0  0  0  0  0  0  0  0  0  0  0  0
   26.2920   20.7120   15.4110 N   0  0  0  0  0  0  0  0  0  0  0  0
   25.6080   20.0440   14.4190 C   0  0  0  0  0  0  0  0  0  0  0  0
   25.2400   20.6420   13.4090 O   0  0  0  0  0  0  0  0  0  0  0  0
   23.9080   17.1660   13.3420 N   0  0  0  0  0  0  0  0  0  0  0  0
   23.6410   16.4960   12.3250 N   0  0  0  0  0  0  0  0  0  0  0  0
   24.5300   16.4490   11.2470 C   0  0  0  0  0  0  0  0  0  0  0  0
   22.1200   16.4160    7.7210 C   0  0  0  0  0  0  0  0  0  0  0  0
   21.1410   17.0810    7.1440 N   0  0  0  0  0  0  0  0  0  0  0  0
   18.9504   19.6134    8.5356 H   0  0  0  0  0  0  0  0  0  0  0  0
   19.8320   19.3891    6.9867 H   0  0  0  0  0  0  0  0  0  0  0  0
   18.0430   19.5504    6.9867 H   0  0  0  0  0  0  0  0  0  0  0  0
   18.0518   17.4289    8.4797 H   0  0  0  0  0  0  0  0  0  0  0  0
   18.4307   17.2463    6.7121 H   0  0  0  0  0  0  0  0  0  0  0  0
   19.7771   16.0077    9.9924 H   0  0  0  0  0  0  0  0  0  0  0  0
   24.8314   15.1173    8.0905 H   0  0  0  0  0  0  0  0  0  0  0  0
   27.0526   16.2487    8.2397 H   0  0  0  0  0  0  0  0  0  0  0  0
   27.6566   17.5113   10.3089 H   0  0  0  0  0  0  0  0  0  0  0  0
   24.2999   18.5366   15.2456 H   0  0  0  0  0  0  0  0  0  0  0  0
   25.9607   16.9321   15.9237 H   0  0  0  0  0  0  0  0  0  0  0  0
   27.2653   17.9164   15.1793 H   0  0  0  0  0  0  0  0  0  0  0  0
   25.4018   18.7595   17.4534 H   0  0  0  0  0  0  0  0  0  0  0  0
   27.1671   18.3727   17.5681 H   0  0  0  0  0  0  0  0  0  0  0  0
   26.5126   21.6997   15.2196 H   0  0  0  0  0  0  0  0  0  0  0  0
   23.1278   16.2908    7.2983 H   0  0  0  0  0  0  0  0  0  0  0  0
  1  2  1  0
  2  3  1  0
  3  4  2  0
  4  5  1  0
  5  6  1  0
  6  7  2  0
  6  8  2  0
  6  9  1  0
  9 10  2  0
 10 11  1  0
 11 12  2  0
 12 13  1  0
 13 14  1  0
 14 15  2  0
 14 16  1  0
 16 17  1  0
 17 18  1  0
 18 19  1  0
 19 20  1  0
 20 21  2  0
 20 22  1  0
 22 23  1  0
 23 24  2  0
 16 25  1  0
 25 26  2  0
 26 27  1  0
  5 28  1  0
 28 29  2  0
 29  3  1  0
 27  9  1  0
 27 13  2  0
 23 17  1  0
  1 30  1  0
  1 31  1  0
  1 32  1  0
  2 33  1  0
  2 34  1  0
  4 35  1  0
 10 36  1  0
 11 37  1  0
 12 38  1  0
 17 39  1  1
 18 40  1  0
 18 41  1  0
 19 42  1  0
 19 43  1  0
 22 44  1  0
 28 45  1  0
M  END
>  <meeko>  (292) 
{"is_sidechain": [true], "free_energy": -10.97, "intermolecular_energy": 0.0, "internal_energy": -10.97, "cluster_size": 19, "cluster_id": 1, "rank_in_cluster": 1}

>  <_RMSD_MCS_to_ref>  (292) 
0.47722403311000383

$$$$
ligand
     RDKit          3D

 46 49  0  0  0  0  0  0  0  0999 V2000
   18.9090   19.1540    7.5370 C   0  0  0  0  0  0  0  0  0  0  0  0
   18.7730   17.6460    7.6780 C   0  0  0  0  0  0  0  0  0  0  0  0
   20.0610   16.9990    8.0490 C   0  0  0  0  0  0  0  0  0  0  0  0
   21.2030   16.8390    7.2900 C   0  0  0  0  0  0  0  0  0  0  0  0
   22.0550   16.1520    8.1070 N   0  0  0  0  0  0  0  0  0  0  0  0
   23.6940   15.8820    7.8180 S   0  0  0  0  0  6  0  0  0  0  0  0
   23.7220   14.8470    6.8020 O   0  0  0  0  0  0  0  0  0  0  0  0
   24.2470   17.2050    7.5790 O   0  0  0  0  0  0  0  0  0  0  0  0
   24.3010   15.2930    9.2150 O   0  0  0  0  0  0  0  0  0  0  0  0
   24.9070   16.1330   10.1020 C   0  0  0  0  0  0  0  0  0  0  0  0
   26.1950   16.5750    9.7800 C   0  0  0  0  0  0  0  0  0  0  0  0
   26.9090   17.4220   10.6500 C   0  0  0  0  0  0  0  0  0  0  0  0
   26.3560   17.8360   11.8670 C   0  0  0  0  0  0  0  0  0  0  0  0
   25.0920   17.3780   12.1790 C   0  0  0  0  0  0  0  0  0  0  0  0
   24.3850   16.5380   11.3140 C   0  0  0  0  0  0  0  0  0  0  0  0
   23.1790   16.2110   11.9330 N   0  0  0  0  0  0  0  0  0  0  0  0
   23.1180   16.8280   13.1860 C   0  0  0  0  0  0  0  0  0  0  0  0
   22.2170   16.7080   13.9980 O   0  0  0  0  0  0  0  0  0  0  0  0
   24.2960   17.5910   13.3180 N   0  0  0  0  0  0  0  0  0  0  0  0
   24.6860   18.3150   14.5100 C   0  0  1  0  0  0  0  0  0  0  0  0
   25.8230   17.6440   15.2810 C   0  0  0  0  0  0  0  0  0  0  0  0
   26.1440   18.4620   16.5220 C   0  0  0  0  0  0  0  0  0  0  0  0
   26.4900   19.8870   16.1640 C   0  0  0  0  0  0  0  0  0  0  0  0
   27.1620   20.6020   16.9030 O   0  0  0  0  0  0  0  0  0  0  0  0
   25.9460   20.3810   15.0060 N   0  0  0  0  0  0  0  0  0  0  0  0
   25.0580   19.7620   14.1540 C   0  0  0  0  0  0  0  0  0  0  0  0
   24.5360   20.3980   13.2400 O   0  0  0  0  0  0  0  0  0  0  0  0
   21.4710   15.9890    9.3210 C   0  0  0  0  0  0  0  0  0  0  0  0
   20.2460   16.4720    9.3120 N   0  0  0  0  0  0  0  0  0  0  0  0
   18.9504   19.6134    8.5356 H   0  0  0  0  0  0  0  0  0  0  0  0
   19.8320   19.3891    6.9867 H   0  0  0  0  0  0  0  0  0  0  0  0
   18.0430   19.5504    6.9867 H   0  0  0  0  0  0  0  0  0  0  0  0
   18.0292   17.4286    8.4587 H   0  0  0  0  0  0  0  0  0  0  0  0
   18.4597   17.2420    6.7040 H   0  0  0  0  0  0  0  0  0  0  0  0
   21.3851   17.1856    6.2621 H   0  0  0  0  0  0  0  0  0  0  0  0
   26.6566   16.2564    8.8337 H   0  0  0  0  0  0  0  0  0  0  0  0
   27.9162   17.7631   10.3686 H   0  0  0  0  0  0  0  0  0  0  0  0
   26.9073   18.5006   12.5485 H   0  0  0  0  0  0  0  0  0  0  0  0
   22.4471   15.6087   11.5298 H   0  0  0  0  0  0  0  0  0  0  0  0
   23.8138   18.3110   15.1802 H   0  0  0  0  0  0  0  0  0  0  0  0
   25.5163   16.6305   15.5788 H   0  0  0  0  0  0  0  0  0  0  0  0
   26.7152   17.5830   14.6404 H   0  0  0  0  0  0  0  0  0  0  0  0
   25.2683   18.4621   17.1877 H   0  0  0  0  0  0  0  0  0  0  0  0
   27.0124   18.0086   17.0222 H   0  0  0  0  0  0  0  0  0  0  0  0
   26.2375   21.3326   14.7405 H   0  0  0  0  0  0  0  0  0  0  0  0
   21.9534   15.5192   10.1908 H   0  0  0  0  0  0  0  0  0  0  0  0
  1  2  1  0
  2  3  1  0
  3  4  2  0
  4  5  1  0
  5  6  1  0
  6  7  2  0
  6  8  2  0
  6  9  1  0
  9 10  1  0
 10 11  2  0
 11 12  1  0
 12 13  2  0
 13 14  1  0
 14 15  2  0
 15 16  1  0
 16 17  1  0
 17 18  2  0
 17 19  1  0
 19 20  1  0
 20 21  1  0
 21 22  1  0
 22 23  1  0
 23 24  2  0
 23 25  1  0
 25 26  1  0
 26 27  2  0
  5 28  1  0
 28 29  2  0
 29  3  1  0
 15 10  1  0
 26 20  1  0
 19 14  1  0
  1 30  1  0
  1 31  1  0
  1 32  1  0
  2 33  1  0
  2 34  1  0
  4 35  1  0
 11 36  1  0
 12 37  1  0
 13 38  1  0
 16 39  1  0
 20 40  1  1
 21 41  1  0
 21 42  1  0
 22 43  1  0
 22 44  1  0
 25 45  1  0
 28 46  1  0
M  END
>  <meeko>  (293) 
{"is_sidechain": [true], "free_energy": -10.97, "intermolecular_energy": 0.0, "internal_energy": -10.97, "cluster_size": 19, "cluster_id": 1, "rank_in_cluster": 1}

>  <_RMSD_MCS_to_ref>  (293) 
0.3318868615791971

$$$$
ligand
     RDKit          3D

 50 53  0  0  0  0  0  0  0  0999 V2000
   18.9090   19.1530    7.5370 C   0  0  0  0  0  0  0  0  0  0  0  0
   18.7730   17.6470    7.6780 C   0  0  0  0  0  0  0  0  0  0  0  0
   20.0920   16.9570    7.6920 C   0  0  0  0  0  0  0  0  0  0  0  0
   20.9540   16.7510    8.7520 C   0  0  0  0  0  0  0  0  0  0  0  0
   21.9820   16.0330    8.2130 N   0  0  0  0  0  0  0  0  0  0  0  0
   23.4270   15.6560    8.9690 S   0  0  0  0  0  6  0  0  0  0  0  0
   23.8110   14.3360    8.5100 O   0  0  0  0  0  0  0  0  0  0  0  0
   24.2790   16.8200    8.8280 O   0  0  0  0  0  0  0  0  0  0  0  0
   23.1250   15.4890   10.7160 C   0  0  0  0  0  0  0  0  0  0  0  0
   23.8320   16.2280   11.6470 O   0  0  0  0  0  0  0  0  0  0  0  0
   23.3990   15.8870   12.9040 C   0  0  0  0  0  0  0  0  0  0  0  0
   24.0040   16.5150   14.0620 C   0  0  0  0  0  0  0  0  0  0  0  0
   24.2100   15.9350   15.1240 O   0  0  0  0  0  0  0  0  0  0  0  0
   24.3290   17.8390   13.8820 N   0  0  0  0  0  0  0  0  0  0  0  0
   24.8290   18.6670   14.9650 C   0  0  1  0  0  0  0  0  0  0  0  0
   25.9370   17.9680   15.7460 C   0  0  0  0  0  0  0  0  0  0  0  0
   26.4420   18.8880   16.8450 C   0  0  0  0  0  0  0  0  0  0  0  0
   26.9010   20.2150   16.2840 C   0  0  0  0  0  0  0  0  0  0  0  0
   27.8170   20.8590   16.7860 O   0  0  0  0  0  0  0  0  0  0  0  0
   26.2150   20.6930   15.1970 N   0  0  0  0  0  0  0  0  0  0  0  0
   25.3680   19.9780   14.3870 C   0  0  0  0  0  0  0  0  0  0  0  0
   25.0540   20.3940   13.2720 O   0  0  0  0  0  0  0  0  0  0  0  0
   22.4040   14.9410   12.7930 C   0  0  0  0  0  0  0  0  0  0  0  0
   22.2330   14.6840   11.4060 C   0  0  0  0  0  0  0  0  0  0  0  0
   21.2250   13.7110   10.9000 C   0  0  0  0  0  0  0  0  0  0  0  0
   20.7320   12.8570   11.9540 O   0  0  0  0  0  0  0  0  0  0  0  0
   20.3670   13.5900   13.1390 C   0  0  0  0  0  0  0  0  0  0  0  0
   21.6010   14.2170   13.8150 C   0  0  0  0  0  0  0  0  0  0  0  0
   21.7690   15.8830    6.8800 C   0  0  0  0  0  0  0  0  0  0  0  0
   20.6200   16.4230    6.5330 N   0  0  0  0  0  0  0  0  0  0  0  0
   18.9505   19.6125    8.5356 H   0  0  0  0  0  0  0  0  0  0  0  0
   19.8320   19.3879    6.9867 H   0  0  0  0  0  0  0  0  0  0  0  0
   18.0430   19.5494    6.9867 H   0  0  0  0  0  0  0  0  0  0  0  0
   18.2488   17.4262    8.6195 H   0  0  0  0  0  0  0  0  0  0  0  0
   18.2107   17.2780    6.8076 H   0  0  0  0  0  0  0  0  0  0  0  0
   20.8382   17.0885    9.7925 H   0  0  0  0  0  0  0  0  0  0  0  0
   24.2139   18.2573   12.9478 H   0  0  0  0  0  0  0  0  0  0  0  0
   23.9971   18.8620   15.6577 H   0  0  0  0  0  0  0  0  0  0  0  0
   25.5426   17.0440   16.1941 H   0  0  0  0  0  0  0  0  0  0  0  0
   26.7653   17.7218   15.0654 H   0  0  0  0  0  0  0  0  0  0  0  0
   25.6296   19.0653   17.5651 H   0  0  0  0  0  0  0  0  0  0  0  0
   27.2991   18.4039   17.3360 H   0  0  0  0  0  0  0  0  0  0  0  0
   26.3486   21.6876   14.9652 H   0  0  0  0  0  0  0  0  0  0  0  0
   20.3801   14.2660   10.4662 H   0  0  0  0  0  0  0  0  0  0  0  0
   21.7100   13.0769   10.1432 H   0  0  0  0  0  0  0  0  0  0  0  0
   19.6651   14.3905   12.8625 H   0  0  0  0  0  0  0  0  0  0  0  0
   19.9016   12.8904   13.8490 H   0  0  0  0  0  0  0  0  0  0  0  0
   21.2752   14.9220   14.5940 H   0  0  0  0  0  0  0  0  0  0  0  0
   22.2129   13.4261   14.2734 H   0  0  0  0  0  0  0  0  0  0  0  0
   22.4601   15.3805    6.1873 H   0  0  0  0  0  0  0  0  0  0  0  0
  1  2  1  0
  2  3  1  0
  3  4  2  0
  4  5  1  0
  5  6  1  0
  6  7  2  0
  6  8  2  0
  6  9  1  0
  9 10  1  0
 10 11  1  0
 11 12  1  0
 12 13  2  0
 12 14  1  0
 14 15  1  0
 15 16  1  0
 16 17  1  0
 17 18  1  0
 18 19  2  0
 18 20  1  0
 20 21  1  0
 21 22  2  0
 11 23  2  0
 23 24  1  0
 24 25  1  0
 25 26  1  0
 26 27  1  0
 27 28  1  0
  5 29  1  0
 29 30  2  0
 30  3  1  0
 24  9  2  0
 21 15  1  0
 28 23  1  0
  1 31  1  0
  1 32  1  0
  1 33  1  0
  2 34  1  0
  2 35  1  0
  4 36  1  0
 14 37  1  0
 15 38  1  1
 16 39  1  0
 16 40  1  0
 17 41  1  0
 17 42  1  0
 20 43  1  0
 25 44  1  0
 25 45  1  0
 27 46  1  0
 27 47  1  0
 28 48  1  0
 28 49  1  0
 29 50  1  0
M  END
>  <meeko>  (294) 
{"is_sidechain": [true], "free_energy": -10.97, "intermolecular_energy": 0.0, "internal_energy": -10.97, "cluster_size": 20, "cluster_id": 1, "rank_in_cluster": 1}

>  <_RMSD_MCS_to_ref>  (294) 
0.4337533861539297

$$$$
ligand
     RDKit          3D

 49 52  0  0  0  0  0  0  0  0999 V2000
   18.9090   19.1540    7.5370 C   0  0  0  0  0  0  0  0  0  0  0  0
   18.7730   17.6460    7.6780 C   0  0  0  0  0  0  0  0  0  0  0  0
   20.0910   16.9570    7.6500 C   0  0  0  0  0  0  0  0  0  0  0  0
   20.9460   16.6750    8.6980 C   0  0  0  0  0  0  0  0  0  0  0  0
   21.9970   16.0340    8.1060 N   0  0  0  0  0  0  0  0  0  0  0  0
   23.3140   15.3500    8.8930 S   0  0  0  0  0  6  0  0  0  0  0  0
   23.2860   13.9420    8.5370 O   0  0  0  0  0  0  0  0  0  0  0  0
   24.4450   16.2040    8.5770 O   0  0  0  0  0  0  0  0  0  0  0  0
   22.9880   15.4870   10.6290 C   0  0  0  0  0  0  0  0  0  0  0  0
   23.7910   16.3690   11.2590 N   0  0  0  0  0  0  0  0  0  0  0  0
   23.5670   16.4860   12.5720 C   0  0  0  0  0  0  0  0  0  0  0  0
   24.4460   17.4310   13.3560 C   0  0  0  0  0  0  0  0  0  0  0  0
   25.5930   17.6970   13.0130 O   0  0  0  0  0  0  0  0  0  0  0  0
   23.8660   17.9560   14.4970 N   0  0  0  0  0  0  0  0  0  0  0  0
   24.6190   18.7440   15.4550 C   0  0  1  0  0  0  0  0  0  0  0  0
   25.7320   17.9360   16.1160 C   0  0  0  0  0  0  0  0  0  0  0  0
   26.4990   18.8240   17.0840 C   0  0  0  0  0  0  0  0  0  0  0  0
   27.0330   20.0550   16.3930 C   0  0  0  0  0  0  0  0  0  0  0  0
   28.0970   20.5790   16.7080 O   0  0  0  0  0  0  0  0  0  0  0  0
   26.2520   20.5910   15.4000 N   0  0  0  0  0  0  0  0  0  0  0  0
   25.2380   19.9470   14.7340 C   0  0  0  0  0  0  0  0  0  0  0  0
   24.8540   20.3380   13.6320 O   0  0  0  0  0  0  0  0  0  0  0  0
   22.6290   15.8170   13.2750 N   0  0  0  0  0  0  0  0  0  0  0  0
   21.8580   14.9510   12.6070 C   0  0  0  0  0  0  0  0  0  0  0  0
   20.8920   14.2460   13.3150 C   0  0  0  0  0  0  0  0  0  0  0  0
   20.0500   13.3210   12.6950 C   0  0  0  0  0  0  0  0  0  0  0  0
   20.1690   13.0840   11.3330 C   0  0  0  0  0  0  0  0  0  0  0  0
   21.1290   13.7760   10.6000 C   0  0  0  0  0  0  0  0  0  0  0  0
   21.9840   14.7190   11.2310 C   0  0  0  0  0  0  0  0  0  0  0  0
   21.7570   15.9170    6.7750 C   0  0  0  0  0  0  0  0  0  0  0  0
   20.6140   16.4900    6.4590 N   0  0  0  0  0  0  0  0  0  0  0  0
   18.9504   19.6134    8.5356 H   0  0  0  0  0  0  0  0  0  0  0  0
   19.8320   19.3891    6.9867 H   0  0  0  0  0  0  0  0  0  0  0  0
   18.0430   19.5504    6.9867 H   0  0  0  0  0  0  0  0  0  0  0  0
   18.2772   17.4231    8.6343 H   0  0  0  0  0  0  0  0  0  0  0  0
   18.1826   17.2794    6.8254 H   0  0  0  0  0  0  0  0  0  0  0  0
   20.8114   16.9121    9.7637 H   0  0  0  0  0  0  0  0  0  0  0  0
   22.8661   17.7817   14.6724 H   0  0  0  0  0  0  0  0  0  0  0  0
   23.9245   19.0694   16.2435 H   0  0  0  0  0  0  0  0  0  0  0  0
   25.2938   17.0891   16.6644 H   0  0  0  0  0  0  0  0  0  0  0  0
   26.4182   17.5581   15.3437 H   0  0  0  0  0  0  0  0  0  0  0  0
   25.8257   19.1331   17.8971 H   0  0  0  0  0  0  0  0  0  0  0  0
   27.3504   18.2514   17.4804 H   0  0  0  0  0  0  0  0  0  0  0  0
   26.4439   21.5661   15.1292 H   0  0  0  0  0  0  0  0  0  0  0  0
   20.7878   14.4220   14.3958 H   0  0  0  0  0  0  0  0  0  0  0  0
   19.2942   12.7815   13.2847 H   0  0  0  0  0  0  0  0  0  0  0  0
   19.5106   12.3557   10.8369 H   0  0  0  0  0  0  0  0  0  0  0  0
   21.2267   13.5906    9.5201 H   0  0  0  0  0  0  0  0  0  0  0  0
   22.4243   15.4137    6.0599 H   0  0  0  0  0  0  0  0  0  0  0  0
  1  2  1  0
  2  3  1  0
  3  4  2  0
  4  5  1  0
  5  6  1  0
  6  7  2  0
  6  8  2  0
  6  9  1  0
  9 10  2  0
 10 11  1  0
 11 12  1  0
 12 13  2  0
 12 14  1  0
 14 15  1  0
 15 16  1  0
 16 17  1  0
 17 18  1  0
 18 19  2  0
 18 20  1  0
 20 21  1  0
 21 22  2  0
 11 23  2  0
 23 24  1  0
 24 25  2  0
 25 26  1  0
 26 27  2  0
 27 28  1  0
 28 29  2  0
  5 30  1  0
 30 31  2  0
 31  3  1  0
 29  9  1  0
 21 15  1  0
 29 24  1  0
  1 32  1  0
  1 33  1  0
  1 34  1  0
  2 35  1  0
  2 36  1  0
  4 37  1  0
 14 38  1  0
 15 39  1  1
 16 40  1  0
 16 41  1  0
 17 42  1  0
 17 43  1  0
 20 44  1  0
 25 45  1  0
 26 46  1  0
 27 47  1  0
 28 48  1  0
 30 49  1  0
M  END
>  <meeko>  (295) 
{"is_sidechain": [true], "free_energy": -10.97, "intermolecular_energy": 0.0, "internal_energy": -10.97, "cluster_size": 19, "cluster_id": 1, "rank_in_cluster": 1}

>  <_RMSD_MCS_to_ref>  (295) 
0.6883611778064708

$$$$
ligand
     RDKit          3D

 48 51  0  0  0  0  0  0  0  0999 V2000
   18.9090   19.1540    7.5370 C   0  0  0  0  0  0  0  0  0  0  0  0
   18.7730   17.6460    7.6780 C   0  0  0  0  0  0  0  0  0  0  0  0
   19.9800   16.9250    7.1930 C   0  0  0  0  0  0  0  0  0  0  0  0
   21.2300   16.8320    7.7730 C   0  0  0  0  0  0  0  0  0  0  0  0
   21.9500   16.0710    6.8990 N   0  0  0  0  0  0  0  0  0  0  0  0
   23.4820   15.4390    7.1750 S   0  0  0  0  0  6  0  0  0  0  0  0
   24.4130   16.3740    6.5730 O   0  0  0  0  0  0  0  0  0  0  0  0
   23.4120   14.0470    6.7740 O   0  0  0  0  0  0  0  0  0  0  0  0
   23.6530   15.5210    8.9370 C   0  0  0  0  0  0  0  0  0  0  0  0
   24.7550   16.1620    9.4880 C   0  0  0  0  0  0  0  0  0  0  0  0
   24.8900   16.2310   10.8780 C   0  0  0  0  0  0  0  0  0  0  0  0
   23.9250   15.6480   11.7430 C   0  0  0  0  0  0  0  0  0  0  0  0
   23.8510   15.6030   13.1990 C   0  0  0  0  0  0  0  0  0  0  0  0
   24.8410   16.1880   14.1110 C   0  0  0  0  0  0  0  0  0  0  0  0
   25.6090   15.5060   14.7830 O   0  0  0  0  0  0  0  0  0  0  0  0
   24.8790   17.5640   14.1500 N   0  0  0  0  0  0  0  0  0  0  0  0
   25.9130   18.2700   14.8940 C   0  0  2  0  0  0  0  0  0  0  0  0
   25.8010   18.0450   16.3980 C   0  0  0  0  0  0  0  0  0  0  0  0
   26.8790   18.8450   17.1120 C   0  0  0  0  0  0  0  0  0  0  0  0
   26.8020   20.3110   16.7550 C   0  0  0  0  0  0  0  0  0  0  0  0
   27.0870   21.2000   17.5530 O   0  0  0  0  0  0  0  0  0  0  0  0
   26.4230   20.6120   15.4710 N   0  0  0  0  0  0  0  0  0  0  0  0
   25.7770   19.7670   14.6040 C   0  0  0  0  0  0  0  0  0  0  0  0
   25.1390   20.2010   13.6440 O   0  0  0  0  0  0  0  0  0  0  0  0
   22.7320   14.9020   13.6110 C   0  0  0  0  0  0  0  0  0  0  0  0
   21.7730   14.3410   12.3230 S   0  0  0  0  0  0  0  0  0  0  0  0
   22.8380   14.9980   11.1470 C   0  0  0  0  0  0  0  0  0  0  0  0
   22.6850   14.9200    9.7480 C   0  0  0  0  0  0  0  0  0  0  0  0
   21.1470   15.6890    5.8730 C   0  0  0  0  0  0  0  0  0  0  0  0
   19.9420   16.2020    6.0160 N   0  0  0  0  0  0  0  0  0  0  0  0
   18.9504   19.6134    8.5356 H   0  0  0  0  0  0  0  0  0  0  0  0
   19.8320   19.3891    6.9867 H   0  0  0  0  0  0  0  0  0  0  0  0
   18.0430   19.5504    6.9867 H   0  0  0  0  0  0  0  0  0  0  0  0
   18.6173   17.4021    8.7393 H   0  0  0  0  0  0  0  0  0  0  0  0
   17.9187   17.3252    7.0638 H   0  0  0  0  0  0  0  0  0  0  0  0
   21.5680   17.2714    8.7231 H   0  0  0  0  0  0  0  0  0  0  0  0
   25.5169   16.6126    8.8349 H   0  0  0  0  0  0  0  0  0  0  0  0
   25.7602   16.7466   11.3104 H   0  0  0  0  0  0  0  0  0  0  0  0
   24.1628   18.1039   13.6436 H   0  0  0  0  0  0  0  0  0  0  0  0
   26.8912   17.8825   14.5732 H   0  0  0  0  0  0  0  0  0  0  0  0
   24.8102   18.3735   16.7451 H   0  0  0  0  0  0  0  0  0  0  0  0
   25.9311   16.9754   16.6193 H   0  0  0  0  0  0  0  0  0  0  0  0
   26.7476   18.7334   18.1984 H   0  0  0  0  0  0  0  0  0  0  0  0
   27.8611   18.4622   16.7973 H   0  0  0  0  0  0  0  0  0  0  0  0
   26.6433   21.5575   15.1269 H   0  0  0  0  0  0  0  0  0  0  0  0
   22.4863   14.7246   14.6684 H   0  0  0  0  0  0  0  0  0  0  0  0
   21.8241   14.3985    9.3043 H   0  0  0  0  0  0  0  0  0  0  0  0
   21.4587   15.0422    5.0396 H   0  0  0  0  0  0  0  0  0  0  0  0
  1  2  1  0
  2  3  1  0
  3  4  2  0
  4  5  1  0
  5  6  1  0
  6  7  2  0
  6  8  2  0
  6  9  1  0
  9 10  2  0
 10 11  1  0
 11 12  2  0
 12 13  1  0
 13 14  1  0
 14 15  2  0
 14 16  1  0
 16 17  1  0
 17 18  1  0
 18 19  1  0
 19 20  1  0
 20 21  2  0
 20 22  1  0
 22 23  1  0
 23 24  2  0
 13 25  2  0
 25 26  1  0
 26 27  1  0
 27 28  2  0
  5 29  1  0
 29 30  2  0
 30  3  1  0
 28  9  1  0
 27 12  1  0
 23 17  1  0
  1 31  1  0
  1 32  1  0
  1 33  1  0
  2 34  1  0
  2 35  1  0
  4 36  1  0
 10 37  1  0
 11 38  1  0
 16 39  1  0
 17 40  1  6
 18 41  1  0
 18 42  1  0
 19 43  1  0
 19 44  1  0
 22 45  1  0
 25 46  1  0
 28 47  1  0
 29 48  1  0
M  END
>  <meeko>  (296) 
{"is_sidechain": [true], "free_energy": -10.97, "intermolecular_energy": 0.0, "internal_energy": -10.97, "cluster_size": 20, "cluster_id": 1, "rank_in_cluster": 1}

>  <_RMSD_MCS_to_ref>  (296) 
0.7087467029121822

$$$$
ligand
     RDKit          3D

 47 50  0  0  0  0  0  0  0  0999 V2000
   18.9090   19.1540    7.5370 C   0  0  0  0  0  0  0  0  0  0  0  0
   18.7730   17.6460    7.6780 C   0  0  0  0  0  0  0  0  0  0  0  0
   19.9770   16.9250    7.1840 C   0  0  0  0  0  0  0  0  0  0  0  0
   21.2350   16.8440    7.7480 C   0  0  0  0  0  0  0  0  0  0  0  0
   21.9470   16.0770    6.8710 N   0  0  0  0  0  0  0  0  0  0  0  0
   23.4820   15.4490    7.1350 S   0  0  0  0  0  6  0  0  0  0  0  0
   24.4090   16.3810    6.5220 O   0  0  0  0  0  0  0  0  0  0  0  0
   23.4090   14.0540    6.7440 O   0  0  0  0  0  0  0  0  0  0  0  0
   23.6720   15.5370    8.8970 C   0  0  0  0  0  0  0  0  0  0  0  0
   24.8070   16.1410    9.4300 C   0  0  0  0  0  0  0  0  0  0  0  0
   24.9690   16.2160   10.8180 C   0  0  0  0  0  0  0  0  0  0  0  0
   23.9900   15.6730   11.6900 C   0  0  0  0  0  0  0  0  0  0  0  0
   23.8960   15.6070   13.1390 C   0  0  0  0  0  0  0  0  0  0  0  0
   24.8890   16.1490   14.0890 C   0  0  0  0  0  0  0  0  0  0  0  0
   25.6200   15.4440   14.7790 O   0  0  0  0  0  0  0  0  0  0  0  0
   24.9380   17.5250   14.1320 N   0  0  0  0  0  0  0  0  0  0  0  0
   25.9460   18.2490   14.8820 C   0  0  2  0  0  0  0  0  0  0  0  0
   25.8250   18.0070   16.3830 C   0  0  0  0  0  0  0  0  0  0  0  0
   26.8910   18.8060   17.1160 C   0  0  0  0  0  0  0  0  0  0  0  0
   26.8050   20.2760   16.7760 C   0  0  0  0  0  0  0  0  0  0  0  0
   27.0890   21.1550   17.5830 O   0  0  0  0  0  0  0  0  0  0  0  0
   26.4230   20.5890   15.4970 N   0  0  0  0  0  0  0  0  0  0  0  0
   25.8030   19.7490   14.6030 C   0  0  0  0  0  0  0  0  0  0  0  0
   25.1920   20.1960   13.6340 O   0  0  0  0  0  0  0  0  0  0  0  0
   22.8020   14.9970   13.6210 N   0  0  0  0  0  0  0  0  0  0  0  0
   21.8610   14.4860   12.3700 S   0  0  0  0  0  0  0  0  0  0  0  0
   22.8740   15.0630   11.1110 C   0  0  0  0  0  0  0  0  0  0  0  0
   22.6900   14.9760    9.7200 C   0  0  0  0  0  0  0  0  0  0  0  0
   21.1310   15.6840    5.8600 C   0  0  0  0  0  0  0  0  0  0  0  0
   19.9260   16.1910    6.0140 N   0  0  0  0  0  0  0  0  0  0  0  0
   18.9504   19.6134    8.5356 H   0  0  0  0  0  0  0  0  0  0  0  0
   19.8320   19.3891    6.9867 H   0  0  0  0  0  0  0  0  0  0  0  0
   18.0430   19.5504    6.9867 H   0  0  0  0  0  0  0  0  0  0  0  0
   18.6245   17.4014    8.7401 H   0  0  0  0  0  0  0  0  0  0  0  0
   17.9142   17.3258    7.0698 H   0  0  0  0  0  0  0  0  0  0  0  0
   21.5838   17.2945    8.6889 H   0  0  0  0  0  0  0  0  0  0  0  0
   25.5748   16.5584    8.7619 H   0  0  0  0  0  0  0  0  0  0  0  0
   25.8634   16.7003   11.2369 H   0  0  0  0  0  0  0  0  0  0  0  0
   24.2300   18.0613   13.6103 H   0  0  0  0  0  0  0  0  0  0  0  0
   26.9320   17.8844   14.5583 H   0  0  0  0  0  0  0  0  0  0  0  0
   24.8292   18.3244   16.7259 H   0  0  0  0  0  0  0  0  0  0  0  0
   25.9625   16.9360   16.5926 H   0  0  0  0  0  0  0  0  0  0  0  0
   26.7515   18.6800   18.1998 H   0  0  0  0  0  0  0  0  0  0  0  0
   27.8787   18.4346   16.8054 H   0  0  0  0  0  0  0  0  0  0  0  0
   26.6199   21.5472   15.1746 H   0  0  0  0  0  0  0  0  0  0  0  0
   21.8038   14.4834    9.2933 H   0  0  0  0  0  0  0  0  0  0  0  0
   21.4346   15.0323    5.0275 H   0  0  0  0  0  0  0  0  0  0  0  0
  1  2  1  0
  2  3  1  0
  3  4  2  0
  4  5  1  0
  5  6  1  0
  6  7  2  0
  6  8  2  0
  6  9  1  0
  9 10  2  0
 10 11  1  0
 11 12  2  0
 12 13  1  0
 13 14  1  0
 14 15  2  0
 14 16  1  0
 16 17  1  0
 17 18  1  0
 18 19  1  0
 19 20  1  0
 20 21  2  0
 20 22  1  0
 22 23  1  0
 23 24  2  0
 13 25  2  0
 25 26  1  0
 26 27  1  0
 27 28  2  0
  5 29  1  0
 29 30  2  0
 30  3  1  0
 28  9  1  0
 27 12  1  0
 23 17  1  0
  1 31  1  0
  1 32  1  0
  1 33  1  0
  2 34  1  0
  2 35  1  0
  4 36  1  0
 10 37  1  0
 11 38  1  0
 16 39  1  0
 17 40  1  6
 18 41  1  0
 18 42  1  0
 19 43  1  0
 19 44  1  0
 22 45  1  0
 28 46  1  0
 29 47  1  0
M  END
>  <meeko>  (297) 
{"is_sidechain": [true], "free_energy": -10.97, "intermolecular_energy": 0.0, "internal_energy": -10.97, "cluster_size": 19, "cluster_id": 1, "rank_in_cluster": 1}

>  <_RMSD_MCS_to_ref>  (297) 
0.7153545352558485

$$$$
ligand
     RDKit          3D

 46 49  0  0  0  0  0  0  0  0999 V2000
   18.9090   19.1540    7.5370 C   0  0  0  0  0  0  0  0  0  0  0  0
   18.7730   17.6460    7.6780 C   0  0  0  0  0  0  0  0  0  0  0  0
   20.0890   16.9540    7.6060 C   0  0  0  0  0  0  0  0  0  0  0  0
   20.5090   15.8140    8.2620 C   0  0  0  0  0  0  0  0  0  0  0  0
   21.7830   15.6180    7.8120 N   0  0  0  0  0  0  0  0  0  0  0  0
   22.8820   14.5120    8.4350 S   0  0  0  0  0  6  0  0  0  0  0  0
   23.7590   14.1520    7.3380 O   0  0  0  0  0  0  0  0  0  0  0  0
   22.0970   13.5350    9.1620 O   0  0  0  0  0  0  0  0  0  0  0  0
   23.8160   15.4670    9.6090 C   0  0  0  0  0  0  0  0  0  0  0  0
   25.0170   16.0860    9.1980 C   0  0  0  0  0  0  0  0  0  0  0  0
   25.7720   16.8360   10.1070 C   0  0  0  0  0  0  0  0  0  0  0  0
   25.3130   16.9410   11.4120 C   0  0  0  0  0  0  0  0  0  0  0  0
   24.1350   16.3140   11.7980 C   0  0  0  0  0  0  0  0  0  0  0  0
   23.3610   15.5640   10.9290 C   0  0  0  0  0  0  0  0  0  0  0  0
   23.8010   16.6200   13.4770 S   0  0  0  0  0  6  0  0  0  0  0  0
   22.6490   17.4820   13.5670 O   0  0  0  0  0  0  0  0  0  0  0  0
   23.9290   15.3820   14.2070 O   0  0  0  0  0  0  0  0  0  0  0  0
   25.2070   17.5150   13.6970 N   0  0  0  0  0  0  0  0  0  0  0  0
   25.2890   18.3660   14.8930 C   0  0  1  0  0  0  0  0  0  0  0  0
   26.3520   17.8330   15.8490 C   0  0  0  0  0  0  0  0  0  0  0  0
   26.4510   18.7480   17.0600 C   0  0  0  0  0  0  0  0  0  0  0  0
   26.7410   20.1720   16.6480 C   0  0  0  0  0  0  0  0  0  0  0  0
   27.3490   20.9530   17.3740 O   0  0  0  0  0  0  0  0  0  0  0  0
   26.2370   20.5740   15.4380 N   0  0  0  0  0  0  0  0  0  0  0  0
   25.6040   19.8040   14.4890 C   0  0  0  0  0  0  0  0  0  0  0  0
   25.2930   20.2860   13.4000 O   0  0  0  0  0  0  0  0  0  0  0  0
   25.9580   17.6870   12.5090 C   0  0  0  0  0  0  0  0  0  0  0  0
   26.9730   18.3480   12.4060 O   0  0  0  0  0  0  0  0  0  0  0  0
   22.1160   16.6250    6.9650 C   0  0  0  0  0  0  0  0  0  0  0  0
   21.1040   17.4520    6.8120 N   0  0  0  0  0  0  0  0  0  0  0  0
   18.9504   19.6134    8.5356 H   0  0  0  0  0  0  0  0  0  0  0  0
   19.8320   19.3891    6.9867 H   0  0  0  0  0  0  0  0  0  0  0  0
   18.0430   19.5504    6.9867 H   0  0  0  0  0  0  0  0  0  0  0  0
   18.3073   17.4215    8.6489 H   0  0  0  0  0  0  0  0  0  0  0  0
   18.1543   17.2831    6.8440 H   0  0  0  0  0  0  0  0  0  0  0  0
   19.9457   15.2031    8.9827 H   0  0  0  0  0  0  0  0  0  0  0  0
   25.3606   15.9782    8.1586 H   0  0  0  0  0  0  0  0  0  0  0  0
   26.7045   17.3291    9.7950 H   0  0  0  0  0  0  0  0  0  0  0  0
   22.4355   15.0695   11.2592 H   0  0  0  0  0  0  0  0  0  0  0  0
   24.3184   18.3502   15.4104 H   0  0  0  0  0  0  0  0  0  0  0  0
   26.0754   16.8200   16.1767 H   0  0  0  0  0  0  0  0  0  0  0  0
   27.3237   17.8000   15.3346 H   0  0  0  0  0  0  0  0  0  0  0  0
   25.4982   18.7205   17.6090 H   0  0  0  0  0  0  0  0  0  0  0  0
   27.2762   18.3951   17.6960 H   0  0  0  0  0  0  0  0  0  0  0  0
   26.3452   21.5730   15.2119 H   0  0  0  0  0  0  0  0  0  0  0  0
   23.0948   16.7344    6.4751 H   0  0  0  0  0  0  0  0  0  0  0  0
  1  2  1  0
  2  3  1  0
  3  4  2  0
  4  5  1  0
  5  6  1  0
  6  7  2  0
  6  8  2  0
  6  9  1  0
  9 10  2  0
 10 11  1  0
 11 12  2  0
 12 13  1  0
 13 14  2  0
 13 15  1  0
 15 16  2  0
 15 17  2  0
 15 18  1  0
 18 19  1  0
 19 20  1  0
 20 21  1  0
 21 22  1  0
 22 23  2  0
 22 24  1  0
 24 25  1  0
 25 26  2  0
 18 27  1  0
 27 28  2  0
  5 29  1  0
 29 30  2  0
 30  3  1  0
 14  9  1  0
 25 19  1  0
 27 12  1  0
  1 31  1  0
  1 32  1  0
  1 33  1  0
  2 34  1  0
  2 35  1  0
  4 36  1  0
 10 37  1  0
 11 38  1  0
 14 39  1  0
 19 40  1  1
 20 41  1  0
 20 42  1  0
 21 43  1  0
 21 44  1  0
 24 45  1  0
 29 46  1  0
M  END
>  <meeko>  (298) 
{"is_sidechain": [true], "free_energy": -10.97, "intermolecular_energy": 0.0, "internal_energy": -10.97, "cluster_size": 20, "cluster_id": 1, "rank_in_cluster": 1}

>  <_RMSD_MCS_to_ref>  (298) 
0.4504848005821675

$$$$
ligand
     RDKit          3D

 55 59  0  0  0  0  0  0  0  0999 V2000
   18.9090   19.1540    7.5370 C   0  0  0  0  0  0  0  0  0  0  0  0
   18.7730   17.6460    7.6780 C   0  0  0  0  0  0  0  0  0  0  0  0
   20.0800   16.9850    7.9410 C   0  0  0  0  0  0  0  0  0  0  0  0
   20.5800   16.4910    9.1290 C   0  0  0  0  0  0  0  0  0  0  0  0
   21.8120   16.0020    8.7950 N   0  0  0  0  0  0  0  0  0  0  0  0
   22.9050   15.3110    9.8640 S   0  0  0  0  0  6  0  0  0  0  0  0
   23.7560   14.4200    9.1020 O   0  0  0  0  0  0  0  0  0  0  0  0
   23.4510   16.4500   10.5820 O   0  0  0  0  0  0  0  0  0  0  0  0
   21.9490   14.3440   11.0160 C   0  0  0  0  0  0  0  0  0  0  0  0
   21.0440   13.4100   10.4510 C   0  0  0  0  0  0  0  0  0  0  0  0
   20.2620   12.5850   11.2580 C   0  0  0  0  0  0  0  0  0  0  0  0
   20.4050   12.6990   12.6240 C   0  0  0  0  0  0  0  0  0  0  0  0
   21.2880   13.6200   13.1790 C   0  0  0  0  0  0  0  0  0  0  0  0
   22.0770   14.4830   12.4140 C   0  0  0  0  0  0  0  0  0  0  0  0
   22.9480   15.4530   13.0860 C   0  0  0  0  0  0  0  0  0  0  0  0
   24.3360   15.2890   13.1050 C   0  0  0  0  0  0  0  0  0  0  0  0
   25.1630   16.2040   13.7710 C   0  0  0  0  0  0  0  0  0  0  0  0
   24.6350   17.3190   14.4360 C   0  0  0  0  0  0  0  0  0  0  0  0
   25.4830   18.2470   15.1310 N   0  0  0  0  0  0  0  0  0  0  0  0
   26.3660   17.7610   16.1880 C   0  0  0  0  0  0  0  0  0  0  0  0
   26.4990   18.7830   17.2970 C   0  0  0  0  0  0  0  0  0  0  0  0
   26.9280   20.0910   16.7140 C   0  0  0  0  0  0  0  0  0  0  0  0
   27.5000   20.9530   17.3760 O   0  0  0  0  0  0  0  0  0  0  0  0
   26.5620   20.3090   15.4160 N   0  0  0  0  0  0  0  0  0  0  0  0
   25.6810   19.5560   14.6750 C   0  0  0  0  0  0  0  0  0  0  0  0
   25.1610   20.0820   13.6950 O   0  0  0  0  0  0  0  0  0  0  0  0
   23.2450   17.4970   14.3810 C   0  0  0  0  0  0  0  0  0  0  0  0
   22.4160   16.5850   13.7130 C   0  0  0  0  0  0  0  0  0  0  0  0
   21.2680   13.6020   14.5580 O   0  0  0  0  0  0  0  0  0  0  0  0
   20.5440   12.3950   14.8860 C   0  0  0  0  0  0  0  0  0  0  0  0
   19.6620   12.0080   13.7030 C   0  0  0  0  0  0  0  0  0  0  0  0
   22.0400   16.2280    7.4780 C   0  0  0  0  0  0  0  0  0  0  0  0
   20.9950   16.8080    6.9220 N   0  0  0  0  0  0  0  0  0  0  0  0
   18.9504   19.6134    8.5356 H   0  0  0  0  0  0  0  0  0  0  0  0
   19.8320   19.3891    6.9867 H   0  0  0  0  0  0  0  0  0  0  0  0
   18.0430   19.5504    6.9867 H   0  0  0  0  0  0  0  0  0  0  0  0
   18.0917   17.4285    8.5138 H   0  0  0  0  0  0  0  0  0  0  0  0
   18.3810   17.2524    6.7286 H   0  0  0  0  0  0  0  0  0  0  0  0
   20.0977   16.4909   10.1176 H   0  0  0  0  0  0  0  0  0  0  0  0
   20.9575   13.3351    9.3570 H   0  0  0  0  0  0  0  0  0  0  0  0
   19.5541   11.8666   10.8189 H   0  0  0  0  0  0  0  0  0  0  0  0
   24.7864   14.4282   12.5891 H   0  0  0  0  0  0  0  0  0  0  0  0
   26.2512   16.0433   13.7717 H   0  0  0  0  0  0  0  0  0  0  0  0
   25.9512   16.8310   16.6039 H   0  0  0  0  0  0  0  0  0  0  0  0
   27.3618   17.5802   15.7570 H   0  0  0  0  0  0  0  0  0  0  0  0
   25.5294   18.9059   17.8017 H   0  0  0  0  0  0  0  0  0  0  0  0
   27.2484   18.4407   18.0259 H   0  0  0  0  0  0  0  0  0  0  0  0
   26.9889   21.1191   14.9445 H   0  0  0  0  0  0  0  0  0  0  0  0
   22.7951   18.3719   14.8731 H   0  0  0  0  0  0  0  0  0  0  0  0
   21.3308   16.7620   13.6813 H   0  0  0  0  0  0  0  0  0  0  0  0
   21.2561   11.5834   15.0962 H   0  0  0  0  0  0  0  0  0  0  0  0
   19.9193   12.5663   15.7750 H   0  0  0  0  0  0  0  0  0  0  0  0
   19.6310   10.9191   13.5505 H   0  0  0  0  0  0  0  0  0  0  0  0
   18.6003   12.2803   13.7956 H   0  0  0  0  0  0  0  0  0  0  0  0
   22.9670   15.9644    6.9477 H   0  0  0  0  0  0  0  0  0  0  0  0
  1  2  1  0
  2  3  1  0
  3  4  2  0
  4  5  1  0
  5  6  1  0
  6  7  2  0
  6  8  2  0
  6  9  1  0
  9 10  2  0
 10 11  1  0
 11 12  2  0
 12 13  1  0
 13 14  2  0
 14 15  1  0
 15 16  2  0
 16 17  1  0
 17 18  2  0
 18 19  1  0
 19 20  1  0
 20 21  1  0
 21 22  1  0
 22 23  2  0
 22 24  1  0
 24 25  1  0
 25 26  2  0
 18 27  1  0
 27 28  2  0
 13 29  1  0
 29 30  1  0
 30 31  1  0
  5 32  1  0
 32 33  2  0
 33  3  1  0
 14  9  1  0
 28 15  1  0
 31 12  1  0
 25 19  1  0
  1 34  1  0
  1 35  1  0
  1 36  1  0
  2 37  1  0
  2 38  1  0
  4 39  1  0
 10 40  1  0
 11 41  1  0
 16 42  1  0
 17 43  1  0
 20 44  1  0
 20 45  1  0
 21 46  1  0
 21 47  1  0
 24 48  1  0
 27 49  1  0
 28 50  1  0
 30 51  1  0
 30 52  1  0
 31 53  1  0
 31 54  1  0
 32 55  1  0
M  END
>  <meeko>  (299) 
{"is_sidechain": [true], "free_energy": -10.97, "intermolecular_energy": 0.0, "internal_energy": -10.97, "cluster_size": 20, "cluster_id": 1, "rank_in_cluster": 1}

>  <_RMSD_MCS_to_ref>  (299) 
0.5943384978276267

$$$$
ligand
     RDKit          3D

 53 57  0  0  0  0  0  0  0  0999 V2000
   18.9090   19.1540    7.5370 C   0  0  0  0  0  0  0  0  0  0  0  0
   18.7730   17.6460    7.6780 C   0  0  0  0  0  0  0  0  0  0  0  0
   20.0890   16.9550    7.6250 C   0  0  0  0  0  0  0  0  0  0  0  0
   20.5850   15.9710    8.4580 C   0  0  0  0  0  0  0  0  0  0  0  0
   21.8150   15.6840    7.9390 N   0  0  0  0  0  0  0  0  0  0  0  0
   22.9410   14.6270    8.5940 S   0  0  0  0  0  6  0  0  0  0  0  0
   22.2130   13.7090    9.4500 O   0  0  0  0  0  0  0  0  0  0  0  0
   23.6880   14.1550    7.4430 O   0  0  0  0  0  0  0  0  0  0  0  0
   24.0360   15.5790    9.6150 C   0  0  0  0  0  0  0  0  0  0  0  0
   23.6020   15.8890   10.9150 C   0  0  0  0  0  0  0  0  0  0  0  0
   24.4420   16.6500   11.7020 C   0  0  0  0  0  0  0  0  0  0  0  0
   25.6740   17.1210   11.2570 C   0  0  0  0  0  0  0  0  0  0  0  0
   26.1060   16.8330    9.9740 C   0  0  0  0  0  0  0  0  0  0  0  0
   25.2780   16.0580    9.1360 C   0  0  0  0  0  0  0  0  0  0  0  0
   25.7760   15.7550    7.8090 C   0  0  0  0  0  0  0  0  0  0  0  0
   26.7010   14.7590    7.4170 C   0  0  0  0  0  0  0  0  0  0  0  0
   26.8480   14.9220    6.0610 C   0  0  0  0  0  0  0  0  0  0  0  0
   26.0360   15.9620    5.7150 N   0  0  0  0  0  0  0  0  0  0  0  0
   25.3530   16.4680    6.7580 N   0  0  0  0  0  0  0  0  0  0  0  0
   26.3350   17.9230   12.3280 C   0  0  0  0  0  0  0  0  0  0  0  0
   25.4060   17.7860   13.4420 N   0  0  0  0  0  0  0  0  0  0  0  0
   25.4730   18.6050   14.6490 C   0  0  1  0  0  0  0  0  0  0  0  0
   26.3450   17.9810   15.7330 C   0  0  0  0  0  0  0  0  0  0  0  0
   26.2940   18.8480   16.9820 C   0  0  0  0  0  0  0  0  0  0  0  0
   26.7020   20.2710   16.6750 C   0  0  0  0  0  0  0  0  0  0  0  0
   27.3440   20.9550   17.4650 O   0  0  0  0  0  0  0  0  0  0  0  0
   26.3020   20.7760   15.4640 N   0  0  0  0  0  0  0  0  0  0  0  0
   25.9810   20.0270   14.3550 C   0  0  0  0  0  0  0  0  0  0  0  0
   26.1200   20.4960   13.2270 O   0  0  0  0  0  0  0  0  0  0  0  0
   24.2490   17.1140   13.0810 C   0  0  0  0  0  0  0  0  0  0  0  0
   23.2500   16.9240   13.7450 O   0  0  0  0  0  0  0  0  0  0  0  0
   22.0650   16.5230    6.9000 C   0  0  0  0  0  0  0  0  0  0  0  0
   21.0190   17.2870    6.6570 N   0  0  0  0  0  0  0  0  0  0  0  0
   18.9504   19.6134    8.5356 H   0  0  0  0  0  0  0  0  0  0  0  0
   19.8320   19.3891    6.9867 H   0  0  0  0  0  0  0  0  0  0  0  0
   18.0430   19.5504    6.9867 H   0  0  0  0  0  0  0  0  0  0  0  0
   18.2942   17.4223    8.6427 H   0  0  0  0  0  0  0  0  0  0  0  0
   18.1666   17.2818    6.8356 H   0  0  0  0  0  0  0  0  0  0  0  0
   20.1004   15.5218    9.3374 H   0  0  0  0  0  0  0  0  0  0  0  0
   22.6296   15.5383   11.2910 H   0  0  0  0  0  0  0  0  0  0  0  0
   27.0779   17.2021    9.6145 H   0  0  0  0  0  0  0  0  0  0  0  0
   27.1954   14.0151    8.0590 H   0  0  0  0  0  0  0  0  0  0  0  0
   27.4905   14.3330    5.3899 H   0  0  0  0  0  0  0  0  0  0  0  0
   25.9541   16.3230    4.7538 H   0  0  0  0  0  0  0  0  0  0  0  0
   27.3230   17.5108   12.5811 H   0  0  0  0  0  0  0  0  0  0  0  0
   26.5244   18.9677   12.0404 H   0  0  0  0  0  0  0  0  0  0  0  0
   24.4388   18.6603   15.0196 H   0  0  0  0  0  0  0  0  0  0  0  0
   25.9719   16.9736   15.9697 H   0  0  0  0  0  0  0  0  0  0  0  0
   27.3830   17.9114   15.3755 H   0  0  0  0  0  0  0  0  0  0  0  0
   25.2680   18.8463   17.3787 H   0  0  0  0  0  0  0  0  0  0  0  0
   26.9958   18.4357   17.7219 H   0  0  0  0  0  0  0  0  0  0  0  0
   26.2365   21.8003   15.3776 H   0  0  0  0  0  0  0  0  0  0  0  0
   23.0104   16.5596    6.3388 H   0  0  0  0  0  0  0  0  0  0  0  0
  1  2  1  0
  2  3  1  0
  3  4  2  0
  4  5  1  0
  5  6  1  0
  6  7  2  0
  6  8  2  0
  6  9  1  0
  9 10  2  0
 10 11  1  0
 11 12  2  0
 12 13  1  0
 13 14  2  0
 14 15  1  0
 15 16  1  0
 16 17  2  0
 17 18  1  0
 18 19  1  0
 12 20  1  0
 20 21  1  0
 21 22  1  0
 22 23  1  0
 23 24  1  0
 24 25  1  0
 25 26  2  0
 25 27  1  0
 27 28  1  0
 28 29  2  0
 21 30  1  0
 30 31  2  0
  5 32  1  0
 32 33  2  0
 33  3  1  0
 14  9  1  0
 19 15  2  0
 28 22  1  0
 30 11  1  0
  1 34  1  0
  1 35  1  0
  1 36  1  0
  2 37  1  0
  2 38  1  0
  4 39  1  0
 10 40  1  0
 13 41  1  0
 16 42  1  0
 17 43  1  0
 18 44  1  0
 20 45  1  0
 20 46  1  0
 22 47  1  1
 23 48  1  0
 23 49  1  0
 24 50  1  0
 24 51  1  0
 27 52  1  0
 32 53  1  0
M  END
>  <meeko>  (300) 
{"is_sidechain": [true], "free_energy": -10.97, "intermolecular_energy": 0.0, "internal_energy": -10.97, "cluster_size": 17, "cluster_id": 1, "rank_in_cluster": 1}

>  <_RMSD_MCS_to_ref>  (300) 
0.7996825411791024

$$$$
ligand
     RDKit          3D

 56 60  0  0  0  0  0  0  0  0999 V2000
   18.9090   19.1540    7.5370 C   0  0  0  0  0  0  0  0  0  0  0  0
   18.7730   17.6460    7.6780 C   0  0  0  0  0  0  0  0  0  0  0  0
   20.0710   16.9450    7.4890 C   0  0  0  0  0  0  0  0  0  0  0  0
   20.5790   15.8570    8.1730 C   0  0  0  0  0  0  0  0  0  0  0  0
   21.7830   15.6180    7.5750 N   0  0  0  0  0  0  0  0  0  0  0  0
   22.9550   14.5420    8.1160 S   0  0  0  0  0  6  0  0  0  0  0  0
   24.1340   14.8090    7.3160 O   0  0  0  0  0  0  0  0  0  0  0  0
   22.3180   13.2400    8.1490 O   0  0  0  0  0  0  0  0  0  0  0  0
   23.2600   15.0580    9.7820 C   0  0  0  0  0  0  0  0  0  0  0  0
   24.3870   15.8300   10.0680 C   0  0  0  0  0  0  0  0  0  0  0  0
   24.5690   16.1870   11.3890 C   0  0  0  0  0  0  0  0  0  0  0  0
   23.6920   15.8150   12.4100 C   0  0  0  0  0  0  0  0  0  0  0  0
   22.5680   15.0410   12.1390 C   0  0  0  0  0  0  0  0  0  0  0  0
   21.6300   14.6330   13.1880 C   0  0  0  0  0  0  0  0  0  0  0  0
   22.0880   14.2940   14.4710 C   0  0  0  0  0  0  0  0  0  0  0  0
   21.1930   13.9020   15.4690 C   0  0  0  0  0  0  0  0  0  0  0  0
   19.8280   13.8460   15.1990 C   0  0  0  0  0  0  0  0  0  0  0  0
   19.3560   14.1840   13.9320 C   0  0  0  0  0  0  0  0  0  0  0  0
   20.2520   14.5770   12.9340 C   0  0  0  0  0  0  0  0  0  0  0  0
   22.3680   14.6560   10.8000 C   0  0  0  0  0  0  0  0  0  0  0  0
   24.1800   16.3650   13.7140 C   0  0  0  0  0  0  0  0  0  0  0  0
   25.4360   17.0040   13.3460 N   0  0  0  0  0  0  0  0  0  0  0  0
   26.1570   17.9200   14.2230 C   0  0  2  0  0  0  0  0  0  0  0  0
   25.8650   17.6670   15.6980 C   0  0  0  0  0  0  0  0  0  0  0  0
   26.7130   18.6020   16.5480 C   0  0  0  0  0  0  0  0  0  0  0  0
   26.4830   20.0460   16.1650 C   0  0  0  0  0  0  0  0  0  0  0  0
   26.4840   20.9530   16.9910 O   0  0  0  0  0  0  0  0  0  0  0  0
   26.2870   20.3020   14.8310 N   0  0  0  0  0  0  0  0  0  0  0  0
   25.8490   19.3920   13.8980 C   0  0  0  0  0  0  0  0  0  0  0  0
   25.2480   19.7700   12.8960 O   0  0  0  0  0  0  0  0  0  0  0  0
   25.6480   16.9860   11.9770 C   0  0  0  0  0  0  0  0  0  0  0  0
   26.5400   17.5200   11.3450 O   0  0  0  0  0  0  0  0  0  0  0  0
   21.9990   16.5550    6.6170 C   0  0  0  0  0  0  0  0  0  0  0  0
   20.9690   17.3720    6.5310 N   0  0  0  0  0  0  0  0  0  0  0  0
   18.9504   19.6134    8.5356 H   0  0  0  0  0  0  0  0  0  0  0  0
   19.8320   19.3891    6.9867 H   0  0  0  0  0  0  0  0  0  0  0  0
   18.0430   19.5504    6.9867 H   0  0  0  0  0  0  0  0  0  0  0  0
   18.3899   17.4173    8.6835 H   0  0  0  0  0  0  0  0  0  0  0  0
   18.0825   17.2946    6.8972 H   0  0  0  0  0  0  0  0  0  0  0  0
   20.1187   15.3088    9.0082 H   0  0  0  0  0  0  0  0  0  0  0  0
   25.0928   16.1377    9.2824 H   0  0  0  0  0  0  0  0  0  0  0  0
   23.1645   14.3376   14.6929 H   0  0  0  0  0  0  0  0  0  0  0  0
   21.5667   13.6373   16.4692 H   0  0  0  0  0  0  0  0  0  0  0  0
   19.1234   13.5355   15.9846 H   0  0  0  0  0  0  0  0  0  0  0  0
   18.2780   14.1414   13.7174 H   0  0  0  0  0  0  0  0  0  0  0  0
   19.8718   14.8456   11.9374 H   0  0  0  0  0  0  0  0  0  0  0  0
   21.5008   14.0304   10.5419 H   0  0  0  0  0  0  0  0  0  0  0  0
   23.4693   17.0965   14.1261 H   0  0  0  0  0  0  0  0  0  0  0  0
   24.2942   15.5981   14.4942 H   0  0  0  0  0  0  0  0  0  0  0  0
   27.2232   17.7240   14.0365 H   0  0  0  0  0  0  0  0  0  0  0  0
   24.7996   17.8534   15.8986 H   0  0  0  0  0  0  0  0  0  0  0  0
   26.1066   16.6231   15.9469 H   0  0  0  0  0  0  0  0  0  0  0  0
   26.4477   18.4647   17.6067 H   0  0  0  0  0  0  0  0  0  0  0  0
   27.7731   18.3611   16.3802 H   0  0  0  0  0  0  0  0  0  0  0  0
   26.4849   21.2573   14.5006 H   0  0  0  0  0  0  0  0  0  0  0  0
   22.9066   16.6227    5.9992 H   0  0  0  0  0  0  0  0  0  0  0  0
  1  2  1  0
  2  3  1  0
  3  4  2  0
  4  5  1  0
  5  6  1  0
  6  7  2  0
  6  8  2  0
  6  9  1  0
  9 10  2  0
 10 11  1  0
 11 12  2  0
 12 13  1  0
 13 14  1  0
 14 15  2  0
 15 16  1  0
 16 17  2  0
 17 18  1  0
 18 19  2  0
 13 20  2  0
 12 21  1  0
 21 22  1  0
 22 23  1  0
 23 24  1  0
 24 25  1  0
 25 26  1  0
 26 27  2  0
 26 28  1  0
 28 29  1  0
 29 30  2  0
 22 31  1  0
 31 32  2  0
  5 33  1  0
 33 34  2  0
 34  3  1  0
 20  9  1  0
 29 23  1  0
 31 11  1  0
 19 14  1  0
  1 35  1  0
  1 36  1  0
  1 37  1  0
  2 38  1  0
  2 39  1  0
  4 40  1  0
 10 41  1  0
 15 42  1  0
 16 43  1  0
 17 44  1  0
 18 45  1  0
 19 46  1  0
 20 47  1  0
 21 48  1  0
 21 49  1  0
 23 50  1  1
 24 51  1  0
 24 52  1  0
 25 53  1  0
 25 54  1  0
 28 55  1  0
 33 56  1  0
M  END
>  <meeko>  (301) 
{"is_sidechain": [true], "free_energy": -10.97, "intermolecular_energy": 0.0, "internal_energy": -10.97, "cluster_size": 15, "cluster_id": 1, "rank_in_cluster": 1}

>  <_RMSD_MCS_to_ref>  (301) 
1.9818300325148412

$$$$
ligand
     RDKit          3D

 55 59  0  0  0  0  0  0  0  0999 V2000
   18.9090   19.1540    7.5370 C   0  0  0  0  0  0  0  0  0  0  0  0
   18.7730   17.6460    7.6780 C   0  0  0  0  0  0  0  0  0  0  0  0
   20.0730   16.9450    7.4950 C   0  0  0  0  0  0  0  0  0  0  0  0
   20.9610   16.5030    8.4560 C   0  0  0  0  0  0  0  0  0  0  0  0
   21.9850   15.9610    7.7380 N   0  0  0  0  0  0  0  0  0  0  0  0
   23.3840   15.2680    8.3470 S   0  0  0  0  0  6  0  0  0  0  0  0
   24.4530   16.0400    7.7410 O   0  0  0  0  0  0  0  0  0  0  0  0
   23.2760   13.8360    8.1600 O   0  0  0  0  0  0  0  0  0  0  0  0
   23.4030   15.5920   10.1020 C   0  0  0  0  0  0  0  0  0  0  0  0
   24.3540   16.5410   10.5440 C   0  0  0  0  0  0  0  0  0  0  0  0
   24.4130   16.8450   11.8900 C   0  0  0  0  0  0  0  0  0  0  0  0
   23.5510   16.2200   12.7800 C   0  0  0  0  0  0  0  0  0  0  0  0
   22.6160   15.2820   12.3820 C   0  0  0  0  0  0  0  0  0  0  0  0
   22.5270   14.9390   11.0160 C   0  0  0  0  0  0  0  0  0  0  0  0
   21.5330   13.9260   10.6470 C   0  0  0  0  0  0  0  0  0  0  0  0
   20.1670   14.2380   10.6030 C   0  0  0  0  0  0  0  0  0  0  0  0
   19.2320   13.2550   10.2810 C   0  0  0  0  0  0  0  0  0  0  0  0
   19.6900   11.9760   10.0190 C   0  0  0  0  0  0  0  0  0  0  0  0
   20.9930   11.6270   10.0610 N   0  0  0  0  0  0  0  0  0  0  0  0
   21.8780   12.6000   10.3820 C   0  0  0  0  0  0  0  0  0  0  0  0
   23.8260   16.7370   14.1240 C   0  0  0  0  0  0  0  0  0  0  0  0
   23.2020   16.4410   15.1240 O   0  0  0  0  0  0  0  0  0  0  0  0
   24.8990   17.6070   14.0060 N   0  0  0  0  0  0  0  0  0  0  0  0
   25.2730   18.5130   15.0860 C   0  0  1  0  0  0  0  0  0  0  0  0
   26.3310   17.9210   16.0100 C   0  0  0  0  0  0  0  0  0  0  0  0
   26.6040   18.8890   17.1510 C   0  0  0  0  0  0  0  0  0  0  0  0
   27.0050   20.2500   16.6290 C   0  0  0  0  0  0  0  0  0  0  0  0
   27.8370   20.9510   17.1950 O   0  0  0  0  0  0  0  0  0  0  0  0
   26.3780   20.6780   15.4870 N   0  0  0  0  0  0  0  0  0  0  0  0
   25.7750   19.8660   14.5530 C   0  0  0  0  0  0  0  0  0  0  0  0
   25.6770   20.2300   13.3820 O   0  0  0  0  0  0  0  0  0  0  0  0
   25.2900   17.8110   12.6170 C   0  0  0  0  0  0  0  0  0  0  0  0
   21.6910   16.0320    6.4140 C   0  0  0  0  0  0  0  0  0  0  0  0
   20.5470   16.6550    6.2290 N   0  0  0  0  0  0  0  0  0  0  0  0
   18.9504   19.6134    8.5356 H   0  0  0  0  0  0  0  0  0  0  0  0
   19.8320   19.3891    6.9867 H   0  0  0  0  0  0  0  0  0  0  0  0
   18.0430   19.5504    6.9867 H   0  0  0  0  0  0  0  0  0  0  0  0
   18.3855   17.4175    8.6818 H   0  0  0  0  0  0  0  0  0  0  0  0
   18.0861   17.2940    6.8942 H   0  0  0  0  0  0  0  0  0  0  0  0
   20.8641   16.5724    9.5495 H   0  0  0  0  0  0  0  0  0  0  0  0
   25.0338   17.0278    9.8292 H   0  0  0  0  0  0  0  0  0  0  0  0
   21.9509   14.8098   13.1200 H   0  0  0  0  0  0  0  0  0  0  0  0
   19.8315   15.2622   10.8233 H   0  0  0  0  0  0  0  0  0  0  0  0
   18.1584   13.4902   10.2364 H   0  0  0  0  0  0  0  0  0  0  0  0
   18.9521   11.2016    9.7626 H   0  0  0  0  0  0  0  0  0  0  0  0
   22.9420   12.3266   10.4378 H   0  0  0  0  0  0  0  0  0  0  0  0
   24.3516   18.6699   15.6659 H   0  0  0  0  0  0  0  0  0  0  0  0
   25.9690   16.9657   16.4179 H   0  0  0  0  0  0  0  0  0  0  0  0
   27.2585   17.7491   15.4441 H   0  0  0  0  0  0  0  0  0  0  0  0
   25.6936   18.9921   17.7597 H   0  0  0  0  0  0  0  0  0  0  0  0
   27.4317   18.4901   17.7558 H   0  0  0  0  0  0  0  0  0  0  0  0
   26.3564   21.6930   15.3133 H   0  0  0  0  0  0  0  0  0  0  0  0
   25.0941   18.8449   12.2965 H   0  0  0  0  0  0  0  0  0  0  0  0
   26.3632   17.6520   12.4353 H   0  0  0  0  0  0  0  0  0  0  0  0
   22.3210   15.6256    5.6091 H   0  0  0  0  0  0  0  0  0  0  0  0
  1  2  1  0
  2  3  1  0
  3  4  2  0
  4  5  1  0
  5  6  1  0
  6  7  2  0
  6  8  2  0
  6  9  1  0
  9 10  2  0
 10 11  1  0
 11 12  2  0
 12 13  1  0
 13 14  2  0
 14 15  1  0
 15 16  2  0
 16 17  1  0
 17 18  2  0
 18 19  1  0
 19 20  2  0
 12 21  1  0
 21 22  2  0
 21 23  1  0
 23 24  1  0
 24 25  1  0
 25 26  1  0
 26 27  1  0
 27 28  2  0
 27 29  1  0
 29 30  1  0
 30 31  2  0
 23 32  1  0
  5 33  1  0
 33 34  2  0
 34  3  1  0
 14  9  1  0
 20 15  1  0
 30 24  1  0
 32 11  1  0
  1 35  1  0
  1 36  1  0
  1 37  1  0
  2 38  1  0
  2 39  1  0
  4 40  1  0
 10 41  1  0
 13 42  1  0
 16 43  1  0
 17 44  1  0
 18 45  1  0
 20 46  1  0
 24 47  1  1
 25 48  1  0
 25 49  1  0
 26 50  1  0
 26 51  1  0
 29 52  1  0
 32 53  1  0
 32 54  1  0
 33 55  1  0
M  END
>  <meeko>  (302) 
{"is_sidechain": [true], "free_energy": -10.97, "intermolecular_energy": 0.0, "internal_energy": -10.97, "cluster_size": 13, "cluster_id": 1, "rank_in_cluster": 1}

>  <_RMSD_MCS_to_ref>  (302) 
0.9569744859016185

$$$$
ligand
     RDKit          3D

 55 59  0  0  0  0  0  0  0  0999 V2000
   18.9090   19.1540    7.5370 C   0  0  0  0  0  0  0  0  0  0  0  0
   18.7730   17.6460    7.6780 C   0  0  0  0  0  0  0  0  0  0  0  0
   19.6010   16.9120    6.6840 C   0  0  0  0  0  0  0  0  0  0  0  0
   20.9750   16.8620    6.5660 C   0  0  0  0  0  0  0  0  0  0  0  0
   21.1900   16.0380    5.4980 N   0  0  0  0  0  0  0  0  0  0  0  0
   22.6760   15.6750    4.8070 S   0  0  0  0  0  6  0  0  0  0  0  0
   23.1820   16.9260    4.2700 O   0  0  0  0  0  0  0  0  0  0  0  0
   22.4410   14.5130    3.9670 O   0  0  0  0  0  0  0  0  0  0  0  0
   23.7230   15.1800    6.1480 C   0  0  0  0  0  0  0  0  0  0  0  0
   23.4700   15.6650    7.4210 C   0  0  0  0  0  0  0  0  0  0  0  0
   24.3180   15.2640    8.4580 C   0  0  0  0  0  0  0  0  0  0  0  0
   24.1140   15.7430    9.8360 C   0  0  0  0  0  0  0  0  0  0  0  0
   22.8880   15.5000   10.5070 C   0  0  0  0  0  0  0  0  0  0  0  0
   22.6670   15.9460   11.8140 C   0  0  0  0  0  0  0  0  0  0  0  0
   23.6930   16.6330   12.4310 C   0  0  0  0  0  0  0  0  0  0  0  0
   24.9060   16.8920   11.8030 C   0  0  0  0  0  0  0  0  0  0  0  0
   25.1300   16.4550   10.5070 C   0  0  0  0  0  0  0  0  0  0  0  0
   25.7980   17.6690   12.7140 C   0  0  0  0  0  0  0  0  0  0  0  0
   25.0140   17.7390   13.9420 N   0  0  0  0  0  0  0  0  0  0  0  0
   25.3430   18.6180   15.0580 C   0  0  1  0  0  0  0  0  0  0  0  0
   26.3330   17.9800   16.0280 C   0  0  0  0  0  0  0  0  0  0  0  0
   26.5570   18.9170   17.2070 C   0  0  0  0  0  0  0  0  0  0  0  0
   27.0160   20.2780   16.7420 C   0  0  0  0  0  0  0  0  0  0  0  0
   27.8270   20.9490   17.3740 O   0  0  0  0  0  0  0  0  0  0  0  0
   26.4670   20.7460   15.5750 N   0  0  0  0  0  0  0  0  0  0  0  0
   25.9050   19.9700   14.5880 C   0  0  0  0  0  0  0  0  0  0  0  0
   25.8840   20.3650   13.4240 O   0  0  0  0  0  0  0  0  0  0  0  0
   23.7410   17.2110   13.7770 C   0  0  0  0  0  0  0  0  0  0  0  0
   22.8210   17.2100   14.5730 O   0  0  0  0  0  0  0  0  0  0  0  0
   25.3720   14.3930    8.1430 C   0  0  0  0  0  0  0  0  0  0  0  0
   25.5380   13.9670    6.8320 C   0  0  0  0  0  0  0  0  0  0  0  0
   24.7350   14.3430    5.8170 N   0  0  0  0  0  0  0  0  0  0  0  0
   19.9930   15.6560    4.9830 C   0  0  0  0  0  0  0  0  0  0  0  0
   19.0030   16.1550    5.6940 N   0  0  0  0  0  0  0  0  0  0  0  0
   18.9504   19.6134    8.5356 H   0  0  0  0  0  0  0  0  0  0  0  0
   19.8320   19.3891    6.9867 H   0  0  0  0  0  0  0  0  0  0  0  0
   18.0430   19.5504    6.9867 H   0  0  0  0  0  0  0  0  0  0  0  0
   19.0924   17.3545    8.6894 H   0  0  0  0  0  0  0  0  0  0  0  0
   17.7197   17.3837    7.4997 H   0  0  0  0  0  0  0  0  0  0  0  0
   21.7256   17.3697    7.1895 H   0  0  0  0  0  0  0  0  0  0  0  0
   22.6268   16.3455    7.6103 H   0  0  0  0  0  0  0  0  0  0  0  0
   22.0918   14.9474    9.9867 H   0  0  0  0  0  0  0  0  0  0  0  0
   21.7139   15.7569   12.3296 H   0  0  0  0  0  0  0  0  0  0  0  0
   26.0883   16.6609   10.0078 H   0  0  0  0  0  0  0  0  0  0  0  0
   26.7504   17.1442   12.8801 H   0  0  0  0  0  0  0  0  0  0  0  0
   26.0777   18.6557   12.3162 H   0  0  0  0  0  0  0  0  0  0  0  0
   24.3916   18.7890   15.5830 H   0  0  0  0  0  0  0  0  0  0  0  0
   25.9279   17.0237   16.3904 H   0  0  0  0  0  0  0  0  0  0  0  0
   27.2886   17.7997   15.5138 H   0  0  0  0  0  0  0  0  0  0  0  0
   25.6140   19.0267   17.7626 H   0  0  0  0  0  0  0  0  0  0  0  0
   27.3382   18.4867   17.8509 H   0  0  0  0  0  0  0  0  0  0  0  0
   26.4765   21.7650   15.4252 H   0  0  0  0  0  0  0  0  0  0  0  0
   26.0615   14.0503    8.9286 H   0  0  0  0  0  0  0  0  0  0  0  0
   26.3714   13.2845    6.6093 H   0  0  0  0  0  0  0  0  0  0  0  0
   19.8676   15.0184    4.0954 H   0  0  0  0  0  0  0  0  0  0  0  0
  1  2  1  0
  2  3  1  0
  3  4  2  0
  4  5  1  0
  5  6  1  0
  6  7  2  0
  6  8  2  0
  6  9  1  0
  9 10  2  0
 10 11  1  0
 11 12  1  0
 12 13  2  0
 13 14  1  0
 14 15  2  0
 15 16  1  0
 16 17  2  0
 16 18  1  0
 18 19  1  0
 19 20  1  0
 20 21  1  0
 21 22  1  0
 22 23  1  0
 23 24  2  0
 23 25  1  0
 25 26  1  0
 26 27  2  0
 19 28  1  0
 28 29  2  0
 11 30  2  0
 30 31  1  0
 31 32  2  0
  5 33  1  0
 33 34  2  0
 34  3  1  0
 32  9  1  0
 17 12  1  0
 26 20  1  0
 28 15  1  0
  1 35  1  0
  1 36  1  0
  1 37  1  0
  2 38  1  0
  2 39  1  0
  4 40  1  0
 10 41  1  0
 13 42  1  0
 14 43  1  0
 17 44  1  0
 18 45  1  0
 18 46  1  0
 20 47  1  1
 21 48  1  0
 21 49  1  0
 22 50  1  0
 22 51  1  0
 25 52  1  0
 30 53  1  0
 31 54  1  0
 33 55  1  0
M  END
>  <meeko>  (303) 
{"is_sidechain": [true], "free_energy": -10.97, "intermolecular_energy": 0.0, "internal_energy": -10.97, "cluster_size": 19, "cluster_id": 1, "rank_in_cluster": 1}

>  <_RMSD_MCS_to_ref>  (303) 
0.7971302695712077

$$$$
ligand
     RDKit          3D

 54 58  0  0  0  0  0  0  0  0999 V2000
   18.8250   19.0170    7.5350 C   0  0  0  0  0  0  0  0  0  0  0  0
   18.5200   17.5420    7.7330 C   0  0  0  0  0  0  0  0  0  0  0  0
   19.7500   16.7050    7.7090 C   0  0  0  0  0  0  0  0  0  0  0  0
   20.1440   15.7190    8.5920 C   0  0  0  0  0  0  0  0  0  0  0  0
   21.3540   15.3110    8.1170 N   0  0  0  0  0  0  0  0  0  0  0  0
   22.4140   14.2380    8.8480 S   0  0  0  0  0  6  0  0  0  0  0  0
   21.6680   13.0340    9.1490 O   0  0  0  0  0  0  0  0  0  0  0  0
   23.5700   14.2280    7.9710 O   0  0  0  0  0  0  0  0  0  0  0  0
   22.8850   15.0040   10.3940 C   0  0  0  0  0  0  0  0  0  0  0  0
   21.8360   15.2170   11.3260 C   0  0  0  0  0  0  0  0  0  0  0  0
   22.0820   15.8090   12.5630 C   0  0  0  0  0  0  0  0  0  0  0  0
   23.3810   16.1790   12.8340 C   0  0  0  0  0  0  0  0  0  0  0  0
   24.4290   15.9910   11.9300 C   0  0  0  0  0  0  0  0  0  0  0  0
   24.2180   15.3990   10.6770 C   0  0  0  0  0  0  0  0  0  0  0  0
   25.3560   15.2560    9.7700 C   0  0  0  0  0  0  0  0  0  0  0  0
   25.7080   16.2150    8.8350 C   0  0  0  0  0  0  0  0  0  0  0  0
   26.7880   16.1270    8.0290 N   0  0  0  0  0  0  0  0  0  0  0  0
   27.5470   15.0340    8.1800 C   0  0  0  0  0  0  0  0  0  0  0  0
   27.3250   14.0420    9.0540 N   0  0  0  0  0  0  0  0  0  0  0  0
   26.2300   14.1800    9.8310 C   0  0  0  0  0  0  0  0  0  0  0  0
   25.6870   16.5590   12.5200 C   0  0  0  0  0  0  0  0  0  0  0  0
   25.2750   16.9570   13.8570 N   0  0  0  0  0  0  0  0  0  0  0  0
   26.1400   17.7810   14.6970 C   0  0  2  0  0  0  0  0  0  0  0  0
   25.8020   17.7140   16.1870 C   0  0  0  0  0  0  0  0  0  0  0  0
   26.7980   18.5570   16.9680 C   0  0  0  0  0  0  0  0  0  0  0  0
   26.8170   19.9840   16.4730 C   0  0  0  0  0  0  0  0  0  0  0  0
   27.1860   20.9170   17.1800 O   0  0  0  0  0  0  0  0  0  0  0  0
   26.4780   20.1860   15.1570 N   0  0  0  0  0  0  0  0  0  0  0  0
   26.1510   19.2390   14.2130 C   0  0  0  0  0  0  0  0  0  0  0  0
   25.9830   19.5640   13.0380 O   0  0  0  0  0  0  0  0  0  0  0  0
   23.9070   16.8380   14.0340 C   0  0  0  0  0  0  0  0  0  0  0  0
   23.2270   17.2080   14.9690 O   0  0  0  0  0  0  0  0  0  0  0  0
   21.6420   15.9900    6.9770 C   0  0  0  0  0  0  0  0  0  0  0  0
   20.6990   16.8700    6.7160 N   0  0  0  0  0  0  0  0  0  0  0  0
   18.9260   19.5054    8.5155 H   0  0  0  0  0  0  0  0  0  0  0  0
   19.7645   19.1250    6.9731 H   0  0  0  0  0  0  0  0  0  0  0  0
   18.0054   19.4887    6.9731 H   0  0  0  0  0  0  0  0  0  0  0  0
   18.0213   17.4108    8.7046 H   0  0  0  0  0  0  0  0  0  0  0  0
   17.8742   17.2167    6.9040 H   0  0  0  0  0  0  0  0  0  0  0  0
   19.6046   15.3481    9.4760 H   0  0  0  0  0  0  0  0  0  0  0  0
   20.8119   14.9096   11.0674 H   0  0  0  0  0  0  0  0  0  0  0  0
   21.2743   15.9737   13.2914 H   0  0  0  0  0  0  0  0  0  0  0  0
   25.0675   17.1045    8.7430 H   0  0  0  0  0  0  0  0  0  0  0  0
   28.4297   14.9422    7.5301 H   0  0  0  0  0  0  0  0  0  0  0  0
   26.0161   13.3861   10.5617 H   0  0  0  0  0  0  0  0  0  0  0  0
   26.4815   15.7994   12.5615 H   0  0  0  0  0  0  0  0  0  0  0  0
   26.1037   17.3895   11.9312 H   0  0  0  0  0  0  0  0  0  0  0  0
   27.1484   17.3544   14.5918 H   0  0  0  0  0  0  0  0  0  0  0  0
   24.7854   18.1010   16.3507 H   0  0  0  0  0  0  0  0  0  0  0  0
   25.8550   16.6701   16.5297 H   0  0  0  0  0  0  0  0  0  0  0  0
   26.5167   18.5504   18.0314 H   0  0  0  0  0  0  0  0  0  0  0  0
   27.8010   18.1277   16.8279 H   0  0  0  0  0  0  0  0  0  0  0  0
   26.4672   21.1653   14.8379 H   0  0  0  0  0  0  0  0  0  0  0  0
   22.5372   15.8274    6.3588 H   0  0  0  0  0  0  0  0  0  0  0  0
  1  2  1  0
  2  3  1  0
  3  4  2  0
  4  5  1  0
  5  6  1  0
  6  7  2  0
  6  8  2  0
  6  9  1  0
  9 10  2  0
 10 11  1  0
 11 12  2  0
 12 13  1  0
 13 14  2  0
 14 15  1  0
 15 16  2  0
 16 17  1  0
 17 18  2  0
 18 19  1  0
 19 20  2  0
 13 21  1  0
 21 22  1  0
 22 23  1  0
 23 24  1  0
 24 25  1  0
 25 26  1  0
 26 27  2  0
 26 28  1  0
 28 29  1  0
 29 30  2  0
 22 31  1  0
 31 32  2  0
  5 33  1  0
 33 34  2  0
 34  3  1  0
 14  9  1  0
 20 15  1  0
 29 23  1  0
 31 12  1  0
  1 35  1  0
  1 36  1  0
  1 37  1  0
  2 38  1  0
  2 39  1  0
  4 40  1  0
 10 41  1  0
 11 42  1  0
 16 43  1  0
 18 44  1  0
 20 45  1  0
 21 46  1  0
 21 47  1  0
 23 48  1  1
 24 49  1  0
 24 50  1  0
 25 51  1  0
 25 52  1  0
 28 53  1  0
 33 54  1  0
M  END
>  <meeko>  (304) 
{"is_sidechain": [true], "free_energy": -10.96, "intermolecular_energy": 0.0, "internal_energy": -10.96, "cluster_size": 13, "cluster_id": 1, "rank_in_cluster": 1}

>  <_RMSD_MCS_to_ref>  (304) 
0.8483208250551336

$$$$
ligand
     RDKit          3D

 53 57  0  0  0  0  0  0  0  0999 V2000
   18.7970   18.8170    7.7190 C   0  0  0  0  0  0  0  0  0  0  0  0
   18.5280   17.3290    7.8810 C   0  0  0  0  0  0  0  0  0  0  0  0
   19.7850   16.5310    7.9060 C   0  0  0  0  0  0  0  0  0  0  0  0
   20.2310   15.6440    8.8660 C   0  0  0  0  0  0  0  0  0  0  0  0
   21.4400   15.2220    8.3950 N   0  0  0  0  0  0  0  0  0  0  0  0
   22.3580   13.9650    9.0270 S   0  0  0  0  0  6  0  0  0  0  0  0
   21.4460   12.8480    9.1820 O   0  0  0  0  0  0  0  0  0  0  0  0
   23.5500   13.8850    8.2070 O   0  0  0  0  0  0  0  0  0  0  0  0
   22.8190   14.5490   10.6350 C   0  0  0  0  0  0  0  0  0  0  0  0
   23.9730   15.3210   10.7740 C   0  0  0  0  0  0  0  0  0  0  0  0
   24.2850   15.7440   12.0510 C   0  0  0  0  0  0  0  0  0  0  0  0
   23.5120   15.4320   13.1720 C   0  0  0  0  0  0  0  0  0  0  0  0
   22.3700   14.6540   13.0400 C   0  0  0  0  0  0  0  0  0  0  0  0
   21.5460   14.3170   14.1790 C   0  0  0  0  0  0  0  0  0  0  0  0
   20.7450   15.1440   15.0120 C   0  0  0  0  0  0  0  0  0  0  0  0
   20.1740   14.3130   15.9480 C   0  0  0  0  0  0  0  0  0  0  0  0
   20.5730   13.0310   15.7490 O   0  0  0  0  0  0  0  0  0  0  0  0
   21.4020   13.0370   14.6720 C   0  0  0  0  0  0  0  0  0  0  0  0
   22.0280   14.2040   11.7530 C   0  0  0  0  0  0  0  0  0  0  0  0
   24.1320   16.0410   14.3900 C   0  0  0  0  0  0  0  0  0  0  0  0
   25.3520   16.6450   13.8650 N   0  0  0  0  0  0  0  0  0  0  0  0
   26.1660   17.5920   14.6180 C   0  0  2  0  0  0  0  0  0  0  0  0
   25.9760   17.4580   16.1260 C   0  0  0  0  0  0  0  0  0  0  0  0
   26.9150   18.4180   16.8410 C   0  0  0  0  0  0  0  0  0  0  0  0
   26.7070   19.8380   16.3680 C   0  0  0  0  0  0  0  0  0  0  0  0
   26.7980   20.8020   17.1210 O   0  0  0  0  0  0  0  0  0  0  0  0
   26.4210   20.0060   15.0360 N   0  0  0  0  0  0  0  0  0  0  0  0
   25.8830   19.0480   14.2080 C   0  0  0  0  0  0  0  0  0  0  0  0
   25.2170   19.3750   13.2270 O   0  0  0  0  0  0  0  0  0  0  0  0
   25.4230   16.5590   12.4850 C   0  0  0  0  0  0  0  0  0  0  0  0
   26.2460   17.0530   11.7390 O   0  0  0  0  0  0  0  0  0  0  0  0
   21.6730   15.7960    7.1860 C   0  0  0  0  0  0  0  0  0  0  0  0
   20.6890   16.6080    6.8640 N   0  0  0  0  0  0  0  0  0  0  0  0
   18.8815   19.2845    8.7111 H   0  0  0  0  0  0  0  0  0  0  0  0
   19.7359   18.9616    7.1643 H   0  0  0  0  0  0  0  0  0  0  0  0
   17.9682   19.2812    7.1643 H   0  0  0  0  0  0  0  0  0  0  0  0
   17.9866   17.1673    8.8248 H   0  0  0  0  0  0  0  0  0  0  0  0
   17.9334   16.9967    7.0172 H   0  0  0  0  0  0  0  0  0  0  0  0
   19.7269   15.3460    9.7972 H   0  0  0  0  0  0  0  0  0  0  0  0
   24.6025   15.5796    9.9098 H   0  0  0  0  0  0  0  0  0  0  0  0
   20.6087   16.2321   14.9256 H   0  0  0  0  0  0  0  0  0  0  0  0
   19.4906   14.6412   16.7451 H   0  0  0  0  0  0  0  0  0  0  0  0
   21.8901   12.1452   14.2520 H   0  0  0  0  0  0  0  0  0  0  0  0
   21.1350   13.5766   11.6152 H   0  0  0  0  0  0  0  0  0  0  0  0
   23.4719   16.8018   14.8322 H   0  0  0  0  0  0  0  0  0  0  0  0
   24.3177   15.3135   15.1939 H   0  0  0  0  0  0  0  0  0  0  0  0
   27.2080   17.3408   14.3709 H   0  0  0  0  0  0  0  0  0  0  0  0
   24.9352   17.6996   16.3876 H   0  0  0  0  0  0  0  0  0  0  0  0
   26.2007   16.4263   16.4344 H   0  0  0  0  0  0  0  0  0  0  0  0
   26.7235   18.3683   17.9231 H   0  0  0  0  0  0  0  0  0  0  0  0
   27.9511   18.1240   16.6172 H   0  0  0  0  0  0  0  0  0  0  0  0
   26.6264   20.9264   14.6217 H   0  0  0  0  0  0  0  0  0  0  0  0
   22.5602   15.6082    6.5634 H   0  0  0  0  0  0  0  0  0  0  0  0
  1  2  1  0
  2  3  1  0
  3  4  2  0
  4  5  1  0
  5  6  1  0
  6  7  2  0
  6  8  2  0
  6  9  1  0
  9 10  2  0
 10 11  1  0
 11 12  2  0
 12 13  1  0
 13 14  1  0
 14 15  1  0
 15 16  2  0
 16 17  1  0
 17 18  1  0
 13 19  2  0
 12 20  1  0
 20 21  1  0
 21 22  1  0
 22 23  1  0
 23 24  1  0
 24 25  1  0
 25 26  2  0
 25 27  1  0
 27 28  1  0
 28 29  2  0
 21 30  1  0
 30 31  2  0
  5 32  1  0
 32 33  2  0
 33  3  1  0
 19  9  1  0
 28 22  1  0
 30 11  1  0
 18 14  2  0
  1 34  1  0
  1 35  1  0
  1 36  1  0
  2 37  1  0
  2 38  1  0
  4 39  1  0
 10 40  1  0
 15 41  1  0
 16 42  1  0
 18 43  1  0
 19 44  1  0
 20 45  1  0
 20 46  1  0
 22 47  1  1
 23 48  1  0
 23 49  1  0
 24 50  1  0
 24 51  1  0
 27 52  1  0
 32 53  1  0
M  END
>  <meeko>  (305) 
{"is_sidechain": [true], "free_energy": -10.96, "intermolecular_energy": 0.0, "internal_energy": -10.96, "cluster_size": 15, "cluster_id": 1, "rank_in_cluster": 1}

>  <_RMSD_MCS_to_ref>  (305) 
1.9742560483494642

$$$$
ligand
     RDKit          3D

 45 48  0  0  0  0  0  0  0  0999 V2000
   18.9090   19.1540    7.5370 C   0  0  0  0  0  0  0  0  0  0  0  0
   18.7730   17.6460    7.6780 C   0  0  0  0  0  0  0  0  0  0  0  0
   20.0860   16.9520    7.5770 C   0  0  0  0  0  0  0  0  0  0  0  0
   20.5710   15.8960    8.3240 C   0  0  0  0  0  0  0  0  0  0  0  0
   21.8080   15.6550    7.7990 N   0  0  0  0  0  0  0  0  0  0  0  0
   22.9670   14.6280    8.4490 S   0  0  0  0  0  6  0  0  0  0  0  0
   23.9460   14.4170    7.4020 O   0  0  0  0  0  0  0  0  0  0  0  0
   22.2350   13.5360    9.0600 O   0  0  0  0  0  0  0  0  0  0  0  0
   23.7120   15.5950    9.7330 C   0  0  0  0  0  0  0  0  0  0  0  0
   25.0130   16.0800    9.5660 C   0  0  0  0  0  0  0  0  0  0  0  0
   25.5850   16.8500   10.5770 C   0  0  0  0  0  0  0  0  0  0  0  0
   24.8460   17.1320   11.7330 C   0  0  0  0  0  0  0  0  0  0  0  0
   25.3950   17.9360   12.8220 C   0  0  0  0  0  0  0  0  0  0  0  0
   26.5350   18.3810   12.7380 O   0  0  0  0  0  0  0  0  0  0  0  0
   24.5440   18.1500   13.8920 N   0  0  0  0  0  0  0  0  0  0  0  0
   25.0610   18.8130   15.0860 C   0  0  1  0  0  0  0  0  0  0  0  0
   26.1770   18.0310   15.7790 C   0  0  0  0  0  0  0  0  0  0  0  0
   26.6240   18.7850   17.0220 C   0  0  0  0  0  0  0  0  0  0  0  0
   27.0630   20.1890   16.6810 C   0  0  0  0  0  0  0  0  0  0  0  0
   27.9180   20.7850   17.3290 O   0  0  0  0  0  0  0  0  0  0  0  0
   26.4250   20.7940   15.6270 N   0  0  0  0  0  0  0  0  0  0  0  0
   25.5670   20.2130   14.7170 C   0  0  0  0  0  0  0  0  0  0  0  0
   25.2220   20.8340   13.7140 O   0  0  0  0  0  0  0  0  0  0  0  0
   23.2930   17.6020   13.9820 N   0  0  0  0  0  0  0  0  0  0  0  0
   22.7960   16.9360   13.0500 N   0  0  0  0  0  0  0  0  0  0  0  0
   23.5500   16.6680   11.9040 C   0  0  0  0  0  0  0  0  0  0  0  0
   22.9780   15.8940   10.8880 C   0  0  0  0  0  0  0  0  0  0  0  0
   22.0590   16.5580    6.8180 C   0  0  0  0  0  0  0  0  0  0  0  0
   21.0260   17.3570    6.6500 N   0  0  0  0  0  0  0  0  0  0  0  0
   18.9504   19.6134    8.5356 H   0  0  0  0  0  0  0  0  0  0  0  0
   19.8320   19.3891    6.9867 H   0  0  0  0  0  0  0  0  0  0  0  0
   18.0430   19.5504    6.9867 H   0  0  0  0  0  0  0  0  0  0  0  0
   18.3274   17.4204    8.6581 H   0  0  0  0  0  0  0  0  0  0  0  0
   18.1361   17.2857    6.8567 H   0  0  0  0  0  0  0  0  0  0  0  0
   20.0742   15.3697    9.1523 H   0  0  0  0  0  0  0  0  0  0  0  0
   25.5775   15.8566    8.6487 H   0  0  0  0  0  0  0  0  0  0  0  0
   26.6101   17.2338   10.4679 H   0  0  0  0  0  0  0  0  0  0  0  0
   24.2271   18.8753   15.8007 H   0  0  0  0  0  0  0  0  0  0  0  0
   25.8047   17.0367   16.0667 H   0  0  0  0  0  0  0  0  0  0  0  0
   27.0282   17.9174   15.0916 H   0  0  0  0  0  0  0  0  0  0  0  0
   25.7859   18.8338   17.7328 H   0  0  0  0  0  0  0  0  0  0  0  0
   27.4777   18.2511   17.4649 H   0  0  0  0  0  0  0  0  0  0  0  0
   26.6085   21.7996   15.5010 H   0  0  0  0  0  0  0  0  0  0  0  0
   21.9494   15.5195   10.9967 H   0  0  0  0  0  0  0  0  0  0  0  0
   22.9951   16.6147    6.2431 H   0  0  0  0  0  0  0  0  0  0  0  0
  1  2  1  0
  2  3  1  0
  3  4  2  0
  4  5  1  0
  5  6  1  0
  6  7  2  0
  6  8  2  0
  6  9  1  0
  9 10  2  0
 10 11  1  0
 11 12  2  0
 12 13  1  0
 13 14  2  0
 13 15  1  0
 15 16  1  0
 16 17  1  0
 17 18  1  0
 18 19  1  0
 19 20  2  0
 19 21  1  0
 21 22  1  0
 22 23  2  0
 15 24  1  0
 24 25  2  0
 25 26  1  0
 26 27  2  0
  5 28  1  0
 28 29  2  0
 29  3  1  0
 27  9  1  0
 26 12  1  0
 22 16  1  0
  1 30  1  0
  1 31  1  0
  1 32  1  0
  2 33  1  0
  2 34  1  0
  4 35  1  0
 10 36  1  0
 11 37  1  0
 16 38  1  1
 17 39  1  0
 17 40  1  0
 18 41  1  0
 18 42  1  0
 21 43  1  0
 27 44  1  0
 28 45  1  0
M  END
>  <meeko>  (306) 
{"is_sidechain": [true], "free_energy": -10.96, "intermolecular_energy": 0.0, "internal_energy": -10.96, "cluster_size": 15, "cluster_id": 1, "rank_in_cluster": 1}

>  <_RMSD_MCS_to_ref>  (306) 
0.6484166184723452

$$$$
ligand
     RDKit          3D

 49 52  0  0  0  0  0  0  0  0999 V2000
   18.9090   19.1540    7.5370 C   0  0  0  0  0  0  0  0  0  0  0  0
   18.7730   17.6460    7.6780 C   0  0  0  0  0  0  0  0  0  0  0  0
   19.9140   16.9190    7.0580 C   0  0  0  0  0  0  0  0  0  0  0  0
   20.6370   15.8520    7.5550 C   0  0  0  0  0  0  0  0  0  0  0  0
   21.5430   15.5730    6.5710 N   0  0  0  0  0  0  0  0  0  0  0  0
   22.8460   14.5290    6.7060 S   0  0  0  0  0  6  0  0  0  0  0  0
   22.3770   13.3900    7.4690 O   0  0  0  0  0  0  0  0  0  0  0  0
   23.4190   14.4170    5.3790 O   0  0  0  0  0  0  0  0  0  0  0  0
   24.0830   15.2400    7.6690 C   0  0  0  0  0  0  0  0  0  0  0  0
   25.3560   15.5910    7.2640 C   0  0  0  0  0  0  0  0  0  0  0  0
   26.0030   16.1180    8.3530 N   0  0  0  0  0  0  0  0  0  0  0  0
   25.1740   16.1060    9.4510 C   0  0  0  0  0  0  0  0  0  0  0  0
   25.4140   16.5410   10.7610 C   0  0  0  0  0  0  0  0  0  0  0  0
   24.3790   16.4070   11.7020 C   0  0  0  0  0  0  0  0  0  0  0  0
   24.6440   16.8750   13.0930 C   0  0  0  0  0  0  0  0  0  0  0  0
   24.3900   16.1520   14.0500 O   0  0  0  0  0  0  0  0  0  0  0  0
   25.1420   18.1510   13.2330 N   0  0  0  0  0  0  0  0  0  0  0  0
   25.2900   18.7580   14.5500 C   0  0  1  0  0  0  0  0  0  0  0  0
   26.3080   18.0210   15.4140 C   0  0  0  0  0  0  0  0  0  0  0  0
   26.4380   18.7270   16.7550 C   0  0  0  0  0  0  0  0  0  0  0  0
   26.8020   20.1820   16.5760 C   0  0  0  0  0  0  0  0  0  0  0  0
   27.5090   20.7880   17.3740 O   0  0  0  0  0  0  0  0  0  0  0  0
   26.2710   20.8180   15.4820 N   0  0  0  0  0  0  0  0  0  0  0  0
   25.7470   20.2090   14.3690 C   0  0  0  0  0  0  0  0  0  0  0  0
   25.6420   20.8130   13.3020 O   0  0  0  0  0  0  0  0  0  0  0  0
   23.1430   15.8760   11.3230 C   0  0  0  0  0  0  0  0  0  0  0  0
   22.9220   15.4460   10.0050 C   0  0  0  0  0  0  0  0  0  0  0  0
   23.9540   15.5590    9.0500 C   0  0  0  0  0  0  0  0  0  0  0  0
   21.3980   16.4740    5.5650 C   0  0  0  0  0  0  0  0  0  0  0  0
   20.4060   17.3020    5.8260 N   0  0  0  0  0  0  0  0  0  0  0  0
   18.9504   19.6134    8.5356 H   0  0  0  0  0  0  0  0  0  0  0  0
   19.8320   19.3891    6.9867 H   0  0  0  0  0  0  0  0  0  0  0  0
   18.0430   19.5504    6.9867 H   0  0  0  0  0  0  0  0  0  0  0  0
   18.7304   17.3925    8.7475 H   0  0  0  0  0  0  0  0  0  0  0  0
   17.8538   17.3393    7.1574 H   0  0  0  0  0  0  0  0  0  0  0  0
   20.5119   15.3431    8.5222 H   0  0  0  0  0  0  0  0  0  0  0  0
   25.7743   15.4702    6.2538 H   0  0  0  0  0  0  0  0  0  0  0  0
   26.9703   16.4718    8.3491 H   0  0  0  0  0  0  0  0  0  0  0  0
   26.3843   16.9748   11.0446 H   0  0  0  0  0  0  0  0  0  0  0  0
   25.4139   18.6844   12.3949 H   0  0  0  0  0  0  0  0  0  0  0  0
   24.3179   18.7046   15.0619 H   0  0  0  0  0  0  0  0  0  0  0  0
   25.9718   16.9861   15.5752 H   0  0  0  0  0  0  0  0  0  0  0  0
   27.2839   18.0138   14.9065 H   0  0  0  0  0  0  0  0  0  0  0  0
   25.4788   18.6607   17.2894 H   0  0  0  0  0  0  0  0  0  0  0  0
   27.2380   18.2370   17.3293 H   0  0  0  0  0  0  0  0  0  0  0  0
   26.2651   21.8479   15.4975 H   0  0  0  0  0  0  0  0  0  0  0  0
   22.3351   15.7942   12.0650 H   0  0  0  0  0  0  0  0  0  0  0  0
   21.9481   15.0227    9.7182 H   0  0  0  0  0  0  0  0  0  0  0  0
   22.0212   16.5080    4.6592 H   0  0  0  0  0  0  0  0  0  0  0  0
  1  2  1  0
  2  3  1  0
  3  4  2  0
  4  5  1  0
  5  6  1  0
  6  7  2  0
  6  8  2  0
  6  9  1  0
  9 10  2  0
 10 11  1  0
 11 12  1  0
 12 13  2  0
 13 14  1  0
 14 15  1  0
 15 16  2  0
 15 17  1  0
 17 18  1  0
 18 19  1  0
 19 20  1  0
 20 21  1  0
 21 22  2  0
 21 23  1  0
 23 24  1  0
 24 25  2  0
 14 26  2  0
 26 27  1  0
 27 28  2  0
  5 29  1  0
 29 30  2  0
 30  3  1  0
 28  9  1  0
 28 12  1  0
 24 18  1  0
  1 31  1  0
  1 32  1  0
  1 33  1  0
  2 34  1  0
  2 35  1  0
  4 36  1  0
 10 37  1  0
 11 38  1  0
 13 39  1  0
 17 40  1  0
 18 41  1  1
 19 42  1  0
 19 43  1  0
 20 44  1  0
 20 45  1  0
 23 46  1  0
 26 47  1  0
 27 48  1  0
 29 49  1  0
M  END
>  <meeko>  (307) 
{"is_sidechain": [true], "free_energy": -10.96, "intermolecular_energy": 0.0, "internal_energy": -10.96, "cluster_size": 18, "cluster_id": 1, "rank_in_cluster": 1}

>  <_RMSD_MCS_to_ref>  (307) 
0.6357761988310033

$$$$
ligand
     RDKit          3D

 49 52  0  0  0  0  0  0  0  0999 V2000
   18.9090   19.1540    7.5370 C   0  0  0  0  0  0  0  0  0  0  0  0
   18.7730   17.6460    7.6780 C   0  0  0  0  0  0  0  0  0  0  0  0
   20.0870   16.9530    7.5920 C   0  0  0  0  0  0  0  0  0  0  0  0
   21.0020   16.7010    8.5940 C   0  0  0  0  0  0  0  0  0  0  0  0
   22.0110   16.0280    7.9660 N   0  0  0  0  0  0  0  0  0  0  0  0
   23.5080   15.6480    8.6280 S   0  0  0  0  0  6  0  0  0  0  0  0
   23.8710   14.3540    8.0840 O   0  0  0  0  0  0  0  0  0  0  0  0
   24.3280   16.8290    8.4420 O   0  0  0  0  0  0  0  0  0  0  0  0
   23.1670   15.4600   10.3570 C   0  0  0  0  0  0  0  0  0  0  0  0
   24.0590   15.9900   11.2960 C   0  0  0  0  0  0  0  0  0  0  0  0
   23.8080   15.8510   12.6700 C   0  0  0  0  0  0  0  0  0  0  0  0
   24.7100   16.3880   13.7270 C   0  0  0  0  0  0  0  0  0  0  0  0
   25.1900   15.6350   14.5710 O   0  0  0  0  0  0  0  0  0  0  0  0
   24.9980   17.7340   13.6820 N   0  0  0  0  0  0  0  0  0  0  0  0
   25.9800   18.3210   14.5860 C   0  0  2  0  0  0  0  0  0  0  0  0
   25.6780   18.0080   16.0480 C   0  0  0  0  0  0  0  0  0  0  0  0
   26.7130   18.6820   16.9340 C   0  0  0  0  0  0  0  0  0  0  0  0
   26.7710   20.1700   16.6780 C   0  0  0  0  0  0  0  0  0  0  0  0
   27.0250   20.9810   17.5630 O   0  0  0  0  0  0  0  0  0  0  0  0
   26.5570   20.5800   15.3860 N   0  0  0  0  0  0  0  0  0  0  0  0
   25.9740   19.8390   14.3890 C   0  0  0  0  0  0  0  0  0  0  0  0
   25.4920   20.3770   13.3920 O   0  0  0  0  0  0  0  0  0  0  0  0
   22.6230   15.1880   13.0410 C   0  0  0  0  0  0  0  0  0  0  0  0
   22.1030   14.9380   14.2960 N   0  0  0  0  0  0  0  0  0  0  0  0
   20.9310   14.2390   14.1940 C   0  0  0  0  0  0  0  0  0  0  0  0
   20.6780   14.0360   12.8570 C   0  0  0  0  0  0  0  0  0  0  0  0
   21.7330   14.6390   12.1180 C   0  0  0  0  0  0  0  0  0  0  0  0
   22.0130   14.7640   10.7460 C   0  0  0  0  0  0  0  0  0  0  0  0
   21.7220   15.9280    6.6420 C   0  0  0  0  0  0  0  0  0  0  0  0
   20.5520   16.4730    6.3840 N   0  0  0  0  0  0  0  0  0  0  0  0
   18.9504   19.6134    8.5356 H   0  0  0  0  0  0  0  0  0  0  0  0
   19.8320   19.3891    6.9867 H   0  0  0  0  0  0  0  0  0  0  0  0
   18.0430   19.5504    6.9867 H   0  0  0  0  0  0  0  0  0  0  0  0
   18.3170   17.4210    8.6534 H   0  0  0  0  0  0  0  0  0  0  0  0
   18.1455   17.2845    6.8500 H   0  0  0  0  0  0  0  0  0  0  0  0
   20.9341   16.9788    9.6562 H   0  0  0  0  0  0  0  0  0  0  0  0
   24.9617   16.5184   10.9555 H   0  0  0  0  0  0  0  0  0  0  0  0
   24.5129   18.3345   13.0001 H   0  0  0  0  0  0  0  0  0  0  0  0
   26.9640   17.8895   14.3502 H   0  0  0  0  0  0  0  0  0  0  0  0
   24.6760   18.3829   16.3040 H   0  0  0  0  0  0  0  0  0  0  0  0
   25.7132   16.9199   16.2052 H   0  0  0  0  0  0  0  0  0  0  0  0
   26.4488   18.5100   17.9879 H   0  0  0  0  0  0  0  0  0  0  0  0
   27.6990   18.2519   16.7042 H   0  0  0  0  0  0  0  0  0  0  0  0
   26.8625   21.5329   15.1418 H   0  0  0  0  0  0  0  0  0  0  0  0
   22.5357   15.2353   15.1822 H   0  0  0  0  0  0  0  0  0  0  0  0
   20.3034   13.9000   15.0313 H   0  0  0  0  0  0  0  0  0  0  0  0
   19.8137   13.5024   12.4348 H   0  0  0  0  0  0  0  0  0  0  0  0
   21.3413   14.3253    9.9935 H   0  0  0  0  0  0  0  0  0  0  0  0
   22.3742   15.4577    5.8913 H   0  0  0  0  0  0  0  0  0  0  0  0
  1  2  1  0
  2  3  1  0
  3  4  2  0
  4  5  1  0
  5  6  1  0
  6  7  2  0
  6  8  2  0
  6  9  1  0
  9 10  2  0
 10 11  1  0
 11 12  1  0
 12 13  2  0
 12 14  1  0
 14 15  1  0
 15 16  1  0
 16 17  1  0
 17 18  1  0
 18 19  2  0
 18 20  1  0
 20 21  1  0
 21 22  2  0
 11 23  2  0
 23 24  1  0
 24 25  1  0
 25 26  2  0
 26 27  1  0
 27 28  2  0
  5 29  1  0
 29 30  2  0
 30  3  1  0
 28  9  1  0
 21 15  1  0
 27 23  1  0
  1 31  1  0
  1 32  1  0
  1 33  1  0
  2 34  1  0
  2 35  1  0
  4 36  1  0
 10 37  1  0
 14 38  1  0
 15 39  1  6
 16 40  1  0
 16 41  1  0
 17 42  1  0
 17 43  1  0
 20 44  1  0
 24 45  1  0
 25 46  1  0
 26 47  1  0
 28 48  1  0
 29 49  1  0
M  END
>  <meeko>  (308) 
{"is_sidechain": [true], "free_energy": -10.96, "intermolecular_energy": 0.0, "internal_energy": -10.96, "cluster_size": 20, "cluster_id": 1, "rank_in_cluster": 1}

>  <_RMSD_MCS_to_ref>  (308) 
0.7222959919589752

$$$$
ligand
     RDKit          3D

 47 50  0  0  0  0  0  0  0  0999 V2000
   18.9090   19.1540    7.5370 C   0  0  0  0  0  0  0  0  0  0  0  0
   18.7730   17.6460    7.6780 C   0  0  0  0  0  0  0  0  0  0  0  0
   20.0890   16.9550    7.6050 C   0  0  0  0  0  0  0  0  0  0  0  0
   21.0110   16.7340    8.6090 C   0  0  0  0  0  0  0  0  0  0  0  0
   22.0190   16.0480    7.9930 N   0  0  0  0  0  0  0  0  0  0  0  0
   23.4930   15.6290    8.6780 S   0  0  0  0  0  6  0  0  0  0  0  0
   23.7730   14.2830    8.2110 O   0  0  0  0  0  0  0  0  0  0  0  0
   24.3880   16.7410    8.4210 O   0  0  0  0  0  0  0  0  0  0  0  0
   23.2020   15.5460   10.4300 C   0  0  0  0  0  0  0  0  0  0  0  0
   24.1700   16.0510   11.2890 C   0  0  0  0  0  0  0  0  0  0  0  0
   23.9270   15.9770   12.6670 C   0  0  0  0  0  0  0  0  0  0  0  0
   24.8860   16.4940   13.6720 C   0  0  0  0  0  0  0  0  0  0  0  0
   25.5740   15.7210   14.3270 O   0  0  0  0  0  0  0  0  0  0  0  0
   24.9720   17.8620   13.7980 N   0  0  0  0  0  0  0  0  0  0  0  0
   25.9860   18.4710   14.6530 C   0  0  2  0  0  0  0  0  0  0  0  0
   25.8310   18.0640   16.1150 C   0  0  0  0  0  0  0  0  0  0  0  0
   26.8860   18.7690   16.9520 C   0  0  0  0  0  0  0  0  0  0  0  0
   26.8170   20.2680   16.7740 C   0  0  0  0  0  0  0  0  0  0  0  0
   27.0760   21.0520   17.6820 O   0  0  0  0  0  0  0  0  0  0  0  0
   26.4740   20.7240   15.5260 N   0  0  0  0  0  0  0  0  0  0  0  0
   25.8560   19.9930   14.5430 C   0  0  0  0  0  0  0  0  0  0  0  0
   25.2470   20.5400   13.6240 O   0  0  0  0  0  0  0  0  0  0  0  0
   22.7070   15.4150   13.0880 C   0  0  0  0  0  0  0  0  0  0  0  0
   22.0280   15.1450   14.2980 C   0  0  0  0  0  0  0  0  0  0  0  0
   20.8440   14.5520   14.1100 N   0  0  0  0  0  0  0  0  0  0  0  0
   20.7510   14.4520   12.7700 N   0  0  0  0  0  0  0  0  0  0  0  0
   21.8400   14.9490   12.1100 C   0  0  0  0  0  0  0  0  0  0  0  0
   22.0200   14.9750   10.7760 N   0  0  0  0  0  0  0  0  0  0  0  0
   21.7210   15.9060    6.6750 C   0  0  0  0  0  0  0  0  0  0  0  0
   20.5450   16.4370    6.4080 N   0  0  0  0  0  0  0  0  0  0  0  0
   18.9504   19.6134    8.5356 H   0  0  0  0  0  0  0  0  0  0  0  0
   19.8320   19.3891    6.9867 H   0  0  0  0  0  0  0  0  0  0  0  0
   18.0430   19.5504    6.9867 H   0  0  0  0  0  0  0  0  0  0  0  0
   18.3080   17.4213    8.6492 H   0  0  0  0  0  0  0  0  0  0  0  0
   18.1535   17.2828    6.8447 H   0  0  0  0  0  0  0  0  0  0  0  0
   20.9481   17.0403    9.6636 H   0  0  0  0  0  0  0  0  0  0  0  0
   25.0980   16.4950   10.8996 H   0  0  0  0  0  0  0  0  0  0  0  0
   24.3130   18.4630   13.2828 H   0  0  0  0  0  0  0  0  0  0  0  0
   26.9738   18.1238   14.3159 H   0  0  0  0  0  0  0  0  0  0  0  0
   24.8299   18.3491   16.4708 H   0  0  0  0  0  0  0  0  0  0  0  0
   25.9568   16.9752   16.2077 H   0  0  0  0  0  0  0  0  0  0  0  0
   26.7231   18.5263   18.0124 H   0  0  0  0  0  0  0  0  0  0  0  0
   27.8775   18.4256   16.6219 H   0  0  0  0  0  0  0  0  0  0  0  0
   26.7012   21.7045   15.3072 H   0  0  0  0  0  0  0  0  0  0  0  0
   22.4311   15.3962   15.2902 H   0  0  0  0  0  0  0  0  0  0  0  0
   19.9381   14.0409   12.2892 H   0  0  0  0  0  0  0  0  0  0  0  0
   22.3705   15.4163    5.9345 H   0  0  0  0  0  0  0  0  0  0  0  0
  1  2  1  0
  2  3  1  0
  3  4  2  0
  4  5  1  0
  5  6  1  0
  6  7  2  0
  6  8  2  0
  6  9  1  0
  9 10  2  0
 10 11  1  0
 11 12  1  0
 12 13  2  0
 12 14  1  0
 14 15  1  0
 15 16  1  0
 16 17  1  0
 17 18  1  0
 18 19  2  0
 18 20  1  0
 20 21  1  0
 21 22  2  0
 11 23  2  0
 23 24  1  0
 24 25  2  0
 25 26  1  0
 26 27  1  0
 27 28  2  0
  5 29  1  0
 29 30  2  0
 30  3  1  0
 28  9  1  0
 21 15  1  0
 27 23  1  0
  1 31  1  0
  1 32  1  0
  1 33  1  0
  2 34  1  0
  2 35  1  0
  4 36  1  0
 10 37  1  0
 14 38  1  0
 15 39  1  6
 16 40  1  0
 16 41  1  0
 17 42  1  0
 17 43  1  0
 20 44  1  0
 24 45  1  0
 26 46  1  0
 29 47  1  0
M  END
>  <meeko>  (309) 
{"is_sidechain": [true], "free_energy": -10.96, "intermolecular_energy": 0.0, "internal_energy": -10.96, "cluster_size": 20, "cluster_id": 1, "rank_in_cluster": 1}

>  <_RMSD_MCS_to_ref>  (309) 
0.7179385612834693

$$$$
ligand
     RDKit          3D

 50 53  0  0  0  0  0  0  0  0999 V2000
   18.9090   19.1540    7.5370 C   0  0  0  0  0  0  0  0  0  0  0  0
   18.7730   17.6460    7.6780 C   0  0  0  0  0  0  0  0  0  0  0  0
   20.0910   16.9580    7.6250 C   0  0  0  0  0  0  0  0  0  0  0  0
   20.9740   16.6940    8.6530 C   0  0  0  0  0  0  0  0  0  0  0  0
   22.0080   16.0400    8.0450 N   0  0  0  0  0  0  0  0  0  0  0  0
   23.3890   15.4660    8.8080 S   0  0  0  0  0  6  0  0  0  0  0  0
   23.6670   14.1490    8.2690 O   0  0  0  0  0  0  0  0  0  0  0  0
   24.3440   16.5540    8.6730 O   0  0  0  0  0  0  0  0  0  0  0  0
   23.0360   15.2980   10.5300 C   0  0  0  0  0  0  0  0  0  0  0  0
   23.9730   15.8240   11.4400 C   0  0  0  0  0  0  0  0  0  0  0  0
   23.7350   15.7250   12.8090 C   0  0  0  0  0  0  0  0  0  0  0  0
   24.6730   16.2770   13.8260 C   0  0  0  0  0  0  0  0  0  0  0  0
   25.2230   15.5280   14.6240 O   0  0  0  0  0  0  0  0  0  0  0  0
   24.8960   17.6350   13.7920 N   0  0  0  0  0  0  0  0  0  0  0  0
   25.9010   18.2500   14.6500 C   0  0  2  0  0  0  0  0  0  0  0  0
   25.6570   17.9550   16.1260 C   0  0  0  0  0  0  0  0  0  0  0  0
   26.7130   18.6580   16.9640 C   0  0  0  0  0  0  0  0  0  0  0  0
   26.7400   20.1430   16.6840 C   0  0  0  0  0  0  0  0  0  0  0  0
   27.0130   20.9710   17.5470 O   0  0  0  0  0  0  0  0  0  0  0  0
   26.4730   20.5300   15.3940 N   0  0  0  0  0  0  0  0  0  0  0  0
   25.8670   19.7650   14.4300 C   0  0  0  0  0  0  0  0  0  0  0  0
   25.3420   20.2800   13.4430 O   0  0  0  0  0  0  0  0  0  0  0  0
   22.5570   15.1180   13.2500 C   0  0  0  0  0  0  0  0  0  0  0  0
   21.6340   14.5870   12.3330 C   0  0  0  0  0  0  0  0  0  0  0  0
   20.4570   13.9690   12.7790 C   0  0  0  0  0  0  0  0  0  0  0  0
   19.5550   13.4470   11.8610 C   0  0  0  0  0  0  0  0  0  0  0  0
   19.8640   13.5580   10.5230 C   0  0  0  0  0  0  0  0  0  0  0  0
   20.9920   14.1470   10.0620 N   0  0  0  0  0  0  0  0  0  0  0  0
   21.8690   14.6640   10.9420 C   0  0  0  0  0  0  0  0  0  0  0  0
   21.7500   15.9340    6.7160 C   0  0  0  0  0  0  0  0  0  0  0  0
   20.5870   16.4830    6.4270 N   0  0  0  0  0  0  0  0  0  0  0  0
   18.9504   19.6134    8.5356 H   0  0  0  0  0  0  0  0  0  0  0  0
   19.8320   19.3891    6.9867 H   0  0  0  0  0  0  0  0  0  0  0  0
   18.0430   19.5504    6.9867 H   0  0  0  0  0  0  0  0  0  0  0  0
   18.2943   17.4217    8.6426 H   0  0  0  0  0  0  0  0  0  0  0  0
   18.1659   17.2804    6.8367 H   0  0  0  0  0  0  0  0  0  0  0  0
   20.8691   16.9512    9.7173 H   0  0  0  0  0  0  0  0  0  0  0  0
   24.8882   16.3106   11.0718 H   0  0  0  0  0  0  0  0  0  0  0  0
   24.3452   18.2244   13.1516 H   0  0  0  0  0  0  0  0  0  0  0  0
   26.8821   17.8291   14.3848 H   0  0  0  0  0  0  0  0  0  0  0  0
   24.6593   18.3188   16.4127 H   0  0  0  0  0  0  0  0  0  0  0  0
   25.7147   16.8700   16.2978 H   0  0  0  0  0  0  0  0  0  0  0  0
   26.4893   18.4986   18.0291 H   0  0  0  0  0  0  0  0  0  0  0  0
   27.6964   18.2387   16.7049 H   0  0  0  0  0  0  0  0  0  0  0  0
   26.7539   21.4837   15.1250 H   0  0  0  0  0  0  0  0  0  0  0  0
   22.3492   15.0548   14.3283 H   0  0  0  0  0  0  0  0  0  0  0  0
   20.2480   13.8976   13.8566 H   0  0  0  0  0  0  0  0  0  0  0  0
   18.6250   12.9612   12.1912 H   0  0  0  0  0  0  0  0  0  0  0  0
   19.1555   13.1455    9.7896 H   0  0  0  0  0  0  0  0  0  0  0  0
   22.4178   15.4570    5.9835 H   0  0  0  0  0  0  0  0  0  0  0  0
  1  2  1  0
  2  3  1  0
  3  4  2  0
  4  5  1  0
  5  6  1  0
  6  7  2  0
  6  8  2  0
  6  9  1  0
  9 10  2  0
 10 11  1  0
 11 12  1  0
 12 13  2  0
 12 14  1  0
 14 15  1  0
 15 16  1  0
 16 17  1  0
 17 18  1  0
 18 19  2  0
 18 20  1  0
 20 21  1  0
 21 22  2  0
 11 23  2  0
 23 24  1  0
 24 25  2  0
 25 26  1  0
 26 27  2  0
 27 28  1  0
 28 29  2  0
  5 30  1  0
 30 31  2  0
 31  3  1  0
 29  9  1  0
 21 15  1  0
 29 24  1  0
  1 32  1  0
  1 33  1  0
  1 34  1  0
  2 35  1  0
  2 36  1  0
  4 37  1  0
 10 38  1  0
 14 39  1  0
 15 40  1  6
 16 41  1  0
 16 42  1  0
 17 43  1  0
 17 44  1  0
 20 45  1  0
 23 46  1  0
 25 47  1  0
 26 48  1  0
 27 49  1  0
 30 50  1  0
M  END
>  <meeko>  (310) 
{"is_sidechain": [true], "free_energy": -10.96, "intermolecular_energy": 0.0, "internal_energy": -10.96, "cluster_size": 20, "cluster_id": 1, "rank_in_cluster": 1}

>  <_RMSD_MCS_to_ref>  (310) 
0.6304788303785905

$$$$
ligand
     RDKit          3D

 54 57  0  0  0  0  0  0  0  0999 V2000
   18.9090   19.1540    7.5370 C   0  0  0  0  0  0  0  0  0  0  0  0
   18.7730   17.6460    7.6780 C   0  0  0  0  0  0  0  0  0  0  0  0
   20.0840   16.9490    7.5620 C   0  0  0  0  0  0  0  0  0  0  0  0
   21.0890   16.8290    8.5010 C   0  0  0  0  0  0  0  0  0  0  0  0
   22.0470   16.0800    7.8750 N   0  0  0  0  0  0  0  0  0  0  0  0
   23.3590   15.3480    8.6310 S   0  0  0  0  0  6  0  0  0  0  0  0
   24.4520   16.2800    8.4320 O   0  0  0  0  0  0  0  0  0  0  0  0
   23.3860   13.9870    8.1350 O   0  0  0  0  0  0  0  0  0  0  0  0
   22.9860   15.2840   10.3770 C   0  0  0  0  0  0  0  0  0  0  0  0
   23.8900   15.8210   11.3060 C   0  0  0  0  0  0  0  0  0  0  0  0
   23.6330   15.7270   12.6770 C   0  0  0  0  0  0  0  0  0  0  0  0
   24.5860   16.2640   13.6890 C   0  0  0  0  0  0  0  0  0  0  0  0
   25.1060   15.5190   14.5120 O   0  0  0  0  0  0  0  0  0  0  0  0
   24.8590   17.6120   13.6170 N   0  0  0  0  0  0  0  0  0  0  0  0
   25.8730   18.2280   14.4610 C   0  0  2  0  0  0  0  0  0  0  0  0
   25.6490   17.9370   15.9410 C   0  0  0  0  0  0  0  0  0  0  0  0
   26.7110   18.6500   16.7630 C   0  0  0  0  0  0  0  0  0  0  0  0
   26.7240   20.1330   16.4770 C   0  0  0  0  0  0  0  0  0  0  0  0
   27.0120   20.9660   17.3330 O   0  0  0  0  0  0  0  0  0  0  0  0
   26.4330   20.5160   15.1930 N   0  0  0  0  0  0  0  0  0  0  0  0
   25.8220   19.7430   14.2370 C   0  0  0  0  0  0  0  0  0  0  0  0
   25.2840   20.2520   13.2520 O   0  0  0  0  0  0  0  0  0  0  0  0
   22.4480   15.1360   13.1190 C   0  0  0  0  0  0  0  0  0  0  0  0
   21.5240   14.6060   12.2020 C   0  0  0  0  0  0  0  0  0  0  0  0
   21.7820   14.6910   10.8160 C   0  0  0  0  0  0  0  0  0  0  0  0
   20.7750   14.0880    9.8550 C   0  0  0  0  0  0  0  0  0  0  0  0
   19.4060   13.8320   10.4950 C   0  0  0  0  0  0  0  0  0  0  0  0
   19.5570   13.1400   11.7740 N   0  0  0  0  0  0  0  0  0  0  0  0
   20.2380   14.0100   12.7340 C   0  0  0  0  0  0  0  0  0  0  0  0
   21.6230   15.7750    6.6200 C   0  0  0  0  0  0  0  0  0  0  0  0
   20.4250   16.2790    6.4040 N   0  0  0  0  0  0  0  0  0  0  0  0
   18.9504   19.6134    8.5356 H   0  0  0  0  0  0  0  0  0  0  0  0
   19.8320   19.3891    6.9867 H   0  0  0  0  0  0  0  0  0  0  0  0
   18.0430   19.5504    6.9867 H   0  0  0  0  0  0  0  0  0  0  0  0
   18.3378   17.4202    8.6627 H   0  0  0  0  0  0  0  0  0  0  0  0
   18.1271   17.2878    6.8628 H   0  0  0  0  0  0  0  0  0  0  0  0
   21.1136   17.2417    9.5203 H   0  0  0  0  0  0  0  0  0  0  0  0
   24.8057   16.3185   10.9538 H   0  0  0  0  0  0  0  0  0  0  0  0
   24.3343   18.1973   12.9514 H   0  0  0  0  0  0  0  0  0  0  0  0
   26.8527   17.8091   14.1875 H   0  0  0  0  0  0  0  0  0  0  0  0
   24.6526   18.2956   16.2387 H   0  0  0  0  0  0  0  0  0  0  0  0
   25.7155   16.8531   16.1162 H   0  0  0  0  0  0  0  0  0  0  0  0
   26.5020   18.4932   17.8315 H   0  0  0  0  0  0  0  0  0  0  0  0
   27.6939   18.2363   16.4933 H   0  0  0  0  0  0  0  0  0  0  0  0
   26.6976   21.4733   14.9201 H   0  0  0  0  0  0  0  0  0  0  0  0
   22.2350   15.0845   14.1970 H   0  0  0  0  0  0  0  0  0  0  0  0
   20.6417   14.7790    9.0096 H   0  0  0  0  0  0  0  0  0  0  0  0
   21.1727   13.1138    9.5345 H   0  0  0  0  0  0  0  0  0  0  0  0
   18.8995   14.7941   10.6621 H   0  0  0  0  0  0  0  0  0  0  0  0
   18.8108   13.2010    9.8186 H   0  0  0  0  0  0  0  0  0  0  0  0
   18.6268   12.8906   12.1392 H   0  0  0  0  0  0  0  0  0  0  0  0
   19.5581   14.8320   13.0023 H   0  0  0  0  0  0  0  0  0  0  0  0
   20.5040   13.3887   13.6019 H   0  0  0  0  0  0  0  0  0  0  0  0
   22.1989   15.1899    5.8879 H   0  0  0  0  0  0  0  0  0  0  0  0
  1  2  1  0
  2  3  1  0
  3  4  2  0
  4  5  1  0
  5  6  1  0
  6  7  2  0
  6  8  2  0
  6  9  1  0
  9 10  2  0
 10 11  1  0
 11 12  1  0
 12 13  2  0
 12 14  1  0
 14 15  1  0
 15 16  1  0
 16 17  1  0
 17 18  1  0
 18 19  2  0
 18 20  1  0
 20 21  1  0
 21 22  2  0
 11 23  2  0
 23 24  1  0
 24 25  2  0
 25 26  1  0
 26 27  1  0
 27 28  1  0
 28 29  1  0
  5 30  1  0
 30 31  2  0
 31  3  1  0
 25  9  1  0
 21 15  1  0
 29 24  1  0
  1 32  1  0
  1 33  1  0
  1 34  1  0
  2 35  1  0
  2 36  1  0
  4 37  1  0
 10 38  1  0
 14 39  1  0
 15 40  1  6
 16 41  1  0
 16 42  1  0
 17 43  1  0
 17 44  1  0
 20 45  1  0
 23 46  1  0
 26 47  1  0
 26 48  1  0
 27 49  1  0
 27 50  1  0
 28 51  1  0
 29 52  1  0
 29 53  1  0
 30 54  1  0
M  END
>  <meeko>  (311) 
{"is_sidechain": [true], "free_energy": -10.96, "intermolecular_energy": 0.0, "internal_energy": -10.96, "cluster_size": 19, "cluster_id": 1, "rank_in_cluster": 1}

>  <_RMSD_MCS_to_ref>  (311) 
0.58036511496356

$$$$
ligand
     RDKit          3D

 53 56  0  0  0  0  0  0  0  0999 V2000
   18.9090   19.1540    7.5370 C   0  0  0  0  0  0  0  0  0  0  0  0
   18.7730   17.6460    7.6780 C   0  0  0  0  0  0  0  0  0  0  0  0
   20.0830   16.9510    7.5690 C   0  0  0  0  0  0  0  0  0  0  0  0
   21.0840   16.8310    8.5130 C   0  0  0  0  0  0  0  0  0  0  0  0
   22.0590   16.1160    7.8790 N   0  0  0  0  0  0  0  0  0  0  0  0
   23.4360   15.4710    8.5950 S   0  0  0  0  0  6  0  0  0  0  0  0
   23.5800   14.1430    8.0310 O   0  0  0  0  0  0  0  0  0  0  0  0
   24.4680   16.4820    8.4760 O   0  0  0  0  0  0  0  0  0  0  0  0
   22.9940   15.3190   10.3050 C   0  0  0  0  0  0  0  0  0  0  0  0
   21.7900   14.7130   10.6620 C   0  0  0  0  0  0  0  0  0  0  0  0
   21.4450   14.5890   12.0160 C   0  0  0  0  0  0  0  0  0  0  0  0
   22.3080   15.0950   13.0070 C   0  0  0  0  0  0  0  0  0  0  0  0
   23.5380   15.6830   12.6440 C   0  0  0  0  0  0  0  0  0  0  0  0
   24.5350   16.2380   13.6140 C   0  0  0  0  0  0  0  0  0  0  0  0
   25.1720   15.4810   14.3420 O   0  0  0  0  0  0  0  0  0  0  0  0
   24.7040   17.6000   13.6520 N   0  0  0  0  0  0  0  0  0  0  0  0
   25.7470   18.2320   14.4420 C   0  0  2  0  0  0  0  0  0  0  0  0
   25.5980   17.9340   15.9300 C   0  0  0  0  0  0  0  0  0  0  0  0
   26.7010   18.6400   16.7020 C   0  0  0  0  0  0  0  0  0  0  0  0
   26.7010   20.1240   16.4240 C   0  0  0  0  0  0  0  0  0  0  0  0
   27.0190   20.9540   17.2720 O   0  0  0  0  0  0  0  0  0  0  0  0
   26.3560   20.5120   15.1540 N   0  0  0  0  0  0  0  0  0  0  0  0
   25.6880   19.7490   14.2270 C   0  0  0  0  0  0  0  0  0  0  0  0
   25.1020   20.2760   13.2810 O   0  0  0  0  0  0  0  0  0  0  0  0
   23.8730   15.7880   11.2830 C   0  0  0  0  0  0  0  0  0  0  0  0
   21.9990   15.0040   14.3410 O   0  0  0  0  0  0  0  0  0  0  0  0
   20.6260   14.7490   14.6480 C   0  0  0  0  0  0  0  0  0  0  0  0
   20.0920   13.5770   13.8500 C   0  0  0  0  0  0  0  0  0  0  0  0
   20.1350   13.9400   12.3750 C   0  0  0  0  0  0  0  0  0  0  0  0
   21.6330   15.7890    6.6320 C   0  0  0  0  0  0  0  0  0  0  0  0
   20.4370   16.2910    6.4070 N   0  0  0  0  0  0  0  0  0  0  0  0
   18.9504   19.6134    8.5356 H   0  0  0  0  0  0  0  0  0  0  0  0
   19.8320   19.3891    6.9867 H   0  0  0  0  0  0  0  0  0  0  0  0
   18.0430   19.5504    6.9867 H   0  0  0  0  0  0  0  0  0  0  0  0
   18.3330   17.4204    8.6606 H   0  0  0  0  0  0  0  0  0  0  0  0
   18.1313   17.2870    6.8599 H   0  0  0  0  0  0  0  0  0  0  0  0
   21.0935   17.2222    9.5410 H   0  0  0  0  0  0  0  0  0  0  0  0
   21.1121   14.3330    9.8835 H   0  0  0  0  0  0  0  0  0  0  0  0
   24.0689   18.1949   13.1010 H   0  0  0  0  0  0  0  0  0  0  0  0
   26.7142   17.8254   14.1114 H   0  0  0  0  0  0  0  0  0  0  0  0
   24.6186   18.2928   16.2794 H   0  0  0  0  0  0  0  0  0  0  0  0
   25.6718   16.8490   16.0955 H   0  0  0  0  0  0  0  0  0  0  0  0
   26.5457   18.4770   17.7787 H   0  0  0  0  0  0  0  0  0  0  0  0
   27.6687   18.2265   16.3817 H   0  0  0  0  0  0  0  0  0  0  0  0
   26.6229   21.4650   14.8687 H   0  0  0  0  0  0  0  0  0  0  0  0
   24.8308   16.2411   10.9875 H   0  0  0  0  0  0  0  0  0  0  0  0
   20.5346   14.5235   15.7207 H   0  0  0  0  0  0  0  0  0  0  0  0
   20.0401   15.6426   14.3869 H   0  0  0  0  0  0  0  0  0  0  0  0
   20.7152   12.6891   14.0321 H   0  0  0  0  0  0  0  0  0  0  0  0
   19.0587   13.3532   14.1536 H   0  0  0  0  0  0  0  0  0  0  0  0
   20.0106   13.0258   11.7760 H   0  0  0  0  0  0  0  0  0  0  0  0
   19.3229   14.6518   12.1659 H   0  0  0  0  0  0  0  0  0  0  0  0
   22.2069   15.1887    5.9107 H   0  0  0  0  0  0  0  0  0  0  0  0
  1  2  1  0
  2  3  1  0
  3  4  2  0
  4  5  1  0
  5  6  1  0
  6  7  2  0
  6  8  2  0
  6  9  1  0
  9 10  2  0
 10 11  1  0
 11 12  2  0
 12 13  1  0
 13 14  1  0
 14 15  2  0
 14 16  1  0
 16 17  1  0
 17 18  1  0
 18 19  1  0
 19 20  1  0
 20 21  2  0
 20 22  1  0
 22 23  1  0
 23 24  2  0
 13 25  2  0
 12 26  1  0
 26 27  1  0
 27 28  1  0
 28 29  1  0
  5 30  1  0
 30 31  2  0
 31  3  1  0
 25  9  1  0
 29 11  1  0
 23 17  1  0
  1 32  1  0
  1 33  1  0
  1 34  1  0
  2 35  1  0
  2 36  1  0
  4 37  1  0
 10 38  1  0
 16 39  1  0
 17 40  1  6
 18 41  1  0
 18 42  1  0
 19 43  1  0
 19 44  1  0
 22 45  1  0
 25 46  1  0
 27 47  1  0
 27 48  1  0
 28 49  1  0
 28 50  1  0
 29 51  1  0
 29 52  1  0
 30 53  1  0
M  END
>  <meeko>  (312) 
{"is_sidechain": [true], "free_energy": -10.96, "intermolecular_energy": 0.0, "internal_energy": -10.96, "cluster_size": 20, "cluster_id": 1, "rank_in_cluster": 1}

>  <_RMSD_MCS_to_ref>  (312) 
0.510283145801318

$$$$
ligand
     RDKit          3D

 48 51  0  0  0  0  0  0  0  0999 V2000
   18.9090   19.1540    7.5370 C   0  0  0  0  0  0  0  0  0  0  0  0
   18.7730   17.6460    7.6780 C   0  0  0  0  0  0  0  0  0  0  0  0
   20.0380   16.9340    7.3490 C   0  0  0  0  0  0  0  0  0  0  0  0
   21.0580   16.5400    8.1930 C   0  0  0  0  0  0  0  0  0  0  0  0
   21.9710   15.9550    7.3640 N   0  0  0  0  0  0  0  0  0  0  0  0
   23.3370   15.1020    7.8280 S   0  0  0  0  0  6  0  0  0  0  0  0
   22.8820   13.7560    8.1190 O   0  0  0  0  0  0  0  0  0  0  0  0
   24.3680   15.3930    6.8540 O   0  0  0  0  0  0  0  0  0  0  0  0
   23.9110   15.7360    9.3360 C   0  0  0  0  0  0  0  0  0  0  0  0
   25.0650   16.4790    9.4230 C   0  0  0  0  0  0  0  0  0  0  0  0
   25.4280   16.9050   11.0230 S   0  0  0  0  0  0  0  0  0  0  0  0
   24.0100   16.1360   11.6560 C   0  0  0  0  0  0  0  0  0  0  0  0
   23.5750   16.0520   13.0060 C   0  0  0  0  0  0  0  0  0  0  0  0
   24.2860   16.6700   14.1550 C   0  0  0  0  0  0  0  0  0  0  0  0
   24.5930   15.9880   15.1260 O   0  0  0  0  0  0  0  0  0  0  0  0
   24.5180   18.0210   14.0990 N   0  0  0  0  0  0  0  0  0  0  0  0
   25.0770   18.7560   15.2240 C   0  0  1  0  0  0  0  0  0  0  0  0
   26.2300   18.0070   15.8840 C   0  0  0  0  0  0  0  0  0  0  0  0
   26.7880   18.8420   17.0270 C   0  0  0  0  0  0  0  0  0  0  0  0
   27.2040   20.2140   16.5510 C   0  0  0  0  0  0  0  0  0  0  0  0
   28.1620   20.8150   17.0290 O   0  0  0  0  0  0  0  0  0  0  0  0
   26.4360   20.7830   15.5670 N   0  0  0  0  0  0  0  0  0  0  0  0
   25.5870   20.1100   14.7220 C   0  0  0  0  0  0  0  0  0  0  0  0
   25.2600   20.5890   13.6360 O   0  0  0  0  0  0  0  0  0  0  0  0
   22.4100   15.3260   13.3000 C   0  0  0  0  0  0  0  0  0  0  0  0
   21.6690   14.7320   12.2950 C   0  0  0  0  0  0  0  0  0  0  0  0
   22.0870   14.8340   10.9690 C   0  0  0  0  0  0  0  0  0  0  0  0
   23.2770   15.5270   10.6160 C   0  0  0  0  0  0  0  0  0  0  0  0
   21.4930   15.9700    6.0930 C   0  0  0  0  0  0  0  0  0  0  0  0
   20.3200   16.5660    6.0490 N   0  0  0  0  0  0  0  0  0  0  0  0
   18.9504   19.6134    8.5356 H   0  0  0  0  0  0  0  0  0  0  0  0
   19.8320   19.3891    6.9867 H   0  0  0  0  0  0  0  0  0  0  0  0
   18.0430   19.5504    6.9867 H   0  0  0  0  0  0  0  0  0  0  0  0
   18.4939   17.4110    8.7157 H   0  0  0  0  0  0  0  0  0  0  0  0
   18.0018   17.3089    6.9697 H   0  0  0  0  0  0  0  0  0  0  0  0
   21.1203   16.6683    9.2837 H   0  0  0  0  0  0  0  0  0  0  0  0
   25.6800   16.7633    8.5564 H   0  0  0  0  0  0  0  0  0  0  0  0
   24.2895   18.5311   13.2338 H   0  0  0  0  0  0  0  0  0  0  0  0
   24.2838   18.8820   15.9756 H   0  0  0  0  0  0  0  0  0  0  0  0
   25.8664   17.0455   16.2756 H   0  0  0  0  0  0  0  0  0  0  0  0
   27.0216   17.8246   15.1423 H   0  0  0  0  0  0  0  0  0  0  0  0
   26.0152   18.9506   17.8022 H   0  0  0  0  0  0  0  0  0  0  0  0
   27.6743   18.3306   17.4307 H   0  0  0  0  0  0  0  0  0  0  0  0
   26.5016   21.8044   15.4515 H   0  0  0  0  0  0  0  0  0  0  0  0
   22.0818   15.2282   14.3453 H   0  0  0  0  0  0  0  0  0  0  0  0
   20.7504   14.1794   12.5416 H   0  0  0  0  0  0  0  0  0  0  0  0
   21.4821   14.3675   10.1776 H   0  0  0  0  0  0  0  0  0  0  0  0
   22.0130   15.5439    5.2223 H   0  0  0  0  0  0  0  0  0  0  0  0
  1  2  1  0
  2  3  1  0
  3  4  2  0
  4  5  1  0
  5  6  1  0
  6  7  2  0
  6  8  2  0
  6  9  1  0
  9 10  2  0
 10 11  1  0
 11 12  1  0
 12 13  2  0
 13 14  1  0
 14 15  2  0
 14 16  1  0
 16 17  1  0
 17 18  1  0
 18 19  1  0
 19 20  1  0
 20 21  2  0
 20 22  1  0
 22 23  1  0
 23 24  2  0
 13 25  1  0
 25 26  2  0
 26 27  1  0
 27 28  2  0
  5 29  1  0
 29 30  2  0
 30  3  1  0
 28  9  1  0
 28 12  1  0
 23 17  1  0
  1 31  1  0
  1 32  1  0
  1 33  1  0
  2 34  1  0
  2 35  1  0
  4 36  1  0
 10 37  1  0
 16 38  1  0
 17 39  1  1
 18 40  1  0
 18 41  1  0
 19 42  1  0
 19 43  1  0
 22 44  1  0
 25 45  1  0
 26 46  1  0
 27 47  1  0
 29 48  1  0
M  END
>  <meeko>  (313) 
{"is_sidechain": [true], "free_energy": -10.96, "intermolecular_energy": 0.0, "internal_energy": -10.96, "cluster_size": 8, "cluster_id": 1, "rank_in_cluster": 1}

>  <_RMSD_MCS_to_ref>  (313) 
0.683580036767215

$$$$
ligand
     RDKit          3D

 48 51  0  0  0  0  0  0  0  0999 V2000
   18.9090   19.1540    7.5370 C   0  0  0  0  0  0  0  0  0  0  0  0
   18.7730   17.6460    7.6780 C   0  0  0  0  0  0  0  0  0  0  0  0
   20.0460   16.9360    7.3770 C   0  0  0  0  0  0  0  0  0  0  0  0
   20.5890   15.8260    7.9920 C   0  0  0  0  0  0  0  0  0  0  0  0
   21.7440   15.5940    7.3050 N   0  0  0  0  0  0  0  0  0  0  0  0
   22.9450   14.4960    7.7120 S   0  0  0  0  0  6  0  0  0  0  0  0
   23.9190   14.5620    6.6420 O   0  0  0  0  0  0  0  0  0  0  0  0
   22.2800   13.2690    8.1010 O   0  0  0  0  0  0  0  0  0  0  0  0
   23.7700   15.0630    9.1280 C   0  0  0  0  0  0  0  0  0  0  0  0
   25.0130   15.6450    9.0640 C   0  0  0  0  0  0  0  0  0  0  0  0
   25.5500   16.1710   10.5830 S   0  0  0  0  0  0  0  0  0  0  0  0
   24.1340   15.5890   11.3960 C   0  0  0  0  0  0  0  0  0  0  0  0
   23.8140   15.6570   12.7780 C   0  0  0  0  0  0  0  0  0  0  0  0
   24.7040   16.2420   13.8160 C   0  0  0  0  0  0  0  0  0  0  0  0
   25.2070   15.5190   14.6700 O   0  0  0  0  0  0  0  0  0  0  0  0
   24.9760   17.5830   13.7290 N   0  0  0  0  0  0  0  0  0  0  0  0
   25.9420   18.2330   14.6000 C   0  0  2  0  0  0  0  0  0  0  0  0
   25.6900   17.9210   16.0720 C   0  0  0  0  0  0  0  0  0  0  0  0
   26.7120   18.6540   16.9280 C   0  0  0  0  0  0  0  0  0  0  0  0
   26.6910   20.1400   16.6550 C   0  0  0  0  0  0  0  0  0  0  0  0
   26.9080   20.9740   17.5280 O   0  0  0  0  0  0  0  0  0  0  0  0
   26.4430   20.5230   15.3610 N   0  0  0  0  0  0  0  0  0  0  0  0
   25.8530   19.7470   14.3930 C   0  0  0  0  0  0  0  0  0  0  0  0
   25.2990   20.2590   13.4190 O   0  0  0  0  0  0  0  0  0  0  0  0
   22.5750   15.1620   13.2140 C   0  0  0  0  0  0  0  0  0  0  0  0
   21.6870   14.5830   12.3260 C   0  0  0  0  0  0  0  0  0  0  0  0
   22.0130   14.4980   10.9740 C   0  0  0  0  0  0  0  0  0  0  0  0
   23.2390   15.0120   10.4700 C   0  0  0  0  0  0  0  0  0  0  0  0
   21.8970   16.5490    6.3520 C   0  0  0  0  0  0  0  0  0  0  0  0
   20.8750   17.3790    6.3640 N   0  0  0  0  0  0  0  0  0  0  0  0
   18.9504   19.6134    8.5356 H   0  0  0  0  0  0  0  0  0  0  0  0
   19.8320   19.3891    6.9867 H   0  0  0  0  0  0  0  0  0  0  0  0
   18.0430   19.5504    6.9867 H   0  0  0  0  0  0  0  0  0  0  0  0
   18.4726   17.4124    8.7101 H   0  0  0  0  0  0  0  0  0  0  0  0
   18.0175   17.3060    6.9544 H   0  0  0  0  0  0  0  0  0  0  0  0
   20.1829   15.2582    8.8421 H   0  0  0  0  0  0  0  0  0  0  0  0
   25.5920   15.7565    8.1354 H   0  0  0  0  0  0  0  0  0  0  0  0
   24.4804   18.1478   13.0245 H   0  0  0  0  0  0  0  0  0  0  0  0
   26.9411   17.8530   14.3405 H   0  0  0  0  0  0  0  0  0  0  0  0
   24.6772   18.2495   16.3483 H   0  0  0  0  0  0  0  0  0  0  0  0
   25.7822   16.8375   16.2381 H   0  0  0  0  0  0  0  0  0  0  0  0
   26.4805   18.4812   17.9894 H   0  0  0  0  0  0  0  0  0  0  0  0
   27.7124   18.2693   16.6806 H   0  0  0  0  0  0  0  0  0  0  0  0
   26.7240   21.4766   15.0916 H   0  0  0  0  0  0  0  0  0  0  0  0
   22.3063   15.2358   14.2781 H   0  0  0  0  0  0  0  0  0  0  0  0
   20.7248   14.1902   12.6864 H   0  0  0  0  0  0  0  0  0  0  0  0
   21.3048   14.0218   10.2800 H   0  0  0  0  0  0  0  0  0  0  0  0
   22.7543   16.6193    5.6663 H   0  0  0  0  0  0  0  0  0  0  0  0
  1  2  1  0
  2  3  1  0
  3  4  2  0
  4  5  1  0
  5  6  1  0
  6  7  2  0
  6  8  2  0
  6  9  1  0
  9 10  2  0
 10 11  1  0
 11 12  1  0
 12 13  2  0
 13 14  1  0
 14 15  2  0
 14 16  1  0
 16 17  1  0
 17 18  1  0
 18 19  1  0
 19 20  1  0
 20 21  2  0
 20 22  1  0
 22 23  1  0
 23 24  2  0
 13 25  1  0
 25 26  2  0
 26 27  1  0
 27 28  2  0
  5 29  1  0
 29 30  2  0
 30  3  1  0
 28  9  1  0
 28 12  1  0
 23 17  1  0
  1 31  1  0
  1 32  1  0
  1 33  1  0
  2 34  1  0
  2 35  1  0
  4 36  1  0
 10 37  1  0
 16 38  1  0
 17 39  1  6
 18 40  1  0
 18 41  1  0
 19 42  1  0
 19 43  1  0
 22 44  1  0
 25 45  1  0
 26 46  1  0
 27 47  1  0
 29 48  1  0
M  END
>  <meeko>  (314) 
{"is_sidechain": [true], "free_energy": -10.96, "intermolecular_energy": 0.0, "internal_energy": -10.96, "cluster_size": 15, "cluster_id": 1, "rank_in_cluster": 1}

>  <_RMSD_MCS_to_ref>  (314) 
0.6244592327232685

$$$$
ligand
     RDKit          3D

 47 50  0  0  0  0  0  0  0  0999 V2000
   18.9090   19.1540    7.5370 C   0  0  0  0  0  0  0  0  0  0  0  0
   18.7730   17.6460    7.6780 C   0  0  0  0  0  0  0  0  0  0  0  0
   20.0380   16.9340    7.3480 C   0  0  0  0  0  0  0  0  0  0  0  0
   20.8090   16.1140    8.1480 C   0  0  0  0  0  0  0  0  0  0  0  0
   21.8290   15.7120    7.3340 N   0  0  0  0  0  0  0  0  0  0  0  0
   23.2130   14.9080    7.8260 S   0  0  0  0  0  6  0  0  0  0  0  0
   22.7990   13.5740    8.2070 O   0  0  0  0  0  0  0  0  0  0  0  0
   24.2230   15.1730    6.8230 O   0  0  0  0  0  0  0  0  0  0  0  0
   23.8540   15.5950    9.2780 C   0  0  0  0  0  0  0  0  0  0  0  0
   25.0190   16.3180    9.3420 C   0  0  0  0  0  0  0  0  0  0  0  0
   25.3500   16.8310   10.9270 S   0  0  0  0  0  0  0  0  0  0  0  0
   23.9150   16.1080   11.5760 C   0  0  0  0  0  0  0  0  0  0  0  0
   23.4440   16.0980   12.9060 C   0  0  0  0  0  0  0  0  0  0  0  0
   24.0790   16.7500   14.0730 C   0  0  0  0  0  0  0  0  0  0  0  0
   24.2310   16.1230   15.1160 O   0  0  0  0  0  0  0  0  0  0  0  0
   24.4440   18.0690   13.9590 N   0  0  0  0  0  0  0  0  0  0  0  0
   24.9420   18.8340   15.0940 C   0  0  1  0  0  0  0  0  0  0  0  0
   26.0110   18.0780   15.8740 C   0  0  0  0  0  0  0  0  0  0  0  0
   26.5120   18.9460   17.0180 C   0  0  0  0  0  0  0  0  0  0  0  0
   27.0170   20.2780   16.5140 C   0  0  0  0  0  0  0  0  0  0  0  0
   27.9630   20.8630   17.0330 O   0  0  0  0  0  0  0  0  0  0  0  0
   26.3450   20.8280   15.4520 N   0  0  0  0  0  0  0  0  0  0  0  0
   25.5420   20.1440   14.5730 C   0  0  0  0  0  0  0  0  0  0  0  0
   25.3230   20.5770   13.4420 O   0  0  0  0  0  0  0  0  0  0  0  0
   22.2700   15.3890   13.1270 C   0  0  0  0  0  0  0  0  0  0  0  0
   21.5640   14.7520   12.1720 N   0  0  0  0  0  0  0  0  0  0  0  0
   22.0110   14.7800   10.9000 C   0  0  0  0  0  0  0  0  0  0  0  0
   23.2010   15.4510   10.5550 C   0  0  0  0  0  0  0  0  0  0  0  0
   21.6940   16.3120    6.1230 C   0  0  0  0  0  0  0  0  0  0  0  0
   20.6110   17.0600    6.0970 N   0  0  0  0  0  0  0  0  0  0  0  0
   18.9504   19.6134    8.5356 H   0  0  0  0  0  0  0  0  0  0  0  0
   19.8320   19.3891    6.9867 H   0  0  0  0  0  0  0  0  0  0  0  0
   18.0430   19.5504    6.9867 H   0  0  0  0  0  0  0  0  0  0  0  0
   18.4946   17.4109    8.7159 H   0  0  0  0  0  0  0  0  0  0  0  0
   18.0013   17.3089    6.9703 H   0  0  0  0  0  0  0  0  0  0  0  0
   20.6400   15.8457    9.2013 H   0  0  0  0  0  0  0  0  0  0  0  0
   25.6588   16.5379    8.4746 H   0  0  0  0  0  0  0  0  0  0  0  0
   24.3631   18.5317   13.0423 H   0  0  0  0  0  0  0  0  0  0  0  0
   24.0991   19.0206   15.7757 H   0  0  0  0  0  0  0  0  0  0  0  0
   25.5819   17.1495   16.2788 H   0  0  0  0  0  0  0  0  0  0  0  0
   26.8491   17.8331   15.2050 H   0  0  0  0  0  0  0  0  0  0  0  0
   25.6869   19.1193   17.7246 H   0  0  0  0  0  0  0  0  0  0  0  0
   27.3438   18.4233   17.5129 H   0  0  0  0  0  0  0  0  0  0  0  0
   26.4520   21.8412   15.3010 H   0  0  0  0  0  0  0  0  0  0  0  0
   21.8884   15.3442   14.1577 H   0  0  0  0  0  0  0  0  0  0  0  0
   21.4345   14.2683   10.1153 H   0  0  0  0  0  0  0  0  0  0  0  0
   22.3920   16.1900    5.2816 H   0  0  0  0  0  0  0  0  0  0  0  0
  1  2  1  0
  2  3  1  0
  3  4  2  0
  4  5  1  0
  5  6  1  0
  6  7  2  0
  6  8  2  0
  6  9  1  0
  9 10  2  0
 10 11  1  0
 11 12  1  0
 12 13  2  0
 13 14  1  0
 14 15  2  0
 14 16  1  0
 16 17  1  0
 17 18  1  0
 18 19  1  0
 19 20  1  0
 20 21  2  0
 20 22  1  0
 22 23  1  0
 23 24  2  0
 13 25  1  0
 25 26  2  0
 26 27  1  0
 27 28  2  0
  5 29  1  0
 29 30  2  0
 30  3  1  0
 28  9  1  0
 28 12  1  0
 23 17  1  0
  1 31  1  0
  1 32  1  0
  1 33  1  0
  2 34  1  0
  2 35  1  0
  4 36  1  0
 10 37  1  0
 16 38  1  0
 17 39  1  1
 18 40  1  0
 18 41  1  0
 19 42  1  0
 19 43  1  0
 22 44  1  0
 25 45  1  0
 27 46  1  0
 29 47  1  0
M  END
>  <meeko>  (315) 
{"is_sidechain": [true], "free_energy": -10.96, "intermolecular_energy": 0.0, "internal_energy": -10.96, "cluster_size": 7, "cluster_id": 1, "rank_in_cluster": 1}

>  <_RMSD_MCS_to_ref>  (315) 
0.6044380310117271

$$$$
ligand
     RDKit          3D

 51 54  0  0  0  0  0  0  0  0999 V2000
   18.9090   19.1540    7.5370 C   0  0  0  0  0  0  0  0  0  0  0  0
   18.7730   17.6460    7.6780 C   0  0  0  0  0  0  0  0  0  0  0  0
   20.0170   16.9300    7.2850 C   0  0  0  0  0  0  0  0  0  0  0  0
   20.6030   15.8230    7.8670 C   0  0  0  0  0  0  0  0  0  0  0  0
   21.7010   15.5800    7.0940 N   0  0  0  0  0  0  0  0  0  0  0  0
   22.9260   14.4830    7.4460 S   0  0  0  0  0  6  0  0  0  0  0  0
   22.6940   13.3520    6.5660 O   0  0  0  0  0  0  0  0  0  0  0  0
   24.1620   15.2390    7.4230 O   0  0  0  0  0  0  0  0  0  0  0  0
   22.5800   14.0040    9.1140 C   0  0  0  0  0  0  0  0  0  0  0  0
   21.6850   12.9420    9.3160 C   0  0  0  0  0  0  0  0  0  0  0  0
   21.4130   12.4950   10.6070 C   0  0  0  0  0  0  0  0  0  0  0  0
   22.0290   13.1060   11.6990 C   0  0  0  0  0  0  0  0  0  0  0  0
   22.9110   14.1750   11.5050 C   0  0  0  0  0  0  0  0  0  0  0  0
   23.5570   14.8160   12.6520 C   0  0  0  0  0  0  0  0  0  0  0  0
   24.3930   15.8600   12.4950 C   0  0  0  0  0  0  0  0  0  0  0  0
   25.0100   16.4380   13.7290 C   0  0  0  0  0  0  0  0  0  0  0  0
   25.2030   15.7600   14.7350 O   0  0  0  0  0  0  0  0  0  0  0  0
   25.3490   17.7680   13.6610 N   0  0  0  0  0  0  0  0  0  0  0  0
   26.2440   18.3610   14.6400 C   0  0  2  0  0  0  0  0  0  0  0  0
   25.7590   18.0790   16.0560 C   0  0  0  0  0  0  0  0  0  0  0  0
   26.7130   18.7140   17.0560 C   0  0  0  0  0  0  0  0  0  0  0  0
   26.8700   20.1950   16.7980 C   0  0  0  0  0  0  0  0  0  0  0  0
   27.0410   21.0050   17.7040 O   0  0  0  0  0  0  0  0  0  0  0  0
   26.8400   20.5970   15.4870 N   0  0  0  0  0  0  0  0  0  0  0  0
   26.3190   19.8830   14.4330 C   0  0  0  0  0  0  0  0  0  0  0  0
   25.9560   20.4590   13.4090 O   0  0  0  0  0  0  0  0  0  0  0  0
   24.6610   16.3750   11.1220 C   0  0  0  0  0  0  0  0  0  0  0  0
   25.4040   17.3350   10.9250 O   0  0  0  0  0  0  0  0  0  0  0  0
   24.0500   15.7350   10.0740 N   0  0  0  0  0  0  0  0  0  0  0  0
   23.1800   14.6400   10.2080 C   0  0  0  0  0  0  0  0  0  0  0  0
   21.7840   16.5290    6.1270 C   0  0  0  0  0  0  0  0  0  0  0  0
   20.7680   17.3630    6.2100 N   0  0  0  0  0  0  0  0  0  0  0  0
   18.9504   19.6134    8.5356 H   0  0  0  0  0  0  0  0  0  0  0  0
   19.8320   19.3891    6.9867 H   0  0  0  0  0  0  0  0  0  0  0  0
   18.0430   19.5504    6.9867 H   0  0  0  0  0  0  0  0  0  0  0  0
   18.5435   17.4076    8.7270 H   0  0  0  0  0  0  0  0  0  0  0  0
   17.9668   17.3155    7.0066 H   0  0  0  0  0  0  0  0  0  0  0  0
   20.2624   15.2648    8.7515 H   0  0  0  0  0  0  0  0  0  0  0  0
   21.1979   12.4622    8.4542 H   0  0  0  0  0  0  0  0  0  0  0  0
   20.7132   11.6611   10.7650 H   0  0  0  0  0  0  0  0  0  0  0  0
   21.8206   12.7460   12.7173 H   0  0  0  0  0  0  0  0  0  0  0  0
   23.3550   14.4364   13.6644 H   0  0  0  0  0  0  0  0  0  0  0  0
   24.9633   18.3525   12.9057 H   0  0  0  0  0  0  0  0  0  0  0  0
   27.2403   17.9151   14.5036 H   0  0  0  0  0  0  0  0  0  0  0  0
   24.7527   18.5025   16.1898 H   0  0  0  0  0  0  0  0  0  0  0  0
   25.7251   16.9921   16.2217 H   0  0  0  0  0  0  0  0  0  0  0  0
   26.3179   18.5668   18.0720 H   0  0  0  0  0  0  0  0  0  0  0  0
   27.6979   18.2358   16.9495 H   0  0  0  0  0  0  0  0  0  0  0  0
   27.2452   21.5191   15.2717 H   0  0  0  0  0  0  0  0  0  0  0  0
   24.2423   16.0810    9.1231 H   0  0  0  0  0  0  0  0  0  0  0  0
   22.5876   16.5926    5.3786 H   0  0  0  0  0  0  0  0  0  0  0  0
  1  2  1  0
  2  3  1  0
  3  4  2  0
  4  5  1  0
  5  6  1  0
  6  7  2  0
  6  8  2  0
  6  9  1  0
  9 10  2  0
 10 11  1  0
 11 12  2  0
 12 13  1  0
 13 14  1  0
 14 15  2  0
 15 16  1  0
 16 17  2  0
 16 18  1  0
 18 19  1  0
 19 20  1  0
 20 21  1  0
 21 22  1  0
 22 23  2  0
 22 24  1  0
 24 25  1  0
 25 26  2  0
 15 27  1  0
 27 28  2  0
 27 29  1  0
 29 30  1  0
  5 31  1  0
 31 32  2  0
 32  3  1  0
 30  9  1  0
 30 13  2  0
 25 19  1  0
  1 33  1  0
  1 34  1  0
  1 35  1  0
  2 36  1  0
  2 37  1  0
  4 38  1  0
 10 39  1  0
 11 40  1  0
 12 41  1  0
 14 42  1  0
 18 43  1  0
 19 44  1  1
 20 45  1  0
 20 46  1  0
 21 47  1  0
 21 48  1  0
 24 49  1  0
 29 50  1  0
 31 51  1  0
M  END
>  <meeko>  (316) 
{"is_sidechain": [true], "free_energy": -10.96, "intermolecular_energy": 0.0, "internal_energy": -10.96, "cluster_size": 12, "cluster_id": 1, "rank_in_cluster": 1}

>  <_RMSD_MCS_to_ref>  (316) 
0.9301185706970672

$$$$
ligand
     RDKit          3D

 58 62  0  0  0  0  0  0  0  0999 V2000
   18.8250   19.0180    7.5350 C   0  0  0  0  0  0  0  0  0  0  0  0
   18.5200   17.5410    7.7330 C   0  0  0  0  0  0  0  0  0  0  0  0
   19.7550   16.7120    7.7430 C   0  0  0  0  0  0  0  0  0  0  0  0
   20.2930   15.9650    8.7730 C   0  0  0  0  0  0  0  0  0  0  0  0
   21.4160   15.4100    8.2300 N   0  0  0  0  0  0  0  0  0  0  0  0
   22.4280   14.3080    8.9890 S   0  0  0  0  0  6  0  0  0  0  0  0
   23.6120   14.2850    8.1480 O   0  0  0  0  0  0  0  0  0  0  0  0
   21.6430   13.1170    9.2410 O   0  0  0  0  0  0  0  0  0  0  0  0
   22.8700   15.0430   10.5510 C   0  0  0  0  0  0  0  0  0  0  0  0
   21.8190   15.2260   11.4850 C   0  0  0  0  0  0  0  0  0  0  0  0
   22.0630   15.7970   12.7340 C   0  0  0  0  0  0  0  0  0  0  0  0
   23.3610   16.1740   13.0120 C   0  0  0  0  0  0  0  0  0  0  0  0
   24.4080   16.0120   12.1060 C   0  0  0  0  0  0  0  0  0  0  0  0
   24.1900   15.4400   10.8530 C   0  0  0  0  0  0  0  0  0  0  0  0
   25.3270   15.3350    9.9390 C   0  0  0  0  0  0  0  0  0  0  0  0
   25.9680   14.1820    9.6920 C   0  0  0  0  0  0  0  0  0  0  0  0
   25.7110   12.8370   10.2950 C   0  0  0  0  0  0  0  0  0  0  0  0
   27.0720   12.1940   10.1370 C   0  0  0  0  0  0  0  0  0  0  0  0
   27.5700   12.6800    8.8830 O   0  0  0  0  0  0  0  0  0  0  0  0
   27.1460   14.0480    8.7730 C   0  0  0  0  0  0  0  0  0  0  0  0
   25.6650   16.5720   12.6970 C   0  0  0  0  0  0  0  0  0  0  0  0
   25.2560   16.9380   14.0460 N   0  0  0  0  0  0  0  0  0  0  0  0
   26.1190   17.7490   14.9000 C   0  0  2  0  0  0  0  0  0  0  0  0
   25.7000   17.7580   16.3690 C   0  0  0  0  0  0  0  0  0  0  0  0
   26.6990   18.5770   17.1720 C   0  0  0  0  0  0  0  0  0  0  0  0
   26.8200   19.9820   16.6280 C   0  0  0  0  0  0  0  0  0  0  0  0
   27.2020   20.9200   17.3200 O   0  0  0  0  0  0  0  0  0  0  0  0
   26.5590   20.1500   15.2920 N   0  0  0  0  0  0  0  0  0  0  0  0
   26.2340   19.1850   14.3640 C   0  0  0  0  0  0  0  0  0  0  0  0
   26.1490   19.4730   13.1710 O   0  0  0  0  0  0  0  0  0  0  0  0
   23.8890   16.8090   14.2240 C   0  0  0  0  0  0  0  0  0  0  0  0
   23.2090   17.1550   15.1690 O   0  0  0  0  0  0  0  0  0  0  0  0
   21.5560   15.8380    6.9500 C   0  0  0  0  0  0  0  0  0  0  0  0
   20.5420   16.6090    6.6110 N   0  0  0  0  0  0  0  0  0  0  0  0
   18.9258   19.5062    8.5155 H   0  0  0  0  0  0  0  0  0  0  0  0
   19.7645   19.1263    6.9731 H   0  0  0  0  0  0  0  0  0  0  0  0
   18.0053   19.4896    6.9731 H   0  0  0  0  0  0  0  0  0  0  0  0
   17.9982   17.4119    8.6927 H   0  0  0  0  0  0  0  0  0  0  0  0
   17.8948   17.2080    6.8914 H   0  0  0  0  0  0  0  0  0  0  0  0
   19.9057   15.8449    9.7955 H   0  0  0  0  0  0  0  0  0  0  0  0
   20.7978   14.9136   11.2211 H   0  0  0  0  0  0  0  0  0  0  0  0
   21.2549   15.9407   13.4664 H   0  0  0  0  0  0  0  0  0  0  0  0
   25.6738   16.2458    9.4290 H   0  0  0  0  0  0  0  0  0  0  0  0
   25.4204   12.9160   11.3530 H   0  0  0  0  0  0  0  0  0  0  0  0
   24.8853   12.2784    9.8300 H   0  0  0  0  0  0  0  0  0  0  0  0
   27.7385   12.4930   10.9595 H   0  0  0  0  0  0  0  0  0  0  0  0
   27.0148   11.0957   10.1607 H   0  0  0  0  0  0  0  0  0  0  0  0
   27.9542   14.7264    9.0838 H   0  0  0  0  0  0  0  0  0  0  0  0
   26.8852   14.3106    7.7371 H   0  0  0  0  0  0  0  0  0  0  0  0
   26.4637   15.8160   12.7172 H   0  0  0  0  0  0  0  0  0  0  0  0
   26.0757   17.4162   12.1237 H   0  0  0  0  0  0  0  0  0  0  0  0
   27.1076   17.2679   14.8650 H   0  0  0  0  0  0  0  0  0  0  0  0
   24.6991   18.2046   16.4628 H   0  0  0  0  0  0  0  0  0  0  0  0
   25.6767   16.7270   16.7517 H   0  0  0  0  0  0  0  0  0  0  0  0
   26.3637   18.6255   18.2185 H   0  0  0  0  0  0  0  0  0  0  0  0
   27.6833   18.0911   17.1010 H   0  0  0  0  0  0  0  0  0  0  0  0
   26.6126   21.1162   14.9392 H   0  0  0  0  0  0  0  0  0  0  0  0
   22.3962   15.5785    6.2892 H   0  0  0  0  0  0  0  0  0  0  0  0
  1  2  1  0
  2  3  1  0
  3  4  2  0
  4  5  1  0
  5  6  1  0
  6  7  2  0
  6  8  2  0
  6  9  1  0
  9 10  2  0
 10 11  1  0
 11 12  2  0
 12 13  1  0
 13 14  2  0
 14 15  1  0
 15 16  2  0
 16 17  1  0
 17 18  1  0
 18 19  1  0
 19 20  1  0
 13 21  1  0
 21 22  1  0
 22 23  1  0
 23 24  1  0
 24 25  1  0
 25 26  1  0
 26 27  2  0
 26 28  1  0
 28 29  1  0
 29 30  2  0
 22 31  1  0
 31 32  2  0
  5 33  1  0
 33 34  2  0
 34  3  1  0
 14  9  1  0
 20 16  1  0
 29 23  1  0
 31 12  1  0
  1 35  1  0
  1 36  1  0
  1 37  1  0
  2 38  1  0
  2 39  1  0
  4 40  1  0
 10 41  1  0
 11 42  1  0
 15 43  1  0
 17 44  1  0
 17 45  1  0
 18 46  1  0
 18 47  1  0
 20 48  1  0
 20 49  1  0
 21 50  1  0
 21 51  1  0
 23 52  1  1
 24 53  1  0
 24 54  1  0
 25 55  1  0
 25 56  1  0
 28 57  1  0
 33 58  1  0
M  END
>  <meeko>  (317) 
{"is_sidechain": [true], "free_energy": -10.95, "intermolecular_energy": 0.0, "internal_energy": -10.95, "cluster_size": 17, "cluster_id": 1, "rank_in_cluster": 1}

>  <_RMSD_MCS_to_ref>  (317) 
0.9115988701177735

$$$$
ligand
     RDKit          3D

 49 52  0  0  0  0  0  0  0  0999 V2000
   18.9090   19.1540    7.5370 C   0  0  0  0  0  0  0  0  0  0  0  0
   18.7730   17.6460    7.6780 C   0  0  0  0  0  0  0  0  0  0  0  0
   20.0550   16.9390    7.4100 C   0  0  0  0  0  0  0  0  0  0  0  0
   20.5610   15.8010    8.0060 C   0  0  0  0  0  0  0  0  0  0  0  0
   21.7510   15.5910    7.3690 N   0  0  0  0  0  0  0  0  0  0  0  0
   22.9130   14.4520    7.7870 S   0  0  0  0  0  6  0  0  0  0  0  0
   22.2370   13.4580    8.5980 O   0  0  0  0  0  0  0  0  0  0  0  0
   23.5900   14.1190    6.5460 O   0  0  0  0  0  0  0  0  0  0  0  0
   24.0470   15.3490    8.8120 C   0  0  0  0  0  0  0  0  0  0  0  0
   25.0420   16.1280    8.2030 C   0  0  0  0  0  0  0  0  0  0  0  0
   25.9630   16.8290    8.9750 C   0  0  0  0  0  0  0  0  0  0  0  0
   25.9080   16.7780   10.3720 C   0  0  0  0  0  0  0  0  0  0  0  0
   24.9040   16.0200   11.0150 C   0  0  0  0  0  0  0  0  0  0  0  0
   24.5640   15.7710   12.3910 C   0  0  0  0  0  0  0  0  0  0  0  0
   25.2600   16.2910   13.5700 C   0  0  0  0  0  0  0  0  0  0  0  0
   25.6220   15.5730   14.4980 O   0  0  0  0  0  0  0  0  0  0  0  0
   25.4990   17.6460   13.5670 N   0  0  0  0  0  0  0  0  0  0  0  0
   26.3190   18.2750   14.5900 C   0  0  2  0  0  0  0  0  0  0  0  0
   25.8360   17.9500   15.9990 C   0  0  0  0  0  0  0  0  0  0  0  0
   26.7110   18.6700   17.0140 C   0  0  0  0  0  0  0  0  0  0  0  0
   26.7390   20.1580   16.7580 C   0  0  0  0  0  0  0  0  0  0  0  0
   26.8230   20.9810   17.6630 O   0  0  0  0  0  0  0  0  0  0  0  0
   26.6950   20.5550   15.4450 N   0  0  0  0  0  0  0  0  0  0  0  0
   26.2700   19.7920   14.3860 C   0  0  0  0  0  0  0  0  0  0  0  0
   25.8900   20.3110   13.3380 O   0  0  0  0  0  0  0  0  0  0  0  0
   23.4570   14.9370   12.3700 C   0  0  0  0  0  0  0  0  0  0  0  0
   23.1180   14.6900   11.0670 N   0  0  0  0  0  0  0  0  0  0  0  0
   23.9930   15.3270   10.2170 C   0  0  0  0  0  0  0  0  0  0  0  0
   21.9570   16.5870    6.4690 C   0  0  0  0  0  0  0  0  0  0  0  0
   20.9370   17.4180    6.4590 N   0  0  0  0  0  0  0  0  0  0  0  0
   18.9504   19.6134    8.5356 H   0  0  0  0  0  0  0  0  0  0  0  0
   19.8320   19.3891    6.9867 H   0  0  0  0  0  0  0  0  0  0  0  0
   18.0430   19.5504    6.9867 H   0  0  0  0  0  0  0  0  0  0  0  0
   18.4478   17.4138    8.7029 H   0  0  0  0  0  0  0  0  0  0  0  0
   18.0362   17.3024    6.9370 H   0  0  0  0  0  0  0  0  0  0  0  0
   20.1093   15.2009    8.8097 H   0  0  0  0  0  0  0  0  0  0  0  0
   25.0945   16.1851    7.1057 H   0  0  0  0  0  0  0  0  0  0  0  0
   26.7420   17.4292    8.4822 H   0  0  0  0  0  0  0  0  0  0  0  0
   26.6479   17.3292   10.9710 H   0  0  0  0  0  0  0  0  0  0  0  0
   25.0878   18.2280   12.8233 H   0  0  0  0  0  0  0  0  0  0  0  0
   27.3439   17.8878   14.4917 H   0  0  0  0  0  0  0  0  0  0  0  0
   24.7931   18.2802   16.1143 H   0  0  0  0  0  0  0  0  0  0  0  0
   25.8977   16.8646   16.1664 H   0  0  0  0  0  0  0  0  0  0  0  0
   26.3131   18.4876   18.0232 H   0  0  0  0  0  0  0  0  0  0  0  0
   27.7368   18.2832   16.9239 H   0  0  0  0  0  0  0  0  0  0  0  0
   27.0096   21.5130   15.2350 H   0  0  0  0  0  0  0  0  0  0  0  0
   22.9370   14.5395   13.2541 H   0  0  0  0  0  0  0  0  0  0  0  0
   22.3218   14.1102   10.7658 H   0  0  0  0  0  0  0  0  0  0  0  0
   22.8517   16.6852    5.8367 H   0  0  0  0  0  0  0  0  0  0  0  0
  1  2  1  0
  2  3  1  0
  3  4  2  0
  4  5  1  0
  5  6  1  0
  6  7  2  0
  6  8  2  0
  6  9  1  0
  9 10  2  0
 10 11  1  0
 11 12  2  0
 12 13  1  0
 13 14  1  0
 14 15  1  0
 15 16  2  0
 15 17  1  0
 17 18  1  0
 18 19  1  0
 19 20  1  0
 20 21  1  0
 21 22  2  0
 21 23  1  0
 23 24  1  0
 24 25  2  0
 14 26  2  0
 26 27  1  0
 27 28  1  0
  5 29  1  0
 29 30  2  0
 30  3  1  0
 28  9  1  0
 28 13  2  0
 24 18  1  0
  1 31  1  0
  1 32  1  0
  1 33  1  0
  2 34  1  0
  2 35  1  0
  4 36  1  0
 10 37  1  0
 11 38  1  0
 12 39  1  0
 17 40  1  0
 18 41  1  1
 19 42  1  0
 19 43  1  0
 20 44  1  0
 20 45  1  0
 23 46  1  0
 26 47  1  0
 27 48  1  0
 29 49  1  0
M  END
>  <meeko>  (318) 
{"is_sidechain": [true], "free_energy": -10.95, "intermolecular_energy": 0.0, "internal_energy": -10.95, "cluster_size": 17, "cluster_id": 1, "rank_in_cluster": 1}

>  <_RMSD_MCS_to_ref>  (318) 
0.9226044656297733

$$$$
ligand
     RDKit          3D

 47 50  0  0  0  0  0  0  0  0999 V2000
   18.9090   19.1540    7.5370 C   0  0  0  0  0  0  0  0  0  0  0  0
   18.7730   17.6460    7.6780 C   0  0  0  0  0  0  0  0  0  0  0  0
   20.0930   16.9600    7.6680 C   0  0  0  0  0  0  0  0  0  0  0  0
   20.8110   16.4420    8.7280 C   0  0  0  0  0  0  0  0  0  0  0  0
   21.9300   15.9180    8.1500 N   0  0  0  0  0  0  0  0  0  0  0  0
   23.2620   15.3050    8.9600 S   0  0  0  0  0  6  0  0  0  0  0  0
   24.3600   16.2110    8.6760 O   0  0  0  0  0  0  0  0  0  0  0  0
   23.3200   13.8910    8.6310 O   0  0  0  0  0  0  0  0  0  0  0  0
   22.9720   15.4010   10.7140 C   0  0  0  0  0  0  0  0  0  0  0  0
   23.8400   16.3340   11.4930 C   0  0  0  0  0  0  0  0  0  0  0  0
   23.6080   16.4010   12.8180 C   0  0  0  0  0  0  0  0  0  0  0  0
   24.4740   17.3310   13.5980 C   0  0  0  0  0  0  0  0  0  0  0  0
   25.6060   17.6180   13.2190 O   0  0  0  0  0  0  0  0  0  0  0  0
   23.9400   17.8350   14.7510 N   0  0  0  0  0  0  0  0  0  0  0  0
   24.6900   18.7050   15.6430 C   0  0  1  0  0  0  0  0  0  0  0  0
   25.8100   17.9500   16.3520 C   0  0  0  0  0  0  0  0  0  0  0  0
   26.5680   18.9010   17.2650 C   0  0  0  0  0  0  0  0  0  0  0  0
   27.0930   20.0920   16.5000 C   0  0  0  0  0  0  0  0  0  0  0  0
   28.1470   20.6490   16.7930 O   0  0  0  0  0  0  0  0  0  0  0  0
   26.3150   20.5510   15.4680 N   0  0  0  0  0  0  0  0  0  0  0  0
   25.2930   19.8710   14.8500 C   0  0  0  0  0  0  0  0  0  0  0  0
   24.8920   20.2140   13.7400 O   0  0  0  0  0  0  0  0  0  0  0  0
   22.5960   15.6170   13.3780 N   0  0  0  0  0  0  0  0  0  0  0  0
   22.1990   15.5400   14.6790 N   0  0  0  0  0  0  0  0  0  0  0  0
   21.2100   14.6450   14.6810 C   0  0  0  0  0  0  0  0  0  0  0  0
   20.9370   14.1360   13.4060 C   0  0  0  0  0  0  0  0  0  0  0  0
   21.8300   14.7640   12.5690 C   0  0  0  0  0  0  0  0  0  0  0  0
   22.0250   14.6610   11.2210 N   0  0  0  0  0  0  0  0  0  0  0  0
   21.9010   16.1660    6.8160 C   0  0  0  0  0  0  0  0  0  0  0  0
   20.7840   16.7810    6.4860 N   0  0  0  0  0  0  0  0  0  0  0  0
   18.9504   19.6134    8.5356 H   0  0  0  0  0  0  0  0  0  0  0  0
   19.8320   19.3891    6.9867 H   0  0  0  0  0  0  0  0  0  0  0  0
   18.0430   19.5504    6.9867 H   0  0  0  0  0  0  0  0  0  0  0  0
   18.2651   17.4233    8.6280 H   0  0  0  0  0  0  0  0  0  0  0  0
   18.1939   17.2771    6.8187 H   0  0  0  0  0  0  0  0  0  0  0  0
   20.5420   16.4501    9.7946 H   0  0  0  0  0  0  0  0  0  0  0  0
   24.6260   16.9338   11.0108 H   0  0  0  0  0  0  0  0  0  0  0  0
   22.9705   17.5895   14.9972 H   0  0  0  0  0  0  0  0  0  0  0  0
   23.9916   19.0851   16.4031 H   0  0  0  0  0  0  0  0  0  0  0  0
   25.3795   17.1335   16.9502 H   0  0  0  0  0  0  0  0  0  0  0  0
   26.5006   17.5338   15.6038 H   0  0  0  0  0  0  0  0  0  0  0  0
   25.8910   19.2536   18.0570 H   0  0  0  0  0  0  0  0  0  0  0  0
   27.4232   18.3607   17.6970 H   0  0  0  0  0  0  0  0  0  0  0  0
   26.5167   21.4998   15.1216 H   0  0  0  0  0  0  0  0  0  0  0  0
   20.6670   14.3396   15.5876 H   0  0  0  0  0  0  0  0  0  0  0  0
   20.1729   13.3936   13.1322 H   0  0  0  0  0  0  0  0  0  0  0  0
   22.6984   15.8919    6.1096 H   0  0  0  0  0  0  0  0  0  0  0  0
  1  2  1  0
  2  3  1  0
  3  4  2  0
  4  5  1  0
  5  6  1  0
  6  7  2  0
  6  8  2  0
  6  9  1  0
  9 10  1  0
 10 11  2  0
 11 12  1  0
 12 13  2  0
 12 14  1  0
 14 15  1  0
 15 16  1  0
 16 17  1  0
 17 18  1  0
 18 19  2  0
 18 20  1  0
 20 21  1  0
 21 22  2  0
 11 23  1  0
 23 24  1  0
 24 25  2  0
 25 26  1  0
 26 27  2  0
 27 28  1  0
  5 29  1  0
 29 30  2  0
 30  3  1  0
 28  9  2  0
 21 15  1  0
 27 23  1  0
  1 31  1  0
  1 32  1  0
  1 33  1  0
  2 34  1  0
  2 35  1  0
  4 36  1  0
 10 37  1  0
 14 38  1  0
 15 39  1  1
 16 40  1  0
 16 41  1  0
 17 42  1  0
 17 43  1  0
 20 44  1  0
 25 45  1  0
 26 46  1  0
 29 47  1  0
M  END
>  <meeko>  (319) 
{"is_sidechain": [true], "free_energy": -10.95, "intermolecular_energy": 0.0, "internal_energy": -10.95, "cluster_size": 20, "cluster_id": 1, "rank_in_cluster": 1}

>  <_RMSD_MCS_to_ref>  (319) 
0.7849838639530536

$$$$
ligand
     RDKit          3D

 46 49  0  0  0  0  0  0  0  0999 V2000
   18.9090   19.1540    7.5370 C   0  0  0  0  0  0  0  0  0  0  0  0
   18.7730   17.6460    7.6780 C   0  0  0  0  0  0  0  0  0  0  0  0
   20.0890   16.9540    7.5940 C   0  0  0  0  0  0  0  0  0  0  0  0
   20.8890   16.4840    8.6150 C   0  0  0  0  0  0  0  0  0  0  0  0
   21.9600   15.9320    7.9750 N   0  0  0  0  0  0  0  0  0  0  0  0
   23.3890   15.4250    8.6990 S   0  0  0  0  0  6  0  0  0  0  0  0
   24.3660   16.4520    8.3950 O   0  0  0  0  0  0  0  0  0  0  0  0
   23.5680   14.0370    8.3270 O   0  0  0  0  0  0  0  0  0  0  0  0
   23.0300   15.4830   10.4450 C   0  0  0  0  0  0  0  0  0  0  0  0
   23.7880   16.3710   11.2580 C   0  0  0  0  0  0  0  0  0  0  0  0
   23.5820   16.5000   12.6520 C   0  0  0  0  0  0  0  0  0  0  0  0
   24.4100   17.4260   13.4480 C   0  0  0  0  0  0  0  0  0  0  0  0
   25.5210   17.7410   13.0320 O   0  0  0  0  0  0  0  0  0  0  0  0
   23.8990   17.8900   14.6330 N   0  0  0  0  0  0  0  0  0  0  0  0
   24.6810   18.7250   15.5330 C   0  0  1  0  0  0  0  0  0  0  0  0
   25.8120   17.9440   16.1960 C   0  0  0  0  0  0  0  0  0  0  0  0
   26.6030   18.8700   17.1080 C   0  0  0  0  0  0  0  0  0  0  0  0
   27.1160   20.0740   16.3550 C   0  0  0  0  0  0  0  0  0  0  0  0
   28.1850   20.6120   16.6250 O   0  0  0  0  0  0  0  0  0  0  0  0
   26.3100   20.5670   15.3610 N   0  0  0  0  0  0  0  0  0  0  0  0
   25.2770   19.8990   14.7500 C   0  0  0  0  0  0  0  0  0  0  0  0
   24.8610   20.2500   13.6470 O   0  0  0  0  0  0  0  0  0  0  0  0
   22.5540   15.6910   13.1770 C   0  0  0  0  0  0  0  0  0  0  0  0
   22.0930   15.5630   14.4300 N   0  0  0  0  0  0  0  0  0  0  0  0
   21.0740   14.6290   14.3730 O   0  0  0  0  0  0  0  0  0  0  0  0
   20.8790   14.1610   13.0870 N   0  0  0  0  0  0  0  0  0  0  0  0
   21.7760   14.7940   12.3250 C   0  0  0  0  0  0  0  0  0  0  0  0
   21.9930   14.6690   10.9400 C   0  0  0  0  0  0  0  0  0  0  0  0
   21.8150   16.1030    6.6350 C   0  0  0  0  0  0  0  0  0  0  0  0
   20.6830   16.7180    6.3690 N   0  0  0  0  0  0  0  0  0  0  0  0
   18.9504   19.6134    8.5356 H   0  0  0  0  0  0  0  0  0  0  0  0
   19.8320   19.3891    6.9867 H   0  0  0  0  0  0  0  0  0  0  0  0
   18.0430   19.5504    6.9867 H   0  0  0  0  0  0  0  0  0  0  0  0
   18.3155   17.4208    8.6527 H   0  0  0  0  0  0  0  0  0  0  0  0
   18.1466   17.2837    6.8496 H   0  0  0  0  0  0  0  0  0  0  0  0
   20.7053   16.5413    9.6980 H   0  0  0  0  0  0  0  0  0  0  0  0
   24.5679   16.9838   10.7824 H   0  0  0  0  0  0  0  0  0  0  0  0
   22.9343   17.6405   14.8936 H   0  0  0  0  0  0  0  0  0  0  0  0
   24.0069   19.0877   16.3230 H   0  0  0  0  0  0  0  0  0  0  0  0
   25.3894   17.1192   16.7886 H   0  0  0  0  0  0  0  0  0  0  0  0
   26.4782   17.5361   15.4216 H   0  0  0  0  0  0  0  0  0  0  0  0
   25.9511   19.2100   17.9262 H   0  0  0  0  0  0  0  0  0  0  0  0
   27.4658   18.3141   17.5036 H   0  0  0  0  0  0  0  0  0  0  0  0
   26.4968   21.5286   15.0427 H   0  0  0  0  0  0  0  0  0  0  0  0
   21.4044   13.9948   10.3005 H   0  0  0  0  0  0  0  0  0  0  0  0
   22.5423   15.7733    5.8785 H   0  0  0  0  0  0  0  0  0  0  0  0
  1  2  1  0
  2  3  1  0
  3  4  2  0
  4  5  1  0
  5  6  1  0
  6  7  2  0
  6  8  2  0
  6  9  1  0
  9 10  1  0
 10 11  2  0
 11 12  1  0
 12 13  2  0
 12 14  1  0
 14 15  1  0
 15 16  1  0
 16 17  1  0
 17 18  1  0
 18 19  2  0
 18 20  1  0
 20 21  1  0
 21 22  2  0
 11 23  1  0
 23 24  2  0
 24 25  1  0
 25 26  1  0
 26 27  2  0
 27 28  1  0
  5 29  1  0
 29 30  2  0
 30  3  1  0
 28  9  2  0
 21 15  1  0
 27 23  1  0
  1 31  1  0
  1 32  1  0
  1 33  1  0
  2 34  1  0
  2 35  1  0
  4 36  1  0
 10 37  1  0
 14 38  1  0
 15 39  1  1
 16 40  1  0
 16 41  1  0
 17 42  1  0
 17 43  1  0
 20 44  1  0
 28 45  1  0
 29 46  1  0
M  END
>  <meeko>  (320) 
{"is_sidechain": [true], "free_energy": -10.95, "intermolecular_energy": 0.0, "internal_energy": -10.95, "cluster_size": 20, "cluster_id": 1, "rank_in_cluster": 1}

>  <_RMSD_MCS_to_ref>  (320) 
0.743112672778795

$$$$
ligand
     RDKit          3D

 46 49  0  0  0  0  0  0  0  0999 V2000
   18.9090   19.1540    7.5370 C   0  0  0  0  0  0  0  0  0  0  0  0
   18.7730   17.6460    7.6780 C   0  0  0  0  0  0  0  0  0  0  0  0
   20.0220   16.9310    7.3000 C   0  0  0  0  0  0  0  0  0  0  0  0
   21.2100   16.8280    7.9980 C   0  0  0  0  0  0  0  0  0  0  0  0
   21.9970   16.0470    7.2030 N   0  0  0  0  0  0  0  0  0  0  0  0
   23.6140   15.7000    7.4570 S   0  0  0  0  0  6  0  0  0  0  0  0
   23.7540   14.2630    7.3270 O   0  0  0  0  0  0  0  0  0  0  0  0
   24.3720   16.6260    6.6400 O   0  0  0  0  0  0  0  0  0  0  0  0
   24.0380   16.0680    9.0980 C   0  0  0  0  0  0  0  0  0  0  0  0
   25.1230   16.7100    9.4980 N   0  0  0  0  0  0  0  0  0  0  0  0
   25.0880   16.7970   10.8740 N   0  0  0  0  0  0  0  0  0  0  0  0
   23.9800   16.2140   11.2640 C   0  0  0  0  0  0  0  0  0  0  0  0
   23.4400   15.9990   12.5720 C   0  0  0  0  0  0  0  0  0  0  0  0
   24.1980   16.5480   13.7650 C   0  0  0  0  0  0  0  0  0  0  0  0
   24.1630   15.9820   14.8460 O   0  0  0  0  0  0  0  0  0  0  0  0
   24.9390   17.6750   13.4810 N   0  0  0  0  0  0  0  0  0  0  0  0
   25.8910   18.2090   14.4420 C   0  0  2  0  0  0  0  0  0  0  0  0
   25.4050   18.0590   15.8790 C   0  0  0  0  0  0  0  0  0  0  0  0
   26.4270   18.6670   16.8280 C   0  0  0  0  0  0  0  0  0  0  0  0
   26.7090   20.1090   16.4780 C   0  0  0  0  0  0  0  0  0  0  0  0
   26.9790   20.9520   17.3280 O   0  0  0  0  0  0  0  0  0  0  0  0
   26.6840   20.4350   15.1460 N   0  0  0  0  0  0  0  0  0  0  0  0
   26.1120   19.6950   14.1420 C   0  0  0  0  0  0  0  0  0  0  0  0
   25.8180   20.2070   13.0620 O   0  0  0  0  0  0  0  0  0  0  0  0
   22.3340   15.3220   12.7660 N   0  0  0  0  0  0  0  0  0  0  0  0
   21.6740   14.8460   11.6420 C   0  0  0  0  0  0  0  0  0  0  0  0
   22.1100   15.0230   10.3810 C   0  0  0  0  0  0  0  0  0  0  0  0
   23.2920   15.7190   10.1890 N   0  0  0  0  0  0  0  0  0  0  0  0
   21.3280   15.7570    6.0580 C   0  0  0  0  0  0  0  0  0  0  0  0
   20.1100   16.2560    6.0980 N   0  0  0  0  0  0  0  0  0  0  0  0
   18.9504   19.6134    8.5356 H   0  0  0  0  0  0  0  0  0  0  0  0
   19.8320   19.3891    6.9867 H   0  0  0  0  0  0  0  0  0  0  0  0
   18.0430   19.5504    6.9867 H   0  0  0  0  0  0  0  0  0  0  0  0
   18.5318   17.4084    8.7246 H   0  0  0  0  0  0  0  0  0  0  0  0
   17.9749   17.3139    6.9978 H   0  0  0  0  0  0  0  0  0  0  0  0
   21.4632   17.2735    8.9714 H   0  0  0  0  0  0  0  0  0  0  0  0
   24.8165   18.1466   12.5735 H   0  0  0  0  0  0  0  0  0  0  0  0
   26.8271   17.6396   14.3448 H   0  0  0  0  0  0  0  0  0  0  0  0
   24.4422   18.5779   15.9961 H   0  0  0  0  0  0  0  0  0  0  0  0
   25.2781   16.9917   16.1128 H   0  0  0  0  0  0  0  0  0  0  0  0
   26.0367   18.6171   17.8552 H   0  0  0  0  0  0  0  0  0  0  0  0
   27.3644   18.0981   16.7405 H   0  0  0  0  0  0  0  0  0  0  0  0
   27.1374   21.3188   14.8736 H   0  0  0  0  0  0  0  0  0  0  0  0
   20.7367   14.2897   11.7907 H   0  0  0  0  0  0  0  0  0  0  0  0
   21.5430   14.6257    9.5262 H   0  0  0  0  0  0  0  0  0  0  0  0
   21.7446   15.1856    5.2154 H   0  0  0  0  0  0  0  0  0  0  0  0
  1  2  1  0
  2  3  1  0
  3  4  2  0
  4  5  1  0
  5  6  1  0
  6  7  2  0
  6  8  2  0
  6  9  1  0
  9 10  2  0
 10 11  1  0
 11 12  2  0
 12 13  1  0
 13 14  1  0
 14 15  2  0
 14 16  1  0
 16 17  1  0
 17 18  1  0
 18 19  1  0
 19 20  1  0
 20 21  2  0
 20 22  1  0
 22 23  1  0
 23 24  2  0
 13 25  2  0
 25 26  1  0
 26 27  2  0
 27 28  1  0
  5 29  1  0
 29 30  2  0
 30  3  1  0
 28  9  1  0
 28 12  1  0
 23 17  1  0
  1 31  1  0
  1 32  1  0
  1 33  1  0
  2 34  1  0
  2 35  1  0
  4 36  1  0
 16 37  1  0
 17 38  1  1
 18 39  1  0
 18 40  1  0
 19 41  1  0
 19 42  1  0
 22 43  1  0
 26 44  1  0
 27 45  1  0
 29 46  1  0
M  END
>  <meeko>  (321) 
{"is_sidechain": [true], "free_energy": -10.95, "intermolecular_energy": 0.0, "internal_energy": -10.95, "cluster_size": 19, "cluster_id": 1, "rank_in_cluster": 1}

>  <_RMSD_MCS_to_ref>  (321) 
0.7473375706094565

$$$$
ligand
     RDKit          3D

 53 56  0  0  0  0  0  0  0  0999 V2000
   18.9090   19.1540    7.5370 C   0  0  0  0  0  0  0  0  0  0  0  0
   18.7730   17.6460    7.6780 C   0  0  0  0  0  0  0  0  0  0  0  0
   20.0860   16.9520    7.5850 C   0  0  0  0  0  0  0  0  0  0  0  0
   21.0380   16.7570    8.5650 C   0  0  0  0  0  0  0  0  0  0  0  0
   22.0220   16.0450    7.9410 N   0  0  0  0  0  0  0  0  0  0  0  0
   23.5330   15.6900    8.5810 S   0  0  0  0  0  6  0  0  0  0  0  0
   24.3780   16.8280    8.2790 O   0  0  0  0  0  0  0  0  0  0  0  0
   23.8440   14.3480    8.1290 O   0  0  0  0  0  0  0  0  0  0  0  0
   23.2500   15.6430   10.3280 C   0  0  0  0  0  0  0  0  0  0  0  0
   22.2610   14.8050   10.8400 C   0  0  0  0  0  0  0  0  0  0  0  0
   22.0480   14.7530   12.2180 C   0  0  0  0  0  0  0  0  0  0  0  0
   22.7830   15.5660   13.0960 C   0  0  0  0  0  0  0  0  0  0  0  0
   23.7730   16.4160   12.5580 C   0  0  0  0  0  0  0  0  0  0  0  0
   24.6170   17.2680   13.4380 C   0  0  0  0  0  0  0  0  0  0  0  0
   25.8380   17.2000   13.3990 O   0  0  0  0  0  0  0  0  0  0  0  0
   23.9280   18.1050   14.2870 N   0  0  0  0  0  0  0  0  0  0  0  0
   24.6230   18.8780   15.3080 C   0  0  1  0  0  0  0  0  0  0  0  0
   25.6280   18.0330   16.0830 C   0  0  0  0  0  0  0  0  0  0  0  0
   26.3430   18.9060   17.1040 C   0  0  0  0  0  0  0  0  0  0  0  0
   26.9990   20.0960   16.4440 C   0  0  0  0  0  0  0  0  0  0  0  0
   28.0500   20.5800   16.8540 O   0  0  0  0  0  0  0  0  0  0  0  0
   26.3440   20.6420   15.3690 N   0  0  0  0  0  0  0  0  0  0  0  0
   25.3610   20.0350   14.6290 C   0  0  0  0  0  0  0  0  0  0  0  0
   25.0910   20.4190   13.4900 O   0  0  0  0  0  0  0  0  0  0  0  0
   24.0050   16.4540   11.1750 C   0  0  0  0  0  0  0  0  0  0  0  0
   22.5050   15.5100   14.5760 C   0  0  0  0  0  0  0  0  0  0  0  0
   21.1680   14.8400   14.8600 C   0  0  0  0  0  0  0  0  0  0  0  0
   21.0630   13.5840   14.0170 C   0  0  0  0  0  0  0  0  0  0  0  0
   21.0640   13.8900   12.6200 O   0  0  0  0  0  0  0  0  0  0  0  0
   21.6860   15.8710    6.6370 C   0  0  0  0  0  0  0  0  0  0  0  0
   20.5080   16.4040    6.3890 N   0  0  0  0  0  0  0  0  0  0  0  0
   18.9504   19.6134    8.5356 H   0  0  0  0  0  0  0  0  0  0  0  0
   19.8320   19.3891    6.9867 H   0  0  0  0  0  0  0  0  0  0  0  0
   18.0430   19.5504    6.9867 H   0  0  0  0  0  0  0  0  0  0  0  0
   18.3218   17.4209    8.6556 H   0  0  0  0  0  0  0  0  0  0  0  0
   18.1412   17.2853    6.8529 H   0  0  0  0  0  0  0  0  0  0  0  0
   21.0104   17.0976    9.6106 H   0  0  0  0  0  0  0  0  0  0  0  0
   21.6523   14.1886   10.1621 H   0  0  0  0  0  0  0  0  0  0  0  0
   22.9050   18.1859   14.1989 H   0  0  0  0  0  0  0  0  0  0  0  0
   23.8749   19.2487   16.0242 H   0  0  0  0  0  0  0  0  0  0  0  0
   25.1002   17.2192   16.6018 H   0  0  0  0  0  0  0  0  0  0  0  0
   26.3638   17.6063   15.3855 H   0  0  0  0  0  0  0  0  0  0  0  0
   25.6121   19.2642   17.8439 H   0  0  0  0  0  0  0  0  0  0  0  0
   27.1246   18.3034   17.5899 H   0  0  0  0  0  0  0  0  0  0  0  0
   26.6155   21.5961   15.0919 H   0  0  0  0  0  0  0  0  0  0  0  0
   24.7773   17.1191   10.7613 H   0  0  0  0  0  0  0  0  0  0  0  0
   23.3047   14.9386   15.0699 H   0  0  0  0  0  0  0  0  0  0  0  0
   22.4680   16.5391   14.9626 H   0  0  0  0  0  0  0  0  0  0  0  0
   21.1056   14.5762   15.9261 H   0  0  0  0  0  0  0  0  0  0  0  0
   20.3453   15.5268   14.6121 H   0  0  0  0  0  0  0  0  0  0  0  0
   21.9192   12.9306   14.2406 H   0  0  0  0  0  0  0  0  0  0  0  0
   20.1145   13.0828   14.2603 H   0  0  0  0  0  0  0  0  0  0  0  0
   22.3107   15.3566    5.8919 H   0  0  0  0  0  0  0  0  0  0  0  0
  1  2  1  0
  2  3  1  0
  3  4  2  0
  4  5  1  0
  5  6  1  0
  6  7  2  0
  6  8  2  0
  6  9  1  0
  9 10  2  0
 10 11  1  0
 11 12  2  0
 12 13  1  0
 13 14  1  0
 14 15  2  0
 14 16  1  0
 16 17  1  0
 17 18  1  0
 18 19  1  0
 19 20  1  0
 20 21  2  0
 20 22  1  0
 22 23  1  0
 23 24  2  0
 13 25  2  0
 12 26  1  0
 26 27  1  0
 27 28  1  0
 28 29  1  0
  5 30  1  0
 30 31  2  0
 31  3  1  0
 25  9  1  0
 29 11  1  0
 23 17  1  0
  1 32  1  0
  1 33  1  0
  1 34  1  0
  2 35  1  0
  2 36  1  0
  4 37  1  0
 10 38  1  0
 16 39  1  0
 17 40  1  1
 18 41  1  0
 18 42  1  0
 19 43  1  0
 19 44  1  0
 22 45  1  0
 25 46  1  0
 26 47  1  0
 26 48  1  0
 27 49  1  0
 27 50  1  0
 28 51  1  0
 28 52  1  0
 30 53  1  0
M  END
>  <meeko>  (322) 
{"is_sidechain": [true], "free_energy": -10.95, "intermolecular_energy": 0.0, "internal_energy": -10.95, "cluster_size": 20, "cluster_id": 1, "rank_in_cluster": 1}

>  <_RMSD_MCS_to_ref>  (322) 
0.6709414612650233

$$$$
ligand
     RDKit          3D

 47 50  0  0  0  0  0  0  0  0999 V2000
   18.9090   19.1540    7.5370 C   0  0  0  0  0  0  0  0  0  0  0  0
   18.7730   17.6460    7.6780 C   0  0  0  0  0  0  0  0  0  0  0  0
   19.9880   16.9260    7.2090 C   0  0  0  0  0  0  0  0  0  0  0  0
   21.2270   16.8290    7.8110 C   0  0  0  0  0  0  0  0  0  0  0  0
   21.9570   16.0620    6.9510 N   0  0  0  0  0  0  0  0  0  0  0  0
   23.4800   15.4370    7.2450 S   0  0  0  0  0  6  0  0  0  0  0  0
   23.4410   14.0420    6.8340 O   0  0  0  0  0  0  0  0  0  0  0  0
   24.4330   16.3720    6.6790 O   0  0  0  0  0  0  0  0  0  0  0  0
   23.7580   15.4100    8.9870 C   0  0  0  0  0  0  0  0  0  0  0  0
   23.2550   14.4900    9.7520 N   0  0  0  0  0  0  0  0  0  0  0  0
   23.5830   14.6560   11.0550 C   0  0  0  0  0  0  0  0  0  0  0  0
   23.1780   13.8100   12.0380 O   0  0  0  0  0  0  0  0  0  0  0  0
   23.6950   14.2700   13.2040 C   0  0  0  0  0  0  0  0  0  0  0  0
   24.4370   15.4220   13.0130 C   0  0  0  0  0  0  0  0  0  0  0  0
   25.1060   16.1160   14.1030 C   0  0  0  0  0  0  0  0  0  0  0  0
   25.4500   15.5270   15.1230 O   0  0  0  0  0  0  0  0  0  0  0  0
   25.3180   17.4660   13.9330 N   0  0  0  0  0  0  0  0  0  0  0  0
   26.2540   18.1760   14.7880 C   0  0  2  0  0  0  0  0  0  0  0  0
   25.9220   17.9530   16.2580 C   0  0  0  0  0  0  0  0  0  0  0  0
   26.9090   18.7230   17.1220 C   0  0  0  0  0  0  0  0  0  0  0  0
   26.9250   20.1900   16.7610 C   0  0  0  0  0  0  0  0  0  0  0  0
   27.0890   21.0720   17.5980 O   0  0  0  0  0  0  0  0  0  0  0  0
   26.7690   20.4960   15.4320 N   0  0  0  0  0  0  0  0  0  0  0  0
   26.1900   19.6820   14.4880 C   0  0  0  0  0  0  0  0  0  0  0  0
   25.6640   20.1610   13.4850 O   0  0  0  0  0  0  0  0  0  0  0  0
   24.3560   15.6580   11.6110 C   0  0  0  0  0  0  0  0  0  0  0  0
   24.8970   16.6550   10.7250 C   0  0  0  0  0  0  0  0  0  0  0  0
   25.6010   17.5870   11.0980 O   0  0  0  0  0  0  0  0  0  0  0  0
   24.5510   16.4670    9.4100 N   0  0  0  0  0  0  0  0  0  0  0  0
   21.1700   15.6810    5.9140 C   0  0  0  0  0  0  0  0  0  0  0  0
   19.9690   16.2070    6.0290 N   0  0  0  0  0  0  0  0  0  0  0  0
   18.9504   19.6134    8.5356 H   0  0  0  0  0  0  0  0  0  0  0  0
   19.8320   19.3891    6.9867 H   0  0  0  0  0  0  0  0  0  0  0  0
   18.0430   19.5504    6.9867 H   0  0  0  0  0  0  0  0  0  0  0  0
   18.6040   17.4030    8.7374 H   0  0  0  0  0  0  0  0  0  0  0  0
   17.9269   17.3233    7.0535 H   0  0  0  0  0  0  0  0  0  0  0  0
   21.5511   17.2694    8.7655 H   0  0  0  0  0  0  0  0  0  0  0  0
   23.5433   13.7872   14.1807 H   0  0  0  0  0  0  0  0  0  0  0  0
   24.8102   17.9753   13.1956 H   0  0  0  0  0  0  0  0  0  0  0  0
   27.2641   17.7905   14.5854 H   0  0  0  0  0  0  0  0  0  0  0  0
   24.9011   18.3085   16.4616 H   0  0  0  0  0  0  0  0  0  0  0  0
   25.9894   16.8801   16.4909 H   0  0  0  0  0  0  0  0  0  0  0  0
   26.6199   18.6168   18.1780 H   0  0  0  0  0  0  0  0  0  0  0  0
   27.9149   18.3120   16.9512 H   0  0  0  0  0  0  0  0  0  0  0  0
   27.1151   21.4130   15.1155 H   0  0  0  0  0  0  0  0  0  0  0  0
   24.8943   17.1384    8.7083 H   0  0  0  0  0  0  0  0  0  0  0  0
   21.4907   15.0243    5.0919 H   0  0  0  0  0  0  0  0  0  0  0  0
  1  2  1  0
  2  3  1  0
  3  4  2  0
  4  5  1  0
  5  6  1  0
  6  7  2  0
  6  8  2  0
  6  9  1  0
  9 10  2  0
 10 11  1  0
 11 12  1  0
 12 13  1  0
 13 14  2  0
 14 15  1  0
 15 16  2  0
 15 17  1  0
 17 18  1  0
 18 19  1  0
 19 20  1  0
 20 21  1  0
 21 22  2  0
 21 23  1  0
 23 24  1  0
 24 25  2  0
 14 26  1  0
 26 27  1  0
 27 28  2  0
 27 29  1  0
  5 30  1  0
 30 31  2  0
 31  3  1  0
 29  9  1  0
 26 11  2  0
 24 18  1  0
  1 32  1  0
  1 33  1  0
  1 34  1  0
  2 35  1  0
  2 36  1  0
  4 37  1  0
 13 38  1  0
 17 39  1  0
 18 40  1  1
 19 41  1  0
 19 42  1  0
 20 43  1  0
 20 44  1  0
 23 45  1  0
 29 46  1  0
 30 47  1  0
M  END
>  <meeko>  (323) 
{"is_sidechain": [true], "free_energy": -10.95, "intermolecular_energy": 0.0, "internal_energy": -10.95, "cluster_size": 10, "cluster_id": 1, "rank_in_cluster": 1}

>  <_RMSD_MCS_to_ref>  (323) 
0.8781183797694301

$$$$
ligand
     RDKit          3D

 50 53  0  0  0  0  0  0  0  0999 V2000
   18.9090   19.1540    7.5370 C   0  0  0  0  0  0  0  0  0  0  0  0
   18.7730   17.6460    7.6780 C   0  0  0  0  0  0  0  0  0  0  0  0
   20.0440   16.9370    7.3690 C   0  0  0  0  0  0  0  0  0  0  0  0
   20.6850   15.9480    8.0900 C   0  0  0  0  0  0  0  0  0  0  0  0
   21.7850   15.6460    7.3380 N   0  0  0  0  0  0  0  0  0  0  0  0
   23.0540   14.6590    7.8250 S   0  0  0  0  0  6  0  0  0  0  0  0
   22.5140   13.3830    8.2470 O   0  0  0  0  0  0  0  0  0  0  0  0
   23.9830   14.7330    6.7090 O   0  0  0  0  0  0  0  0  0  0  0  0
   23.8340   15.4380    9.2240 C   0  0  0  0  0  0  0  0  0  0  0  0
   25.0820   16.0420    8.9780 C   0  0  0  0  0  0  0  0  0  0  0  0
   25.8140   16.6100   10.0160 C   0  0  0  0  0  0  0  0  0  0  0  0
   25.3160   16.5730   11.3130 C   0  0  0  0  0  0  0  0  0  0  0  0
   24.0720   15.9800   11.5720 C   0  0  0  0  0  0  0  0  0  0  0  0
   23.5320   15.9000   12.9460 C   0  0  0  0  0  0  0  0  0  0  0  0
   24.2770   16.5530   14.1020 C   0  0  0  0  0  0  0  0  0  0  0  0
   24.4920   15.9290   15.1280 O   0  0  0  0  0  0  0  0  0  0  0  0
   24.6270   17.8640   13.8650 N   0  0  0  0  0  0  0  0  0  0  0  0
   24.9910   18.7280   14.9740 C   0  0  1  0  0  0  0  0  0  0  0  0
   25.9990   18.0490   15.8910 C   0  0  0  0  0  0  0  0  0  0  0  0
   26.3690   18.9940   17.0250 C   0  0  0  0  0  0  0  0  0  0  0  0
   26.8870   20.3100   16.4950 C   0  0  0  0  0  0  0  0  0  0  0  0
   27.7600   20.9530   17.0710 O   0  0  0  0  0  0  0  0  0  0  0  0
   26.3140   20.7770   15.3390 N   0  0  0  0  0  0  0  0  0  0  0  0
   25.6020   20.0290   14.4300 C   0  0  0  0  0  0  0  0  0  0  0  0
   25.4740   20.4070   13.2660 O   0  0  0  0  0  0  0  0  0  0  0  0
   22.4390   15.2710   13.2550 N   0  0  0  0  0  0  0  0  0  0  0  0
   21.7350   14.7040   12.2440 N   0  0  0  0  0  0  0  0  0  0  0  0
   22.0290   14.7940   10.9050 C   0  0  0  0  0  0  0  0  0  0  0  0
   21.2320   14.4010   10.0670 O   0  0  0  0  0  0  0  0  0  0  0  0
   23.3200   15.4070   10.5320 C   0  0  0  0  0  0  0  0  0  0  0  0
   21.8330   16.4810    6.2670 C   0  0  0  0  0  0  0  0  0  0  0  0
   20.7700   17.2610    6.2410 N   0  0  0  0  0  0  0  0  0  0  0  0
   18.9504   19.6134    8.5356 H   0  0  0  0  0  0  0  0  0  0  0  0
   19.8320   19.3891    6.9867 H   0  0  0  0  0  0  0  0  0  0  0  0
   18.0430   19.5504    6.9867 H   0  0  0  0  0  0  0  0  0  0  0  0
   18.4787   17.4117    8.7117 H   0  0  0  0  0  0  0  0  0  0  0  0
   18.0128   17.3063    6.9592 H   0  0  0  0  0  0  0  0  0  0  0  0
   20.3797   15.5052    9.0495 H   0  0  0  0  0  0  0  0  0  0  0  0
   25.4826   16.0650    7.9538 H   0  0  0  0  0  0  0  0  0  0  0  0
   26.7838   17.0868    9.8107 H   0  0  0  0  0  0  0  0  0  0  0  0
   25.8986   17.0096   12.1376 H   0  0  0  0  0  0  0  0  0  0  0  0
   24.6305   18.2310   12.9026 H   0  0  0  0  0  0  0  0  0  0  0  0
   24.0817   18.9465   15.5532 H   0  0  0  0  0  0  0  0  0  0  0  0
   25.5566   17.1320   16.3073 H   0  0  0  0  0  0  0  0  0  0  0  0
   26.9020   17.7924   15.3177 H   0  0  0  0  0  0  0  0  0  0  0  0
   25.4769   19.1817   17.6406 H   0  0  0  0  0  0  0  0  0  0  0  0
   27.1630   18.5239   17.6239 H   0  0  0  0  0  0  0  0  0  0  0  0
   26.4274   21.7798   15.1328 H   0  0  0  0  0  0  0  0  0  0  0  0
   20.9031   14.1552   12.5041 H   0  0  0  0  0  0  0  0  0  0  0  0
   22.6451   16.5032    5.5254 H   0  0  0  0  0  0  0  0  0  0  0  0
  1  2  1  0
  2  3  1  0
  3  4  2  0
  4  5  1  0
  5  6  1  0
  6  7  2  0
  6  8  2  0
  6  9  1  0
  9 10  2  0
 10 11  1  0
 11 12  2  0
 12 13  1  0
 13 14  1  0
 14 15  1  0
 15 16  2  0
 15 17  1  0
 17 18  1  0
 18 19  1  0
 19 20  1  0
 20 21  1  0
 21 22  2  0
 21 23  1  0
 23 24  1  0
 24 25  2  0
 14 26  2  0
 26 27  1  0
 27 28  1  0
 28 29  2  0
 28 30  1  0
  5 31  1  0
 31 32  2  0
 32  3  1  0
 30  9  1  0
 30 13  2  0
 24 18  1  0
  1 33  1  0
  1 34  1  0
  1 35  1  0
  2 36  1  0
  2 37  1  0
  4 38  1  0
 10 39  1  0
 11 40  1  0
 12 41  1  0
 17 42  1  0
 18 43  1  1
 19 44  1  0
 19 45  1  0
 20 46  1  0
 20 47  1  0
 23 48  1  0
 27 49  1  0
 31 50  1  0
M  END
>  <meeko>  (324) 
{"is_sidechain": [true], "free_energy": -10.95, "intermolecular_energy": 0.0, "internal_energy": -10.95, "cluster_size": 8, "cluster_id": 1, "rank_in_cluster": 1}

>  <_RMSD_MCS_to_ref>  (324) 
0.532609404514958

$$$$
ligand
     RDKit          3D

 55 58  0  0  0  0  0  0  0  0999 V2000
   18.9090   19.1540    7.5370 C   0  0  0  0  0  0  0  0  0  0  0  0
   18.7730   17.6460    7.6780 C   0  0  0  0  0  0  0  0  0  0  0  0
   20.0890   16.9550    7.6080 C   0  0  0  0  0  0  0  0  0  0  0  0
   21.0530   16.8260    8.5890 C   0  0  0  0  0  0  0  0  0  0  0  0
   22.0350   16.0900    7.9970 N   0  0  0  0  0  0  0  0  0  0  0  0
   23.4350   15.4920    8.7210 S   0  0  0  0  0  6  0  0  0  0  0  0
   24.4740   16.4590    8.4140 O   0  0  0  0  0  0  0  0  0  0  0  0
   23.5340   14.1420    8.1850 O   0  0  0  0  0  0  0  0  0  0  0  0
   23.2080   15.4000   10.4260 C   0  0  0  0  0  0  0  0  0  0  0  0
   23.9400   16.1810   11.2330 C   0  0  0  0  0  0  0  0  0  0  0  0
   23.7730   16.1340   12.6700 C   0  0  0  0  0  0  0  0  0  0  0  0
   24.6430   16.9980   13.5280 C   0  0  0  0  0  0  0  0  0  0  0  0
   25.8570   16.8560   13.5830 O   0  0  0  0  0  0  0  0  0  0  0  0
   23.9460   17.9360   14.2460 N   0  0  0  0  0  0  0  0  0  0  0  0
   24.6030   18.7670   15.2460 C   0  0  1  0  0  0  0  0  0  0  0  0
   25.5870   17.9740   16.0980 C   0  0  0  0  0  0  0  0  0  0  0  0
   26.2630   18.9060   17.0910 C   0  0  0  0  0  0  0  0  0  0  0  0
   26.9300   20.0680   16.3900 C   0  0  0  0  0  0  0  0  0  0  0  0
   27.9630   20.5830   16.8070 O   0  0  0  0  0  0  0  0  0  0  0  0
   26.3060   20.5490   15.2680 N   0  0  0  0  0  0  0  0  0  0  0  0
   25.3560   19.8900   14.5270 C   0  0  0  0  0  0  0  0  0  0  0  0
   25.1250   20.2030   13.3590 O   0  0  0  0  0  0  0  0  0  0  0  0
   22.8840   15.2810   13.2270 C   0  0  0  0  0  0  0  0  0  0  0  0
   22.1060   14.4550   12.3960 N   0  0  0  0  0  0  0  0  0  0  0  0
   22.1840   14.5060   10.9930 C   0  0  0  0  0  0  0  0  0  0  0  0
   21.4550   13.8530   10.2530 O   0  0  0  0  0  0  0  0  0  0  0  0
   21.0420   13.6050   12.9320 C   0  0  0  0  0  0  0  0  0  0  0  0
   21.1450   13.2900   14.4130 C   0  0  0  0  0  0  0  0  0  0  0  0
   21.3850   14.5730   15.1810 C   0  0  0  0  0  0  0  0  0  0  0  0
   22.7070   15.1820   14.7320 C   0  0  0  0  0  0  0  0  0  0  0  0
   21.6670   15.7940    6.7230 C   0  0  0  0  0  0  0  0  0  0  0  0
   20.4850   16.3090    6.4520 N   0  0  0  0  0  0  0  0  0  0  0  0
   18.9504   19.6134    8.5356 H   0  0  0  0  0  0  0  0  0  0  0  0
   19.8320   19.3891    6.9867 H   0  0  0  0  0  0  0  0  0  0  0  0
   18.0430   19.5504    6.9867 H   0  0  0  0  0  0  0  0  0  0  0  0
   18.3059   17.4214    8.6483 H   0  0  0  0  0  0  0  0  0  0  0  0
   18.1555   17.2827    6.8434 H   0  0  0  0  0  0  0  0  0  0  0  0
   21.0325   17.2259    9.6135 H   0  0  0  0  0  0  0  0  0  0  0  0
   24.6793   16.8685   10.7962 H   0  0  0  0  0  0  0  0  0  0  0  0
   22.9374   18.0553   14.0746 H   0  0  0  0  0  0  0  0  0  0  0  0
   23.8305   19.1693   15.9179 H   0  0  0  0  0  0  0  0  0  0  0  0
   25.0474   17.1858   16.6436 H   0  0  0  0  0  0  0  0  0  0  0  0
   26.3476   17.5156   15.4489 H   0  0  0  0  0  0  0  0  0  0  0  0
   25.5069   19.2951   17.7888 H   0  0  0  0  0  0  0  0  0  0  0  0
   27.0350   18.3371   17.6299 H   0  0  0  0  0  0  0  0  0  0  0  0
   26.5745   21.4917   14.9516 H   0  0  0  0  0  0  0  0  0  0  0  0
   20.0819   14.1132   12.7590 H   0  0  0  0  0  0  0  0  0  0  0  0
   21.1319   12.6410   12.4099 H   0  0  0  0  0  0  0  0  0  0  0  0
   20.2086   12.8258   14.7561 H   0  0  0  0  0  0  0  0  0  0  0  0
   21.9802   12.5952   14.5852 H   0  0  0  0  0  0  0  0  0  0  0  0
   20.5667   15.2805   14.9814 H   0  0  0  0  0  0  0  0  0  0  0  0
   21.4228   14.3583   16.2592 H   0  0  0  0  0  0  0  0  0  0  0  0
   22.7768   16.1962   15.1522 H   0  0  0  0  0  0  0  0  0  0  0  0
   23.4972   14.5073   15.0930 H   0  0  0  0  0  0  0  0  0  0  0  0
   22.2716   15.2064    6.0165 H   0  0  0  0  0  0  0  0  0  0  0  0
  1  2  1  0
  2  3  1  0
  3  4  2  0
  4  5  1  0
  5  6  1  0
  6  7  2  0
  6  8  2  0
  6  9  1  0
  9 10  2  0
 10 11  1  0
 11 12  1  0
 12 13  2  0
 12 14  1  0
 14 15  1  0
 15 16  1  0
 16 17  1  0
 17 18  1  0
 18 19  2  0
 18 20  1  0
 20 21  1  0
 21 22  2  0
 11 23  2  0
 23 24  1  0
 24 25  1  0
 25 26  2  0
 24 27  1  0
 27 28  1  0
 28 29  1  0
 29 30  1  0
  5 31  1  0
 31 32  2  0
 32  3  1  0
 25  9  1  0
 21 15  1  0
 30 23  1  0
  1 33  1  0
  1 34  1  0
  1 35  1  0
  2 36  1  0
  2 37  1  0
  4 38  1  0
 10 39  1  0
 14 40  1  0
 15 41  1  1
 16 42  1  0
 16 43  1  0
 17 44  1  0
 17 45  1  0
 20 46  1  0
 27 47  1  0
 27 48  1  0
 28 49  1  0
 28 50  1  0
 29 51  1  0
 29 52  1  0
 30 53  1  0
 30 54  1  0
 31 55  1  0
M  END
>  <meeko>  (325) 
{"is_sidechain": [true], "free_energy": -10.95, "intermolecular_energy": 0.0, "internal_energy": -10.95, "cluster_size": 20, "cluster_id": 1, "rank_in_cluster": 1}

>  <_RMSD_MCS_to_ref>  (325) 
0.6060027502687867

$$$$
ligand
     RDKit          3D

 54 58  0  0  0  0  0  0  0  0999 V2000
   18.9090   19.1540    7.5370 C   0  0  0  0  0  0  0  0  0  0  0  0
   18.7730   17.6460    7.6780 C   0  0  0  0  0  0  0  0  0  0  0  0
   20.0920   16.9590    7.6370 C   0  0  0  0  0  0  0  0  0  0  0  0
   20.5340   15.8830    8.3830 C   0  0  0  0  0  0  0  0  0  0  0  0
   21.7930   15.6450    7.9110 N   0  0  0  0  0  0  0  0  0  0  0  0
   22.8920   14.5410    8.5360 S   0  0  0  0  0  6  0  0  0  0  0  0
   23.6150   14.0710    7.3680 O   0  0  0  0  0  0  0  0  0  0  0  0
   22.1460   13.6200    9.3700 O   0  0  0  0  0  0  0  0  0  0  0  0
   24.0250   15.4680    9.5560 C   0  0  0  0  0  0  0  0  0  0  0  0
   23.6120   15.7380   10.8740 C   0  0  0  0  0  0  0  0  0  0  0  0
   24.4310   16.5330   11.6490 C   0  0  0  0  0  0  0  0  0  0  0  0
   25.6130   17.0830   11.1730 C   0  0  0  0  0  0  0  0  0  0  0  0
   26.0220   16.8290    9.8750 C   0  0  0  0  0  0  0  0  0  0  0  0
   25.2370   16.0020    9.0330 C   0  0  0  0  0  0  0  0  0  0  0  0
   25.7350   15.7230    7.6830 C   0  0  0  0  0  0  0  0  0  0  0  0
   26.5330   14.6530    7.5420 N   0  0  0  0  0  0  0  0  0  0  0  0
   27.0300   14.4420    6.3070 C   0  0  0  0  0  0  0  0  0  0  0  0
   26.7660   15.2590    5.2340 C   0  0  0  0  0  0  0  0  0  0  0  0
   25.9580   16.3390    5.4960 C   0  0  0  0  0  0  0  0  0  0  0  0
   25.4440   16.6060    6.7110 N   0  0  0  0  0  0  0  0  0  0  0  0
   26.2520   17.9240   12.2290 C   0  0  0  0  0  0  0  0  0  0  0  0
   25.3740   17.7120   13.3730 N   0  0  0  0  0  0  0  0  0  0  0  0
   25.4250   18.5200   14.5860 C   0  0  1  0  0  0  0  0  0  0  0  0
   26.3380   17.9180   15.6500 C   0  0  0  0  0  0  0  0  0  0  0  0
   26.2700   18.7680   16.9110 C   0  0  0  0  0  0  0  0  0  0  0  0
   26.6160   20.2090   16.6170 C   0  0  0  0  0  0  0  0  0  0  0  0
   27.2410   20.9080   17.4080 O   0  0  0  0  0  0  0  0  0  0  0  0
   26.1820   20.7110   15.4170 N   0  0  0  0  0  0  0  0  0  0  0  0
   25.8710   19.9640   14.3030 C   0  0  0  0  0  0  0  0  0  0  0  0
   25.9710   20.4530   13.1800 O   0  0  0  0  0  0  0  0  0  0  0  0
   24.2520   16.9680   13.0390 C   0  0  0  0  0  0  0  0  0  0  0  0
   23.2920   16.7010   13.7340 O   0  0  0  0  0  0  0  0  0  0  0  0
   22.1160   16.6080    7.0090 C   0  0  0  0  0  0  0  0  0  0  0  0
   21.0860   17.3970    6.7830 N   0  0  0  0  0  0  0  0  0  0  0  0
   18.9504   19.6134    8.5356 H   0  0  0  0  0  0  0  0  0  0  0  0
   19.8320   19.3891    6.9867 H   0  0  0  0  0  0  0  0  0  0  0  0
   18.0430   19.5504    6.9867 H   0  0  0  0  0  0  0  0  0  0  0  0
   18.2861   17.4220    8.6386 H   0  0  0  0  0  0  0  0  0  0  0  0
   18.1736   17.2793    6.8317 H   0  0  0  0  0  0  0  0  0  0  0  0
   19.9953   15.3424    9.1752 H   0  0  0  0  0  0  0  0  0  0  0  0
   22.6709   15.3302   11.2716 H   0  0  0  0  0  0  0  0  0  0  0  0
   26.9565   17.2691    9.4970 H   0  0  0  0  0  0  0  0  0  0  0  0
   27.6814   13.5697    6.1497 H   0  0  0  0  0  0  0  0  0  0  0  0
   27.1744   15.0615    4.2319 H   0  0  0  0  0  0  0  0  0  0  0  0
   25.7182   17.0224    4.6680 H   0  0  0  0  0  0  0  0  0  0  0  0
   27.2753   17.5827   12.4443 H   0  0  0  0  0  0  0  0  0  0  0  0
   26.3557   18.9816   11.9451 H   0  0  0  0  0  0  0  0  0  0  0  0
   24.3945   18.5314   14.9705 H   0  0  0  0  0  0  0  0  0  0  0  0
   26.0094   16.8936   15.8793 H   0  0  0  0  0  0  0  0  0  0  0  0
   27.3726   17.8942   15.2771 H   0  0  0  0  0  0  0  0  0  0  0  0
   25.2506   18.7202   17.3216 H   0  0  0  0  0  0  0  0  0  0  0  0
   26.9984   18.3754   17.6358 H   0  0  0  0  0  0  0  0  0  0  0  0
   26.0800   21.7332   15.3427 H   0  0  0  0  0  0  0  0  0  0  0  0
   23.1020   16.7142    6.5330 H   0  0  0  0  0  0  0  0  0  0  0  0
  1  2  1  0
  2  3  1  0
  3  4  2  0
  4  5  1  0
  5  6  1  0
  6  7  2  0
  6  8  2  0
  6  9  1  0
  9 10  2  0
 10 11  1  0
 11 12  2  0
 12 13  1  0
 13 14  2  0
 14 15  1  0
 15 16  2  0
 16 17  1  0
 17 18  2  0
 18 19  1  0
 19 20  2  0
 12 21  1  0
 21 22  1  0
 22 23  1  0
 23 24  1  0
 24 25  1  0
 25 26  1  0
 26 27  2  0
 26 28  1  0
 28 29  1  0
 29 30  2  0
 22 31  1  0
 31 32  2  0
  5 33  1  0
 33 34  2  0
 34  3  1  0
 14  9  1  0
 20 15  1  0
 29 23  1  0
 31 11  1  0
  1 35  1  0
  1 36  1  0
  1 37  1  0
  2 38  1  0
  2 39  1  0
  4 40  1  0
 10 41  1  0
 13 42  1  0
 17 43  1  0
 18 44  1  0
 19 45  1  0
 21 46  1  0
 21 47  1  0
 23 48  1  1
 24 49  1  0
 24 50  1  0
 25 51  1  0
 25 52  1  0
 28 53  1  0
 33 54  1  0
M  END
>  <meeko>  (326) 
{"is_sidechain": [true], "free_energy": -10.95, "intermolecular_energy": 0.0, "internal_energy": -10.95, "cluster_size": 16, "cluster_id": 1, "rank_in_cluster": 1}

>  <_RMSD_MCS_to_ref>  (326) 
0.7340311452671624

$$$$
ligand
     RDKit          3D

 50 53  0  0  0  0  0  0  0  0999 V2000
   18.7970   18.8170    7.7190 C   0  0  0  0  0  0  0  0  0  0  0  0
   18.5280   17.3290    7.8810 C   0  0  0  0  0  0  0  0  0  0  0  0
   19.7110   16.5010    7.5230 C   0  0  0  0  0  0  0  0  0  0  0  0
   20.6060   15.8570    8.3540 C   0  0  0  0  0  0  0  0  0  0  0  0
   21.4700   15.2360    7.5010 N   0  0  0  0  0  0  0  0  0  0  0  0
   22.9040   14.4750    7.9320 S   0  0  0  0  0  6  0  0  0  0  0  0
   23.8920   15.5270    8.0700 O   0  0  0  0  0  0  0  0  0  0  0  0
   23.0720   13.3780    6.9950 O   0  0  0  0  0  0  0  0  0  0  0  0
   22.5530   13.8040    9.5360 C   0  0  0  0  0  0  0  0  0  0  0  0
   21.6930   12.6940    9.6040 C   0  0  0  0  0  0  0  0  0  0  0  0
   21.4180   12.0980   10.8330 C   0  0  0  0  0  0  0  0  0  0  0  0
   22.0020   12.6070   11.9880 C   0  0  0  0  0  0  0  0  0  0  0  0
   22.8480   13.7200   11.9040 C   0  0  0  0  0  0  0  0  0  0  0  0
   23.4680   14.2710   13.1120 C   0  0  0  0  0  0  0  0  0  0  0  0
   23.1940   13.8610   14.2300 O   0  0  0  0  0  0  0  0  0  0  0  0
   24.4250   15.4110   12.9270 C   0  0  0  0  0  0  0  0  0  0  0  0
   25.2000   15.9970   14.0880 C   0  0  0  0  0  0  0  0  0  0  0  0
   25.5850   15.2800   14.9980 O   0  0  0  0  0  0  0  0  0  0  0  0
   25.4510   17.3480   13.9760 N   0  0  0  0  0  0  0  0  0  0  0  0
   26.3550   18.0220   14.8940 C   0  0  2  0  0  0  0  0  0  0  0  0
   25.8980   17.9020   16.3440 C   0  0  0  0  0  0  0  0  0  0  0  0
   26.8640   18.6560   17.2450 C   0  0  0  0  0  0  0  0  0  0  0  0
   27.0020   20.0980   16.8180 C   0  0  0  0  0  0  0  0  0  0  0  0
   27.1960   21.0080   17.6180 O   0  0  0  0  0  0  0  0  0  0  0  0
   26.9340   20.3480   15.4700 N   0  0  0  0  0  0  0  0  0  0  0  0
   26.4280   19.5040   14.5130 C   0  0  0  0  0  0  0  0  0  0  0  0
   26.0770   19.9270   13.4120 O   0  0  0  0  0  0  0  0  0  0  0  0
   24.6150   15.9670   11.7620 N   0  0  0  0  0  0  0  0  0  0  0  0
   23.9970   15.4610   10.6640 N   0  0  0  0  0  0  0  0  0  0  0  0
   23.1170   14.3660   10.6940 C   0  0  0  0  0  0  0  0  0  0  0  0
   21.1280   15.5390    6.2220 C   0  0  0  0  0  0  0  0  0  0  0  0
   20.0550   16.3010    6.1990 N   0  0  0  0  0  0  0  0  0  0  0  0
   18.8815   19.2845    8.7111 H   0  0  0  0  0  0  0  0  0  0  0  0
   19.7359   18.9616    7.1643 H   0  0  0  0  0  0  0  0  0  0  0  0
   17.9682   19.2812    7.1643 H   0  0  0  0  0  0  0  0  0  0  0  0
   18.2603   17.1296    8.9291 H   0  0  0  0  0  0  0  0  0  0  0  0
   17.7081   17.0583    7.1995 H   0  0  0  0  0  0  0  0  0  0  0  0
   20.6191   15.8471    9.4539 H   0  0  0  0  0  0  0  0  0  0  0  0
   21.2367   12.2955    8.6859 H   0  0  0  0  0  0  0  0  0  0  0  0
   20.7436   11.2308   10.8894 H   0  0  0  0  0  0  0  0  0  0  0  0
   21.8005   12.1379   12.9624 H   0  0  0  0  0  0  0  0  0  0  0  0
   24.9907   17.8887   13.2299 H   0  0  0  0  0  0  0  0  0  0  0  0
   27.3415   17.5419   14.8141 H   0  0  0  0  0  0  0  0  0  0  0  0
   24.8901   18.3304   16.4473 H   0  0  0  0  0  0  0  0  0  0  0  0
   25.8776   16.8414   16.6351 H   0  0  0  0  0  0  0  0  0  0  0  0
   26.4896   18.6228   18.2788 H   0  0  0  0  0  0  0  0  0  0  0  0
   27.8515   18.1768   17.1727 H   0  0  0  0  0  0  0  0  0  0  0  0
   27.2974   21.2556   15.1456 H   0  0  0  0  0  0  0  0  0  0  0  0
   24.1845   15.9066    9.7545 H   0  0  0  0  0  0  0  0  0  0  0  0
   21.6719   15.1955    5.3297 H   0  0  0  0  0  0  0  0  0  0  0  0
  1  2  1  0
  2  3  1  0
  3  4  2  0
  4  5  1  0
  5  6  1  0
  6  7  2  0
  6  8  2  0
  6  9  1  0
  9 10  2  0
 10 11  1  0
 11 12  2  0
 12 13  1  0
 13 14  1  0
 14 15  2  0
 14 16  1  0
 16 17  1  0
 17 18  2  0
 17 19  1  0
 19 20  1  0
 20 21  1  0
 21 22  1  0
 22 23  1  0
 23 24  2  0
 23 25  1  0
 25 26  1  0
 26 27  2  0
 16 28  2  0
 28 29  1  0
 29 30  1  0
  5 31  1  0
 31 32  2  0
 32  3  1  0
 30  9  1  0
 30 13  2  0
 26 20  1  0
  1 33  1  0
  1 34  1  0
  1 35  1  0
  2 36  1  0
  2 37  1  0
  4 38  1  0
 10 39  1  0
 11 40  1  0
 12 41  1  0
 19 42  1  0
 20 43  1  1
 21 44  1  0
 21 45  1  0
 22 46  1  0
 22 47  1  0
 25 48  1  0
 29 49  1  0
 31 50  1  0
M  END
>  <meeko>  (327) 
{"is_sidechain": [true], "free_energy": -10.94, "intermolecular_energy": 0.0, "internal_energy": -10.94, "cluster_size": 11, "cluster_id": 1, "rank_in_cluster": 1}

>  <_RMSD_MCS_to_ref>  (327) 
0.8434502553994123

$$$$
ligand
     RDKit          3D

 48 51  0  0  0  0  0  0  0  0999 V2000
   18.9090   19.1540    7.5370 C   0  0  0  0  0  0  0  0  0  0  0  0
   18.7730   17.6460    7.6780 C   0  0  0  0  0  0  0  0  0  0  0  0
   20.0430   16.9350    7.3700 C   0  0  0  0  0  0  0  0  0  0  0  0
   20.7620   16.0600    8.1590 C   0  0  0  0  0  0  0  0  0  0  0  0
   21.8230   15.7000    7.3770 N   0  0  0  0  0  0  0  0  0  0  0  0
   23.0610   14.6500    7.8350 S   0  0  0  0  0  6  0  0  0  0  0  0
   23.7840   14.3440    6.6130 O   0  0  0  0  0  0  0  0  0  0  0  0
   22.3460   13.5870    8.5290 O   0  0  0  0  0  0  0  0  0  0  0  0
   24.1080   15.4440    8.9500 C   0  0  0  0  0  0  0  0  0  0  0  0
   25.2890   15.9290    8.5200 C   0  0  0  0  0  0  0  0  0  0  0  0
   26.1600   16.5910    9.4710 C   0  0  0  0  0  0  0  0  0  0  0  0
   25.8010   16.7590   10.7560 C   0  0  0  0  0  0  0  0  0  0  0  0
   24.5300   16.2890   11.2090 C   0  0  0  0  0  0  0  0  0  0  0  0
   23.8400   16.3030   12.4100 C   0  0  0  0  0  0  0  0  0  0  0  0
   24.1830   16.8750   13.6990 C   0  0  0  0  0  0  0  0  0  0  0  0
   23.8510   16.3440   14.7530 O   0  0  0  0  0  0  0  0  0  0  0  0
   24.8530   18.0740   13.6590 N   0  0  0  0  0  0  0  0  0  0  0  0
   25.0910   18.8470   14.8700 C   0  0  1  0  0  0  0  0  0  0  0  0
   25.9850   18.1140   15.8630 C   0  0  0  0  0  0  0  0  0  0  0  0
   26.2320   19.0000   17.0740 C   0  0  0  0  0  0  0  0  0  0  0  0
   26.8190   20.3330   16.6670 C   0  0  0  0  0  0  0  0  0  0  0  0
   27.6340   20.9340   17.3580 O   0  0  0  0  0  0  0  0  0  0  0  0
   26.3730   20.8620   15.4820 N   0  0  0  0  0  0  0  0  0  0  0  0
   25.7680   20.1620   14.4690 C   0  0  0  0  0  0  0  0  0  0  0  0
   25.7670   20.5800   13.3110 O   0  0  0  0  0  0  0  0  0  0  0  0
   22.6690   15.5690   12.1330 C   0  0  0  0  0  0  0  0  0  0  0  0
   22.5830   15.1740   10.8650 N   0  0  0  0  0  0  0  0  0  0  0  0
   23.7200   15.6130   10.2750 N   0  0  0  0  0  0  0  0  0  0  0  0
   21.7450   16.3540    6.1900 C   0  0  0  0  0  0  0  0  0  0  0  0
   20.6640   17.1070    6.1480 N   0  0  0  0  0  0  0  0  0  0  0  0
   18.9504   19.6134    8.5356 H   0  0  0  0  0  0  0  0  0  0  0  0
   19.8320   19.3891    6.9867 H   0  0  0  0  0  0  0  0  0  0  0  0
   18.0430   19.5504    6.9867 H   0  0  0  0  0  0  0  0  0  0  0  0
   18.4780   17.4122    8.7116 H   0  0  0  0  0  0  0  0  0  0  0  0
   18.0136   17.3071    6.9580 H   0  0  0  0  0  0  0  0  0  0  0  0
   20.5333   15.7285    9.1826 H   0  0  0  0  0  0  0  0  0  0  0  0
   25.5870   15.8245    7.4663 H   0  0  0  0  0  0  0  0  0  0  0  0
   27.1379   16.9648    9.1335 H   0  0  0  0  0  0  0  0  0  0  0  0
   26.4854   17.2579   11.4579 H   0  0  0  0  0  0  0  0  0  0  0  0
   25.1933   18.4328   12.7555 H   0  0  0  0  0  0  0  0  0  0  0  0
   24.1234   19.0189   15.3641 H   0  0  0  0  0  0  0  0  0  0  0  0
   25.4917   17.1845   16.1834 H   0  0  0  0  0  0  0  0  0  0  0  0
   26.9452   17.8735   15.3832 H   0  0  0  0  0  0  0  0  0  0  0  0
   25.2776   19.1719   17.5932 H   0  0  0  0  0  0  0  0  0  0  0  0
   26.9484   18.4921   17.7364 H   0  0  0  0  0  0  0  0  0  0  0  0
   26.5040   21.8738   15.3406 H   0  0  0  0  0  0  0  0  0  0  0  0
   21.9025   15.3450   12.8895 H   0  0  0  0  0  0  0  0  0  0  0  0
   22.4809   16.2676    5.3770 H   0  0  0  0  0  0  0  0  0  0  0  0
  1  2  1  0
  2  3  1  0
  3  4  2  0
  4  5  1  0
  5  6  1  0
  6  7  2  0
  6  8  2  0
  6  9  1  0
  9 10  2  0
 10 11  1  0
 11 12  2  0
 12 13  1  0
 13 14  2  0
 14 15  1  0
 15 16  2  0
 15 17  1  0
 17 18  1  0
 18 19  1  0
 19 20  1  0
 20 21  1  0
 21 22  2  0
 21 23  1  0
 23 24  1  0
 24 25  2  0
 14 26  1  0
 26 27  2  0
 27 28  1  0
  5 29  1  0
 29 30  2  0
 30  3  1  0
 28  9  1  0
 28 13  1  0
 24 18  1  0
  1 31  1  0
  1 32  1  0
  1 33  1  0
  2 34  1  0
  2 35  1  0
  4 36  1  0
 10 37  1  0
 11 38  1  0
 12 39  1  0
 17 40  1  0
 18 41  1  1
 19 42  1  0
 19 43  1  0
 20 44  1  0
 20 45  1  0
 23 46  1  0
 26 47  1  0
 29 48  1  0
M  END
>  <meeko>  (328) 
{"is_sidechain": [true], "free_energy": -10.94, "intermolecular_energy": 0.0, "internal_energy": -10.94, "cluster_size": 16, "cluster_id": 1, "rank_in_cluster": 1}

>  <_RMSD_MCS_to_ref>  (328) 
0.658702765542497

$$$$
ligand
     RDKit          3D

 47 50  0  0  0  0  0  0  0  0999 V2000
   18.9090   19.1540    7.5370 C   0  0  0  0  0  0  0  0  0  0  0  0
   18.7730   17.6460    7.6780 C   0  0  0  0  0  0  0  0  0  0  0  0
   20.0310   16.9330    7.3260 C   0  0  0  0  0  0  0  0  0  0  0  0
   20.9050   16.2530    8.1510 C   0  0  0  0  0  0  0  0  0  0  0  0
   21.8870   15.8170    7.3070 N   0  0  0  0  0  0  0  0  0  0  0  0
   23.2220   14.8920    7.7620 S   0  0  0  0  0  6  0  0  0  0  0  0
   22.6780   13.6690    8.3240 O   0  0  0  0  0  0  0  0  0  0  0  0
   24.0130   14.8310    6.5410 O   0  0  0  0  0  0  0  0  0  0  0  0
   24.1330   15.7200    8.9610 C   0  0  0  0  0  0  0  0  0  0  0  0
   25.3160   16.2600    8.6180 C   0  0  0  0  0  0  0  0  0  0  0  0
   26.0410   16.9360    9.7220 C   0  0  0  0  0  0  0  0  0  0  0  0
   25.6350   17.0350   10.9510 N   0  0  0  0  0  0  0  0  0  0  0  0
   24.4270   16.4550   11.2410 C   0  0  0  0  0  0  0  0  0  0  0  0
   23.7070   16.3770   12.4190 C   0  0  0  0  0  0  0  0  0  0  0  0
   24.0420   16.9100   13.7230 C   0  0  0  0  0  0  0  0  0  0  0  0
   23.6130   16.4120   14.7590 O   0  0  0  0  0  0  0  0  0  0  0  0
   24.8640   18.0090   13.7140 N   0  0  0  0  0  0  0  0  0  0  0  0
   25.1960   18.7420   14.9220 C   0  0  1  0  0  0  0  0  0  0  0  0
   26.2270   18.0040   15.7700 C   0  0  0  0  0  0  0  0  0  0  0  0
   26.5490   18.8250   17.0090 C   0  0  0  0  0  0  0  0  0  0  0  0
   27.0150   20.2140   16.6400 C   0  0  0  0  0  0  0  0  0  0  0  0
   27.8480   20.8260   17.3000 O   0  0  0  0  0  0  0  0  0  0  0  0
   26.4330   20.7830   15.5350 N   0  0  0  0  0  0  0  0  0  0  0  0
   25.7510   20.1200   14.5450 C   0  0  0  0  0  0  0  0  0  0  0  0
   25.5950   20.6310   13.4370 O   0  0  0  0  0  0  0  0  0  0  0  0
   22.5490   15.6570   12.0670 C   0  0  0  0  0  0  0  0  0  0  0  0
   22.5240   15.3010   10.7830 N   0  0  0  0  0  0  0  0  0  0  0  0
   23.6710   15.7920   10.2640 N   0  0  0  0  0  0  0  0  0  0  0  0
   21.5920   16.1990    6.0390 C   0  0  0  0  0  0  0  0  0  0  0  0
   20.4720   16.8940    6.0180 N   0  0  0  0  0  0  0  0  0  0  0  0
   18.9504   19.6134    8.5356 H   0  0  0  0  0  0  0  0  0  0  0  0
   19.8320   19.3891    6.9867 H   0  0  0  0  0  0  0  0  0  0  0  0
   18.0430   19.5504    6.9867 H   0  0  0  0  0  0  0  0  0  0  0  0
   18.5115   17.4097    8.7200 H   0  0  0  0  0  0  0  0  0  0  0  0
   17.9890   17.3111    6.9829 H   0  0  0  0  0  0  0  0  0  0  0  0
   20.8283   16.0981    9.2373 H   0  0  0  0  0  0  0  0  0  0  0  0
   25.7164   16.2046    7.5949 H   0  0  0  0  0  0  0  0  0  0  0  0
   27.0102   17.3948    9.4769 H   0  0  0  0  0  0  0  0  0  0  0  0
   25.2598   18.3252   12.8172 H   0  0  0  0  0  0  0  0  0  0  0  0
   24.2758   18.8440   15.5159 H   0  0  0  0  0  0  0  0  0  0  0  0
   25.8208   17.0277   16.0730 H   0  0  0  0  0  0  0  0  0  0  0  0
   27.1445   17.8542   15.1820 H   0  0  0  0  0  0  0  0  0  0  0  0
   25.6457   18.9035   17.6318 H   0  0  0  0  0  0  0  0  0  0  0  0
   27.3577   18.3217   17.5591 H   0  0  0  0  0  0  0  0  0  0  0  0
   26.5158   21.8052   15.4393 H   0  0  0  0  0  0  0  0  0  0  0  0
   21.7469   15.4133   12.7792 H   0  0  0  0  0  0  0  0  0  0  0  0
   22.2010   15.9624    5.1540 H   0  0  0  0  0  0  0  0  0  0  0  0
  1  2  1  0
  2  3  1  0
  3  4  2  0
  4  5  1  0
  5  6  1  0
  6  7  2  0
  6  8  2  0
  6  9  1  0
  9 10  2  0
 10 11  1  0
 11 12  2  0
 12 13  1  0
 13 14  2  0
 14 15  1  0
 15 16  2  0
 15 17  1  0
 17 18  1  0
 18 19  1  0
 19 20  1  0
 20 21  1  0
 21 22  2  0
 21 23  1  0
 23 24  1  0
 24 25  2  0
 14 26  1  0
 26 27  2  0
 27 28  1  0
  5 29  1  0
 29 30  2  0
 30  3  1  0
 28  9  1  0
 28 13  1  0
 24 18  1  0
  1 31  1  0
  1 32  1  0
  1 33  1  0
  2 34  1  0
  2 35  1  0
  4 36  1  0
 10 37  1  0
 11 38  1  0
 17 39  1  0
 18 40  1  1
 19 41  1  0
 19 42  1  0
 20 43  1  0
 20 44  1  0
 23 45  1  0
 26 46  1  0
 29 47  1  0
M  END
>  <meeko>  (329) 
{"is_sidechain": [true], "free_energy": -10.94, "intermolecular_energy": 0.0, "internal_energy": -10.94, "cluster_size": 14, "cluster_id": 1, "rank_in_cluster": 1}

>  <_RMSD_MCS_to_ref>  (329) 
0.6298199919200903

$$$$
ligand
     RDKit          3D

 47 50  0  0  0  0  0  0  0  0999 V2000
   18.9090   19.1540    7.5370 C   0  0  0  0  0  0  0  0  0  0  0  0
   18.7730   17.6460    7.6780 C   0  0  0  0  0  0  0  0  0  0  0  0
   19.9940   16.9270    7.2250 C   0  0  0  0  0  0  0  0  0  0  0  0
   21.2260   16.8280    7.8430 C   0  0  0  0  0  0  0  0  0  0  0  0
   21.9750   16.0800    6.9820 N   0  0  0  0  0  0  0  0  0  0  0  0
   23.4790   15.3950    7.3300 S   0  0  0  0  0  6  0  0  0  0  0  0
   24.4250   16.2170    6.5970 O   0  0  0  0  0  0  0  0  0  0  0  0
   23.3140   13.9880    7.0120 O   0  0  0  0  0  0  0  0  0  0  0  0
   23.7240   15.6030    9.0420 C   0  0  0  0  0  0  0  0  0  0  0  0
   24.9350   16.2270    9.5710 C   0  0  0  0  0  0  0  0  0  0  0  0
   25.1140   16.4000   10.8950 C   0  0  0  0  0  0  0  0  0  0  0  0
   24.1050   15.9610   11.7970 C   0  0  0  0  0  0  0  0  0  0  0  0
   23.9090   15.9540   13.1630 C   0  0  0  0  0  0  0  0  0  0  0  0
   24.7910   16.4630   14.2010 C   0  0  0  0  0  0  0  0  0  0  0  0
   25.2310   15.7680   15.1120 O   0  0  0  0  0  0  0  0  0  0  0  0
   25.0970   17.7980   14.0680 N   0  0  0  0  0  0  0  0  0  0  0  0
   26.0690   18.4590   14.9210 C   0  0  2  0  0  0  0  0  0  0  0  0
   25.7730   18.2390   16.4010 C   0  0  0  0  0  0  0  0  0  0  0  0
   26.8080   18.9720   17.2400 C   0  0  0  0  0  0  0  0  0  0  0  0
   26.8590   20.4410   16.8900 C   0  0  0  0  0  0  0  0  0  0  0  0
   27.1130   21.3070   17.7210 O   0  0  0  0  0  0  0  0  0  0  0  0
   26.6370   20.7660   15.5760 N   0  0  0  0  0  0  0  0  0  0  0  0
   26.0550   19.9620   14.6270 C   0  0  0  0  0  0  0  0  0  0  0  0
   25.5730   20.4390   13.6000 O   0  0  0  0  0  0  0  0  0  0  0  0
   22.6960   15.3670   13.4310 N   0  0  0  0  0  0  0  0  0  0  0  0
   22.1360   15.0110   12.2830 N   0  0  0  0  0  0  0  0  0  0  0  0
   22.9650   15.3570   11.2690 N   0  0  0  0  0  0  0  0  0  0  0  0
   22.7780   15.1810    9.9010 C   0  0  0  0  0  0  0  0  0  0  0  0
   21.1990   15.7000    5.9330 C   0  0  0  0  0  0  0  0  0  0  0  0
   19.9910   16.2110    6.0440 N   0  0  0  0  0  0  0  0  0  0  0  0
   18.9504   19.6134    8.5356 H   0  0  0  0  0  0  0  0  0  0  0  0
   19.8320   19.3891    6.9867 H   0  0  0  0  0  0  0  0  0  0  0  0
   18.0430   19.5504    6.9867 H   0  0  0  0  0  0  0  0  0  0  0  0
   18.5912   17.4040    8.7356 H   0  0  0  0  0  0  0  0  0  0  0  0
   17.9351   17.3216    7.0434 H   0  0  0  0  0  0  0  0  0  0  0  0
   21.5330   17.2550    8.8091 H   0  0  0  0  0  0  0  0  0  0  0  0
   25.7167   16.5624    8.8735 H   0  0  0  0  0  0  0  0  0  0  0  0
   26.0304   16.8755   11.2746 H   0  0  0  0  0  0  0  0  0  0  0  0
   24.6204   18.3473   13.3386 H   0  0  0  0  0  0  0  0  0  0  0  0
   27.0570   18.0264   14.7047 H   0  0  0  0  0  0  0  0  0  0  0  0
   24.7703   18.6257   16.6357 H   0  0  0  0  0  0  0  0  0  0  0  0
   25.8135   17.1632   16.6268 H   0  0  0  0  0  0  0  0  0  0  0  0
   26.5473   18.8660   18.3034 H   0  0  0  0  0  0  0  0  0  0  0  0
   27.7952   18.5321   17.0352 H   0  0  0  0  0  0  0  0  0  0  0  0
   26.9357   21.7036   15.2717 H   0  0  0  0  0  0  0  0  0  0  0  0
   21.8631   14.7002    9.5246 H   0  0  0  0  0  0  0  0  0  0  0  0
   21.5336   15.0555    5.1067 H   0  0  0  0  0  0  0  0  0  0  0  0
  1  2  1  0
  2  3  1  0
  3  4  2  0
  4  5  1  0
  5  6  1  0
  6  7  2  0
  6  8  2  0
  6  9  1  0
  9 10  1  0
 10 11  2  0
 11 12  1  0
 12 13  2  0
 13 14  1  0
 14 15  2  0
 14 16  1  0
 16 17  1  0
 17 18  1  0
 18 19  1  0
 19 20  1  0
 20 21  2  0
 20 22  1  0
 22 23  1  0
 23 24  2  0
 13 25  1  0
 25 26  2  0
 26 27  1  0
 27 28  1  0
  5 29  1  0
 29 30  2  0
 30  3  1  0
 28  9  2  0
 27 12  1  0
 23 17  1  0
  1 31  1  0
  1 32  1  0
  1 33  1  0
  2 34  1  0
  2 35  1  0
  4 36  1  0
 10 37  1  0
 11 38  1  0
 16 39  1  0
 17 40  1  6
 18 41  1  0
 18 42  1  0
 19 43  1  0
 19 44  1  0
 22 45  1  0
 28 46  1  0
 29 47  1  0
M  END
>  <meeko>  (330) 
{"is_sidechain": [true], "free_energy": -10.94, "intermolecular_energy": 0.0, "internal_energy": -10.94, "cluster_size": 11, "cluster_id": 1, "rank_in_cluster": 1}

>  <_RMSD_MCS_to_ref>  (330) 
0.898834183200043

$$$$
ligand
     RDKit          3D

 49 52  0  0  0  0  0  0  0  0999 V2000
   18.9090   19.1540    7.5370 C   0  0  0  0  0  0  0  0  0  0  0  0
   18.7730   17.6460    7.6780 C   0  0  0  0  0  0  0  0  0  0  0  0
   20.0640   16.9430    7.4510 C   0  0  0  0  0  0  0  0  0  0  0  0
   20.7670   16.1160    8.3060 C   0  0  0  0  0  0  0  0  0  0  0  0
   21.8670   15.7470    7.5840 N   0  0  0  0  0  0  0  0  0  0  0  0
   23.1560   14.8500    8.1770 S   0  0  0  0  0  6  0  0  0  0  0  0
   24.2860   15.2950    7.3800 O   0  0  0  0  0  0  0  0  0  0  0  0
   22.7630   13.4580    8.2080 O   0  0  0  0  0  0  0  0  0  0  0  0
   23.4360   15.3870    9.8140 C   0  0  0  0  0  0  0  0  0  0  0  0
   24.4870   16.2490   10.0800 C   0  0  0  0  0  0  0  0  0  0  0  0
   24.7930   16.7110   11.3270 N   0  0  0  0  0  0  0  0  0  0  0  0
   24.0300   16.2830   12.3740 C   0  0  0  0  0  0  0  0  0  0  0  0
   24.3970   16.8050   13.7260 C   0  0  0  0  0  0  0  0  0  0  0  0
   24.1800   16.1570   14.7430 O   0  0  0  0  0  0  0  0  0  0  0  0
   24.9720   18.0530   13.7230 N   0  0  0  0  0  0  0  0  0  0  0  0
   25.2600   18.7890   14.9410 C   0  0  1  0  0  0  0  0  0  0  0  0
   26.3030   18.0820   15.8000 C   0  0  0  0  0  0  0  0  0  0  0  0
   26.5800   18.9090   17.0460 C   0  0  0  0  0  0  0  0  0  0  0  0
   27.0040   20.3150   16.6900 C   0  0  0  0  0  0  0  0  0  0  0  0
   27.8010   20.9540   17.3700 O   0  0  0  0  0  0  0  0  0  0  0  0
   26.4260   20.8670   15.5750 N   0  0  0  0  0  0  0  0  0  0  0  0
   25.7740   20.1870   14.5760 C   0  0  0  0  0  0  0  0  0  0  0  0
   25.6040   20.6960   13.4700 O   0  0  0  0  0  0  0  0  0  0  0  0
   22.9780   15.4200   12.1940 C   0  0  0  0  0  0  0  0  0  0  0  0
   22.6950   14.9820   10.9000 C   0  0  0  0  0  0  0  0  0  0  0  0
   21.5440   14.0840   10.9990 C   0  0  0  0  0  0  0  0  0  0  0  0
   21.0030   13.5290   10.0700 O   0  0  0  0  0  0  0  0  0  0  0  0
   21.1950   14.0200   12.3250 N   0  0  0  0  0  0  0  0  0  0  0  0
   22.0340   14.8260   13.1770 C   0  0  0  0  0  0  0  0  0  0  0  0
   21.8360   16.3660    6.3770 C   0  0  0  0  0  0  0  0  0  0  0  0
   20.7430   17.0910    6.2580 N   0  0  0  0  0  0  0  0  0  0  0  0
   18.9504   19.6134    8.5356 H   0  0  0  0  0  0  0  0  0  0  0  0
   19.8320   19.3891    6.9867 H   0  0  0  0  0  0  0  0  0  0  0  0
   18.0430   19.5504    6.9867 H   0  0  0  0  0  0  0  0  0  0  0  0
   18.4176   17.4155    8.6932 H   0  0  0  0  0  0  0  0  0  0  0  0
   18.0599   17.2980    6.9162 H   0  0  0  0  0  0  0  0  0  0  0  0
   20.5020   15.8221    9.3324 H   0  0  0  0  0  0  0  0  0  0  0  0
   25.1113   16.5804    9.2371 H   0  0  0  0  0  0  0  0  0  0  0  0
   25.2088   18.4847   12.8183 H   0  0  0  0  0  0  0  0  0  0  0  0
   24.3292   18.8558   15.5234 H   0  0  0  0  0  0  0  0  0  0  0  0
   25.9254   17.0916   16.0940 H   0  0  0  0  0  0  0  0  0  0  0  0
   27.2329   17.9643   15.2243 H   0  0  0  0  0  0  0  0  0  0  0  0
   25.6659   18.9543   17.6563 H   0  0  0  0  0  0  0  0  0  0  0  0
   27.3983   18.4310   17.6046 H   0  0  0  0  0  0  0  0  0  0  0  0
   26.4870   21.8906   15.4778 H   0  0  0  0  0  0  0  0  0  0  0  0
   20.4110   13.4521   12.6768 H   0  0  0  0  0  0  0  0  0  0  0  0
   21.4519   15.6030   13.6942 H   0  0  0  0  0  0  0  0  0  0  0  0
   22.5251   14.2618   13.9836 H   0  0  0  0  0  0  0  0  0  0  0  0
   22.6149   16.2750    5.6057 H   0  0  0  0  0  0  0  0  0  0  0  0
  1  2  1  0
  2  3  1  0
  3  4  2  0
  4  5  1  0
  5  6  1  0
  6  7  2  0
  6  8  2  0
  6  9  1  0
  9 10  2  0
 10 11  1  0
 11 12  2  0
 12 13  1  0
 13 14  2  0
 13 15  1  0
 15 16  1  0
 16 17  1  0
 17 18  1  0
 18 19  1  0
 19 20  2  0
 19 21  1  0
 21 22  1  0
 22 23  2  0
 12 24  1  0
 24 25  2  0
 25 26  1  0
 26 27  2  0
 26 28  1  0
 28 29  1  0
  5 30  1  0
 30 31  2  0
 31  3  1  0
 25  9  1  0
 22 16  1  0
 29 24  1  0
  1 32  1  0
  1 33  1  0
  1 34  1  0
  2 35  1  0
  2 36  1  0
  4 37  1  0
 10 38  1  0
 15 39  1  0
 16 40  1  1
 17 41  1  0
 17 42  1  0
 18 43  1  0
 18 44  1  0
 21 45  1  0
 28 46  1  0
 29 47  1  0
 29 48  1  0
 30 49  1  0
M  END
>  <meeko>  (331) 
{"is_sidechain": [true], "free_energy": -10.94, "intermolecular_energy": 0.0, "internal_energy": -10.94, "cluster_size": 17, "cluster_id": 1, "rank_in_cluster": 1}

>  <_RMSD_MCS_to_ref>  (331) 
0.6920711267235797

$$$$
ligand
     RDKit          3D

 48 51  0  0  0  0  0  0  0  0999 V2000
   18.9090   19.1540    7.5370 C   0  0  0  0  0  0  0  0  0  0  0  0
   18.7730   17.6460    7.6780 C   0  0  0  0  0  0  0  0  0  0  0  0
   20.0930   16.9580    7.6640 C   0  0  0  0  0  0  0  0  0  0  0  0
   20.9540   16.7110    8.7140 C   0  0  0  0  0  0  0  0  0  0  0  0
   21.9960   16.0360    8.1410 N   0  0  0  0  0  0  0  0  0  0  0  0
   23.4450   15.6510    8.8970 S   0  0  0  0  0  6  0  0  0  0  0  0
   23.8440   14.3750    8.3320 O   0  0  0  0  0  0  0  0  0  0  0  0
   24.2860   16.8260    8.7940 O   0  0  0  0  0  0  0  0  0  0  0  0
   22.9750   15.4030   10.5960 C   0  0  0  0  0  0  0  0  0  0  0  0
   23.8350   15.9230   11.5810 C   0  0  0  0  0  0  0  0  0  0  0  0
   23.5470   15.7580   12.9330 C   0  0  0  0  0  0  0  0  0  0  0  0
   24.5080   16.3060   13.9290 C   0  0  0  0  0  0  0  0  0  0  0  0
   25.0430   15.5590   14.7390 O   0  0  0  0  0  0  0  0  0  0  0  0
   24.7660   17.6550   13.8610 N   0  0  0  0  0  0  0  0  0  0  0  0
   25.8070   18.2610   14.6820 C   0  0  2  0  0  0  0  0  0  0  0  0
   25.6230   17.9590   16.1660 C   0  0  0  0  0  0  0  0  0  0  0  0
   26.7140   18.6560   16.9640 C   0  0  0  0  0  0  0  0  0  0  0  0
   26.7320   20.1410   16.6890 C   0  0  0  0  0  0  0  0  0  0  0  0
   27.0270   20.9670   17.5490 O   0  0  0  0  0  0  0  0  0  0  0  0
   26.4260   20.5340   15.4110 N   0  0  0  0  0  0  0  0  0  0  0  0
   25.7670   19.7780   14.4740 C   0  0  0  0  0  0  0  0  0  0  0  0
   25.1910   20.3020   13.5200 O   0  0  0  0  0  0  0  0  0  0  0  0
   22.4020   15.0590   13.3260 C   0  0  0  0  0  0  0  0  0  0  0  0
   21.5390   14.5490   12.3330 C   0  0  0  0  0  0  0  0  0  0  0  0
   20.0850   13.6660   12.6240 S   0  0  0  0  0  0  0  0  0  0  0  0
   19.7630   13.5080   10.9630 C   0  0  0  0  0  0  0  0  0  0  0  0
   20.7350   14.1020   10.1930 C   0  0  0  0  0  0  0  0  0  0  0  0
   21.7900   14.7100   10.9640 C   0  0  0  0  0  0  0  0  0  0  0  0
   21.7750   15.9290    6.8070 C   0  0  0  0  0  0  0  0  0  0  0  0
   20.6220   16.4740    6.4830 N   0  0  0  0  0  0  0  0  0  0  0  0
   18.9504   19.6134    8.5356 H   0  0  0  0  0  0  0  0  0  0  0  0
   19.8320   19.3891    6.9867 H   0  0  0  0  0  0  0  0  0  0  0  0
   18.0430   19.5504    6.9867 H   0  0  0  0  0  0  0  0  0  0  0  0
   18.2677   17.4234    8.6294 H   0  0  0  0  0  0  0  0  0  0  0  0
   18.1915   17.2779    6.8198 H   0  0  0  0  0  0  0  0  0  0  0  0
   20.8303   16.9927    9.7701 H   0  0  0  0  0  0  0  0  0  0  0  0
   24.7435   16.4651   11.2798 H   0  0  0  0  0  0  0  0  0  0  0  0
   24.2160   18.2455   13.2210 H   0  0  0  0  0  0  0  0  0  0  0  0
   26.7745   17.8376   14.3743 H   0  0  0  0  0  0  0  0  0  0  0  0
   24.6385   18.3231   16.4950 H   0  0  0  0  0  0  0  0  0  0  0  0
   25.6857   16.8731   16.3298 H   0  0  0  0  0  0  0  0  0  0  0  0
   26.5333   18.4925   18.0367 H   0  0  0  0  0  0  0  0  0  0  0  0
   27.6854   18.2358   16.6643 H   0  0  0  0  0  0  0  0  0  0  0  0
   26.7167   21.4811   15.1293 H   0  0  0  0  0  0  0  0  0  0  0  0
   22.1774   14.9089   14.3923 H   0  0  0  0  0  0  0  0  0  0  0  0
   18.8823   12.9922   10.5528 H   0  0  0  0  0  0  0  0  0  0  0  0
   20.7098   14.1122    9.0933 H   0  0  0  0  0  0  0  0  0  0  0  0
   22.4644   15.4525    6.0945 H   0  0  0  0  0  0  0  0  0  0  0  0
  1  2  1  0
  2  3  1  0
  3  4  2  0
  4  5  1  0
  5  6  1  0
  6  7  2  0
  6  8  2  0
  6  9  1  0
  9 10  2  0
 10 11  1  0
 11 12  1  0
 12 13  2  0
 12 14  1  0
 14 15  1  0
 15 16  1  0
 16 17  1  0
 17 18  1  0
 18 19  2  0
 18 20  1  0
 20 21  1  0
 21 22  2  0
 11 23  2  0
 23 24  1  0
 24 25  1  0
 25 26  1  0
 26 27  2  0
 27 28  1  0
  5 29  1  0
 29 30  2  0
 30  3  1  0
 28  9  1  0
 21 15  1  0
 28 24  2  0
  1 31  1  0
  1 32  1  0
  1 33  1  0
  2 34  1  0
  2 35  1  0
  4 36  1  0
 10 37  1  0
 14 38  1  0
 15 39  1  6
 16 40  1  0
 16 41  1  0
 17 42  1  0
 17 43  1  0
 20 44  1  0
 23 45  1  0
 26 46  1  0
 27 47  1  0
 29 48  1  0
M  END
>  <meeko>  (332) 
{"is_sidechain": [true], "free_energy": -10.94, "intermolecular_energy": 0.0, "internal_energy": -10.94, "cluster_size": 20, "cluster_id": 1, "rank_in_cluster": 1}

>  <_RMSD_MCS_to_ref>  (332) 
0.5871871743982294

$$$$
ligand
     RDKit          3D

 53 56  0  0  0  0  0  0  0  0999 V2000
   18.9090   19.1540    7.5370 C   0  0  0  0  0  0  0  0  0  0  0  0
   18.7730   17.6460    7.6780 C   0  0  0  0  0  0  0  0  0  0  0  0
   20.0930   16.9600    7.6660 C   0  0  0  0  0  0  0  0  0  0  0  0
   21.0120   16.8270    8.6880 C   0  0  0  0  0  0  0  0  0  0  0  0
   22.0390   16.1250    8.1260 N   0  0  0  0  0  0  0  0  0  0  0  0
   23.3360   15.4500    8.9550 S   0  0  0  0  0  6  0  0  0  0  0  0
   23.5670   14.1560    8.3390 O   0  0  0  0  0  0  0  0  0  0  0  0
   24.3610   16.4740    9.0030 O   0  0  0  0  0  0  0  0  0  0  0  0
   22.6980   15.2090   10.5900 C   0  0  0  0  0  0  0  0  0  0  0  0
   23.3880   15.8180   11.6490 C   0  0  0  0  0  0  0  0  0  0  0  0
   22.9230   15.6890   12.9620 C   0  0  0  0  0  0  0  0  0  0  0  0
   23.6810   16.3710   14.0470 C   0  0  0  0  0  0  0  0  0  0  0  0
   23.9930   15.7510   15.0570 O   0  0  0  0  0  0  0  0  0  0  0  0
   23.9690   17.7030   13.8600 N   0  0  0  0  0  0  0  0  0  0  0  0
   24.5600   18.4990   14.9280 C   0  0  1  0  0  0  0  0  0  0  0  0
   25.7130   17.7780   15.6200 C   0  0  0  0  0  0  0  0  0  0  0  0
   26.3100   18.6840   16.6870 C   0  0  0  0  0  0  0  0  0  0  0  0
   26.7440   20.0060   16.1000 C   0  0  0  0  0  0  0  0  0  0  0  0
   27.7260   20.6190   16.5110 O   0  0  0  0  0  0  0  0  0  0  0  0
   25.9670   20.5170   15.0920 N   0  0  0  0  0  0  0  0  0  0  0  0
   25.0850   19.8040   14.3200 C   0  0  0  0  0  0  0  0  0  0  0  0
   24.7350   20.2050   13.2100 O   0  0  0  0  0  0  0  0  0  0  0  0
   21.7590   14.9560   13.2120 C   0  0  0  0  0  0  0  0  0  0  0  0
   21.0640   14.3450   12.1550 C   0  0  0  0  0  0  0  0  0  0  0  0
   21.5380   14.4640   10.8360 C   0  0  0  0  0  0  0  0  0  0  0  0
   20.8290   13.8050    9.8190 N   0  0  0  0  0  0  0  0  0  0  0  0
   19.5990   13.2200    9.9710 C   0  0  0  0  0  0  0  0  0  0  0  0
   19.0710   12.6060    9.0490 O   0  0  0  0  0  0  0  0  0  0  0  0
   18.8940   13.4770   11.2780 C   0  0  0  0  0  0  0  0  0  0  0  0
   19.8700   13.4710   12.4400 C   0  0  0  0  0  0  0  0  0  0  0  0
   21.7190   15.8170    6.8420 C   0  0  0  0  0  0  0  0  0  0  0  0
   20.5440   16.3200    6.5280 N   0  0  0  0  0  0  0  0  0  0  0  0
   18.9504   19.6134    8.5356 H   0  0  0  0  0  0  0  0  0  0  0  0
   19.8320   19.3891    6.9867 H   0  0  0  0  0  0  0  0  0  0  0  0
   18.0430   19.5504    6.9867 H   0  0  0  0  0  0  0  0  0  0  0  0
   18.2664   17.4232    8.6287 H   0  0  0  0  0  0  0  0  0  0  0  0
   18.1925   17.2772    6.8195 H   0  0  0  0  0  0  0  0  0  0  0  0
   20.9343   17.2013    9.7194 H   0  0  0  0  0  0  0  0  0  0  0  0
   24.2992   16.3998   11.4458 H   0  0  0  0  0  0  0  0  0  0  0  0
   23.7640   18.1441   12.9521 H   0  0  0  0  0  0  0  0  0  0  0  0
   23.7843   18.6862   15.6851 H   0  0  0  0  0  0  0  0  0  0  0  0
   25.3400   16.8555   16.0890 H   0  0  0  0  0  0  0  0  0  0  0  0
   26.4856   17.5258   14.8787 H   0  0  0  0  0  0  0  0  0  0  0  0
   25.5548   18.8676   17.4654 H   0  0  0  0  0  0  0  0  0  0  0  0
   27.1929   18.1854   17.1134 H   0  0  0  0  0  0  0  0  0  0  0  0
   26.0532   21.5248   14.8974 H   0  0  0  0  0  0  0  0  0  0  0  0
   21.3854   14.8572   14.2419 H   0  0  0  0  0  0  0  0  0  0  0  0
   21.2666   13.7576    8.8878 H   0  0  0  0  0  0  0  0  0  0  0  0
   18.3983   14.4579   11.2312 H   0  0  0  0  0  0  0  0  0  0  0  0
   18.1570   12.6764   11.4388 H   0  0  0  0  0  0  0  0  0  0  0  0
   19.3588   13.8445   13.3396 H   0  0  0  0  0  0  0  0  0  0  0  0
   20.2222   12.4402   12.5930 H   0  0  0  0  0  0  0  0  0  0  0  0
   22.3526   15.2300    6.1609 H   0  0  0  0  0  0  0  0  0  0  0  0
  1  2  1  0
  2  3  1  0
  3  4  2  0
  4  5  1  0
  5  6  1  0
  6  7  2  0
  6  8  2  0
  6  9  1  0
  9 10  2  0
 10 11  1  0
 11 12  1  0
 12 13  2  0
 12 14  1  0
 14 15  1  0
 15 16  1  0
 16 17  1  0
 17 18  1  0
 18 19  2  0
 18 20  1  0
 20 21  1  0
 21 22  2  0
 11 23  2  0
 23 24  1  0
 24 25  2  0
 25 26  1  0
 26 27  1  0
 27 28  2  0
 27 29  1  0
 29 30  1  0
  5 31  1  0
 31 32  2  0
 32  3  1  0
 25  9  1  0
 21 15  1  0
 30 24  1  0
  1 33  1  0
  1 34  1  0
  1 35  1  0
  2 36  1  0
  2 37  1  0
  4 38  1  0
 10 39  1  0
 14 40  1  0
 15 41  1  1
 16 42  1  0
 16 43  1  0
 17 44  1  0
 17 45  1  0
 20 46  1  0
 23 47  1  0
 26 48  1  0
 29 49  1  0
 29 50  1  0
 30 51  1  0
 30 52  1  0
 31 53  1  0
M  END
>  <meeko>  (333) 
{"is_sidechain": [true], "free_energy": -10.94, "intermolecular_energy": 0.0, "internal_energy": -10.94, "cluster_size": 20, "cluster_id": 1, "rank_in_cluster": 1}

>  <_RMSD_MCS_to_ref>  (333) 
0.4280216765019679

$$$$
ligand
     RDKit          3D

 52 56  0  0  0  0  0  0  0  0999 V2000
   18.9090   19.1540    7.5370 C   0  0  0  0  0  0  0  0  0  0  0  0
   18.7730   17.6460    7.6780 C   0  0  0  0  0  0  0  0  0  0  0  0
   20.0300   16.9330    7.3220 C   0  0  0  0  0  0  0  0  0  0  0  0
   21.1950   16.8050    8.0520 C   0  0  0  0  0  0  0  0  0  0  0  0
   22.0030   16.0380    7.2630 N   0  0  0  0  0  0  0  0  0  0  0  0
   23.6480   15.7920    7.5060 S   0  0  0  0  0  6  0  0  0  0  0  0
   24.0430   16.7260    8.5380 O   0  0  0  0  0  0  0  0  0  0  0  0
   24.2340   15.7590    6.1840 O   0  0  0  0  0  0  0  0  0  0  0  0
   23.8950   14.2140    8.1840 C   0  0  0  0  0  0  0  0  0  0  0  0
   24.1160   13.0020    7.5590 C   0  0  0  0  0  0  0  0  0  0  0  0
   24.4320   12.0520    8.4680 N   0  0  0  0  0  0  0  0  0  0  0  0
   24.4190   12.6220    9.6580 N   0  0  0  0  0  0  0  0  0  0  0  0
   24.0010   13.9160    9.5340 N   0  0  0  0  0  0  0  0  0  0  0  0
   23.7550   14.6600   10.7300 C   0  0  0  0  0  0  0  0  0  0  0  0
   22.4990   14.6740   11.3760 C   0  0  0  0  0  0  0  0  0  0  0  0
   22.3000   15.4120   12.5510 C   0  0  0  0  0  0  0  0  0  0  0  0
   23.3740   16.1090   13.0650 C   0  0  0  0  0  0  0  0  0  0  0  0
   24.6260   16.0970   12.4650 C   0  0  0  0  0  0  0  0  0  0  0  0
   24.8350   15.3750   11.3010 C   0  0  0  0  0  0  0  0  0  0  0  0
   25.5750   16.9470   13.2430 C   0  0  0  0  0  0  0  0  0  0  0  0
   24.7680   17.3570   14.3860 N   0  0  0  0  0  0  0  0  0  0  0  0
   25.1690   18.4030   15.3200 C   0  0  1  0  0  0  0  0  0  0  0  0
   26.1260   17.8930   16.3920 C   0  0  0  0  0  0  0  0  0  0  0  0
   26.4260   19.0140   17.3760 C   0  0  0  0  0  0  0  0  0  0  0  0
   26.9670   20.2320   16.6670 C   0  0  0  0  0  0  0  0  0  0  0  0
   27.8260   20.9540   17.1650 O   0  0  0  0  0  0  0  0  0  0  0  0
   26.4370   20.5100   15.4330 N   0  0  0  0  0  0  0  0  0  0  0  0
   25.8110   19.6040   14.6060 C   0  0  0  0  0  0  0  0  0  0  0  0
   25.8020   19.7790   13.3900 O   0  0  0  0  0  0  0  0  0  0  0  0
   23.4480   16.9470   14.2660 C   0  0  0  0  0  0  0  0  0  0  0  0
   22.5130   17.2080   14.9970 O   0  0  0  0  0  0  0  0  0  0  0  0
   21.3640   15.7710    6.0960 C   0  0  0  0  0  0  0  0  0  0  0  0
   20.1560   16.2970    6.1030 N   0  0  0  0  0  0  0  0  0  0  0  0
   18.9504   19.6134    8.5356 H   0  0  0  0  0  0  0  0  0  0  0  0
   19.8320   19.3891    6.9867 H   0  0  0  0  0  0  0  0  0  0  0  0
   18.0430   19.5504    6.9867 H   0  0  0  0  0  0  0  0  0  0  0  0
   18.5146   17.4095    8.7207 H   0  0  0  0  0  0  0  0  0  0  0  0
   17.9868   17.3113    6.9852 H   0  0  0  0  0  0  0  0  0  0  0  0
   21.4206   17.2252    9.0432 H   0  0  0  0  0  0  0  0  0  0  0  0
   24.0449   12.8334    6.4743 H   0  0  0  0  0  0  0  0  0  0  0  0
   21.6645   14.0971   10.9507 H   0  0  0  0  0  0  0  0  0  0  0  0
   21.3187   15.4347   13.0475 H   0  0  0  0  0  0  0  0  0  0  0  0
   25.8274   15.3577   10.8268 H   0  0  0  0  0  0  0  0  0  0  0  0
   26.4543   16.3693   13.5641 H   0  0  0  0  0  0  0  0  0  0  0  0
   25.9800   17.7920   12.6668 H   0  0  0  0  0  0  0  0  0  0  0  0
   24.2378   18.7301   15.8057 H   0  0  0  0  0  0  0  0  0  0  0  0
   25.6633   17.0499   16.9260 H   0  0  0  0  0  0  0  0  0  0  0  0
   27.0615   17.5579   15.9202 H   0  0  0  0  0  0  0  0  0  0  0  0
   25.4995   19.2871   17.9023 H   0  0  0  0  0  0  0  0  0  0  0  0
   27.1858   18.6589   18.0877 H   0  0  0  0  0  0  0  0  0  0  0  0
   26.5138   21.4801   15.0956 H   0  0  0  0  0  0  0  0  0  0  0  0
   21.7938   15.1966    5.2621 H   0  0  0  0  0  0  0  0  0  0  0  0
  1  2  1  0
  2  3  1  0
  3  4  2  0
  4  5  1  0
  5  6  1  0
  6  7  2  0
  6  8  2  0
  6  9  1  0
  9 10  2  0
 10 11  1  0
 11 12  2  0
 12 13  1  0
 13 14  1  0
 14 15  2  0
 15 16  1  0
 16 17  2  0
 17 18  1  0
 18 19  2  0
 18 20  1  0
 20 21  1  0
 21 22  1  0
 22 23  1  0
 23 24  1  0
 24 25  1  0
 25 26  2  0
 25 27  1  0
 27 28  1  0
 28 29  2  0
 21 30  1  0
 30 31  2  0
  5 32  1  0
 32 33  2  0
 33  3  1  0
 13  9  1  0
 19 14  1  0
 28 22  1  0
 30 17  1  0
  1 34  1  0
  1 35  1  0
  1 36  1  0
  2 37  1  0
  2 38  1  0
  4 39  1  0
 10 40  1  0
 15 41  1  0
 16 42  1  0
 19 43  1  0
 20 44  1  0
 20 45  1  0
 22 46  1  1
 23 47  1  0
 23 48  1  0
 24 49  1  0
 24 50  1  0
 27 51  1  0
 32 52  1  0
M  END
>  <meeko>  (334) 
{"is_sidechain": [true], "free_energy": -10.94, "intermolecular_energy": 0.0, "internal_energy": -10.94, "cluster_size": 20, "cluster_id": 1, "rank_in_cluster": 1}

>  <_RMSD_MCS_to_ref>  (334) 
1.138695452407417

$$$$
ligand
     RDKit          3D

 53 57  0  0  0  0  0  0  0  0999 V2000
   18.8250   19.0170    7.5350 C   0  0  0  0  0  0  0  0  0  0  0  0
   18.5200   17.5420    7.7330 C   0  0  0  0  0  0  0  0  0  0  0  0
   19.7120   16.6840    7.4910 C   0  0  0  0  0  0  0  0  0  0  0  0
   20.6140   16.1730    8.4030 C   0  0  0  0  0  0  0  0  0  0  0  0
   21.4940   15.4600    7.6390 N   0  0  0  0  0  0  0  0  0  0  0  0
   22.8360   14.6340    8.2140 S   0  0  0  0  0  6  0  0  0  0  0  0
   23.9460   14.9480    7.3370 O   0  0  0  0  0  0  0  0  0  0  0  0
   22.3640   13.2730    8.3900 O   0  0  0  0  0  0  0  0  0  0  0  0
   23.1840   15.3150    9.8230 C   0  0  0  0  0  0  0  0  0  0  0  0
   22.0990   15.3840   10.7350 C   0  0  0  0  0  0  0  0  0  0  0  0
   22.2730   15.9090   12.0150 C   0  0  0  0  0  0  0  0  0  0  0  0
   23.5380   16.3420   12.3550 C   0  0  0  0  0  0  0  0  0  0  0  0
   24.6220   16.2760   11.4800 C   0  0  0  0  0  0  0  0  0  0  0  0
   24.4690   15.7620   10.1920 C   0  0  0  0  0  0  0  0  0  0  0  0
   25.6240   15.7110    9.3300 C   0  0  0  0  0  0  0  0  0  0  0  0
   26.6420   14.7440    9.1940 C   0  0  0  0  0  0  0  0  0  0  0  0
   27.5460   15.0930    8.2760 N   0  0  0  0  0  0  0  0  0  0  0  0
   27.1040   16.2760    7.8160 N   0  0  0  0  0  0  0  0  0  0  0  0
   25.9740   16.7100    8.4500 C   0  0  0  0  0  0  0  0  0  0  0  0
   25.8380   16.8300   12.1540 C   0  0  0  0  0  0  0  0  0  0  0  0
   25.3630   17.1170   13.5000 N   0  0  0  0  0  0  0  0  0  0  0  0
   26.1680   17.9020   14.4310 C   0  0  2  0  0  0  0  0  0  0  0  0
   25.7400   17.7590   15.8910 C   0  0  0  0  0  0  0  0  0  0  0  0
   26.6810   18.5660   16.7730 C   0  0  0  0  0  0  0  0  0  0  0  0
   26.7180   20.0170   16.3510 C   0  0  0  0  0  0  0  0  0  0  0  0
   27.0400   20.9150   17.1220 O   0  0  0  0  0  0  0  0  0  0  0  0
   26.4510   20.2830   15.0300 N   0  0  0  0  0  0  0  0  0  0  0  0
   26.1980   19.3830   14.0210 C   0  0  0  0  0  0  0  0  0  0  0  0
   26.1070   19.7650   12.8550 O   0  0  0  0  0  0  0  0  0  0  0  0
   23.9950   16.9330   13.6170 C   0  0  0  0  0  0  0  0  0  0  0  0
   23.2670   17.2100   14.5480 O   0  0  0  0  0  0  0  0  0  0  0  0
   21.1070   15.5170    6.3400 C   0  0  0  0  0  0  0  0  0  0  0  0
   20.0410   16.2820    6.2110 N   0  0  0  0  0  0  0  0  0  0  0  0
   18.9260   19.5054    8.5155 H   0  0  0  0  0  0  0  0  0  0  0  0
   19.7645   19.1250    6.9731 H   0  0  0  0  0  0  0  0  0  0  0  0
   18.0054   19.4887    6.9731 H   0  0  0  0  0  0  0  0  0  0  0  0
   18.1758   17.3870    8.7662 H   0  0  0  0  0  0  0  0  0  0  0  0
   17.7454   17.2568    7.0060 H   0  0  0  0  0  0  0  0  0  0  0  0
   20.6222   16.3088    9.4945 H   0  0  0  0  0  0  0  0  0  0  0  0
   21.1079   15.0186   10.4282 H   0  0  0  0  0  0  0  0  0  0  0  0
   21.4355   15.9752   12.7250 H   0  0  0  0  0  0  0  0  0  0  0  0
   26.6857   13.8117    9.7762 H   0  0  0  0  0  0  0  0  0  0  0  0
   27.5695   16.8018    7.0625 H   0  0  0  0  0  0  0  0  0  0  0  0
   25.4503   17.6640    8.2897 H   0  0  0  0  0  0  0  0  0  0  0  0
   26.6522   16.0905   12.1712 H   0  0  0  0  0  0  0  0  0  0  0  0
   26.2535   17.7113   11.6434 H   0  0  0  0  0  0  0  0  0  0  0  0
   27.1844   17.4861   14.3673 H   0  0  0  0  0  0  0  0  0  0  0  0
   24.7126   18.1334   16.0110 H   0  0  0  0  0  0  0  0  0  0  0  0
   25.7789   16.6994   16.1840 H   0  0  0  0  0  0  0  0  0  0  0  0
   26.3361   18.5045   17.8157 H   0  0  0  0  0  0  0  0  0  0  0  0
   27.6940   18.1490   16.6736 H   0  0  0  0  0  0  0  0  0  0  0  0
   26.4388   21.2776   14.7625 H   0  0  0  0  0  0  0  0  0  0  0  0
   21.6113   14.9983    5.5114 H   0  0  0  0  0  0  0  0  0  0  0  0
  1  2  1  0
  2  3  1  0
  3  4  2  0
  4  5  1  0
  5  6  1  0
  6  7  2  0
  6  8  2  0
  6  9  1  0
  9 10  2  0
 10 11  1  0
 11 12  2  0
 12 13  1  0
 13 14  2  0
 14 15  1  0
 15 16  1  0
 16 17  2  0
 17 18  1  0
 18 19  1  0
 13 20  1  0
 20 21  1  0
 21 22  1  0
 22 23  1  0
 23 24  1  0
 24 25  1  0
 25 26  2  0
 25 27  1  0
 27 28  1  0
 28 29  2  0
 21 30  1  0
 30 31  2  0
  5 32  1  0
 32 33  2  0
 33  3  1  0
 14  9  1  0
 19 15  2  0
 28 22  1  0
 30 12  1  0
  1 34  1  0
  1 35  1  0
  1 36  1  0
  2 37  1  0
  2 38  1  0
  4 39  1  0
 10 40  1  0
 11 41  1  0
 16 42  1  0
 18 43  1  0
 19 44  1  0
 20 45  1  0
 20 46  1  0
 22 47  1  1
 23 48  1  0
 23 49  1  0
 24 50  1  0
 24 51  1  0
 27 52  1  0
 32 53  1  0
M  END
>  <meeko>  (335) 
{"is_sidechain": [true], "free_energy": -10.93, "intermolecular_energy": 0.0, "internal_energy": -10.93, "cluster_size": 7, "cluster_id": 1, "rank_in_cluster": 1}

>  <_RMSD_MCS_to_ref>  (335) 
0.8387064775924623

$$$$
ligand
     RDKit          3D

 49 52  0  0  0  0  0  0  0  0999 V2000
   18.9090   19.1540    7.5370 C   0  0  0  0  0  0  0  0  0  0  0  0
   18.7730   17.6460    7.6780 C   0  0  0  0  0  0  0  0  0  0  0  0
   20.0920   16.9580    7.6530 C   0  0  0  0  0  0  0  0  0  0  0  0
   20.9600   16.7040    8.6960 C   0  0  0  0  0  0  0  0  0  0  0  0
   21.9940   16.0290    8.1140 N   0  0  0  0  0  0  0  0  0  0  0  0
   23.4500   15.6340    8.8550 S   0  0  0  0  0  6  0  0  0  0  0  0
   23.8640   14.3800    8.2570 O   0  0  0  0  0  0  0  0  0  0  0  0
   24.2680   16.8300    8.8010 O   0  0  0  0  0  0  0  0  0  0  0  0
   22.9940   15.3340   10.5420 C   0  0  0  0  0  0  0  0  0  0  0  0
   23.6430   16.0380   11.5640 C   0  0  0  0  0  0  0  0  0  0  0  0
   23.2970   15.8190   12.9060 C   0  0  0  0  0  0  0  0  0  0  0  0
   23.9420   16.5300   14.0450 C   0  0  0  0  0  0  0  0  0  0  0  0
   24.0870   15.9640   15.1240 O   0  0  0  0  0  0  0  0  0  0  0  0
   24.3200   17.8370   13.8340 N   0  0  0  0  0  0  0  0  0  0  0  0
   24.8220   18.6580   14.9300 C   0  0  1  0  0  0  0  0  0  0  0  0
   25.9140   17.9510   15.7260 C   0  0  0  0  0  0  0  0  0  0  0  0
   26.4200   18.8760   16.8220 C   0  0  0  0  0  0  0  0  0  0  0  0
   26.9020   20.1890   16.2530 C   0  0  0  0  0  0  0  0  0  0  0  0
   27.8380   20.8150   16.7410 O   0  0  0  0  0  0  0  0  0  0  0  0
   26.2190   20.6760   15.1680 N   0  0  0  0  0  0  0  0  0  0  0  0
   25.3920   19.9540   14.3440 C   0  0  0  0  0  0  0  0  0  0  0  0
   25.1200   20.3450   13.2100 O   0  0  0  0  0  0  0  0  0  0  0  0
   22.3030   14.8550   13.1630 C   0  0  0  0  0  0  0  0  0  0  0  0
   21.7920   14.4080   14.3660 N   0  0  0  0  0  0  0  0  0  0  0  0
   20.8190   13.4730   14.1490 C   0  0  0  0  0  0  0  0  0  0  0  0
   20.6970   13.2990   12.7890 C   0  0  0  0  0  0  0  0  0  0  0  0
   21.6360   14.1590   12.1550 C   0  0  0  0  0  0  0  0  0  0  0  0
   21.9760   14.4090   10.8150 C   0  0  0  0  0  0  0  0  0  0  0  0
   21.7690   15.9320    6.7780 C   0  0  0  0  0  0  0  0  0  0  0  0
   20.6130   16.4790    6.4660 N   0  0  0  0  0  0  0  0  0  0  0  0
   18.9504   19.6134    8.5356 H   0  0  0  0  0  0  0  0  0  0  0  0
   19.8320   19.3891    6.9867 H   0  0  0  0  0  0  0  0  0  0  0  0
   18.0430   19.5504    6.9867 H   0  0  0  0  0  0  0  0  0  0  0  0
   18.2752   17.4230    8.6332 H   0  0  0  0  0  0  0  0  0  0  0  0
   18.1843   17.2787    6.8244 H   0  0  0  0  0  0  0  0  0  0  0  0
   20.8448   16.9820    9.7540 H   0  0  0  0  0  0  0  0  0  0  0  0
   24.4281   16.7665   11.3133 H   0  0  0  0  0  0  0  0  0  0  0  0
   24.2473   18.2405   12.8891 H   0  0  0  0  0  0  0  0  0  0  0  0
   23.9871   18.8608   15.6169 H   0  0  0  0  0  0  0  0  0  0  0  0
   25.5042   17.0359   16.1784 H   0  0  0  0  0  0  0  0  0  0  0  0
   26.7450   17.6872   15.0553 H   0  0  0  0  0  0  0  0  0  0  0  0
   25.6025   19.0716   17.5315 H   0  0  0  0  0  0  0  0  0  0  0  0
   27.2651   18.3856   17.3273 H   0  0  0  0  0  0  0  0  0  0  0  0
   26.3376   21.6760   14.9514 H   0  0  0  0  0  0  0  0  0  0  0  0
   22.1001   14.7328   15.2936 H   0  0  0  0  0  0  0  0  0  0  0  0
   20.2369   12.9521   14.9235 H   0  0  0  0  0  0  0  0  0  0  0  0
   19.9982   12.6167   12.2829 H   0  0  0  0  0  0  0  0  0  0  0  0
   21.4546   13.8901    9.9971 H   0  0  0  0  0  0  0  0  0  0  0  0
   22.4558   15.4626    6.0583 H   0  0  0  0  0  0  0  0  0  0  0  0
  1  2  1  0
  2  3  1  0
  3  4  2  0
  4  5  1  0
  5  6  1  0
  6  7  2  0
  6  8  2  0
  6  9  1  0
  9 10  2  0
 10 11  1  0
 11 12  1  0
 12 13  2  0
 12 14  1  0
 14 15  1  0
 15 16  1  0
 16 17  1  0
 17 18  1  0
 18 19  2  0
 18 20  1  0
 20 21  1  0
 21 22  2  0
 11 23  2  0
 23 24  1  0
 24 25  1  0
 25 26  2  0
 26 27  1  0
 27 28  2  0
  5 29  1  0
 29 30  2  0
 30  3  1  0
 28  9  1  0
 21 15  1  0
 27 23  1  0
  1 31  1  0
  1 32  1  0
  1 33  1  0
  2 34  1  0
  2 35  1  0
  4 36  1  0
 10 37  1  0
 14 38  1  0
 15 39  1  1
 16 40  1  0
 16 41  1  0
 17 42  1  0
 17 43  1  0
 20 44  1  0
 24 45  1  0
 25 46  1  0
 26 47  1  0
 28 48  1  0
 29 49  1  0
M  END
>  <meeko>  (336) 
{"is_sidechain": [true], "free_energy": -10.93, "intermolecular_energy": 0.0, "internal_energy": -10.93, "cluster_size": 20, "cluster_id": 1, "rank_in_cluster": 1}

>  <_RMSD_MCS_to_ref>  (336) 
0.41965119444605486

$$$$
ligand
     RDKit          3D

 48 51  0  0  0  0  0  0  0  0999 V2000
   18.9090   19.1540    7.5370 C   0  0  0  0  0  0  0  0  0  0  0  0
   18.7730   17.6460    7.6780 C   0  0  0  0  0  0  0  0  0  0  0  0
   19.9080   16.9180    7.0470 C   0  0  0  0  0  0  0  0  0  0  0  0
   20.8550   16.1070    7.6390 C   0  0  0  0  0  0  0  0  0  0  0  0
   21.6590   15.7210    6.6050 N   0  0  0  0  0  0  0  0  0  0  0  0
   22.9140   14.6170    6.6860 S   0  0  0  0  0  6  0  0  0  0  0  0
   23.4780   14.5330    5.3520 O   0  0  0  0  0  0  0  0  0  0  0  0
   22.4010   13.4610    7.3960 O   0  0  0  0  0  0  0  0  0  0  0  0
   24.1820   15.2460    7.6860 C   0  0  0  0  0  0  0  0  0  0  0  0
   25.4310   15.4860    7.2460 N   0  0  0  0  0  0  0  0  0  0  0  0
   26.0580   15.9690    8.3350 N   0  0  0  0  0  0  0  0  0  0  0  0
   25.2680   16.0410    9.4510 C   0  0  0  0  0  0  0  0  0  0  0  0
   25.5440   16.4750   10.7520 C   0  0  0  0  0  0  0  0  0  0  0  0
   24.5000   16.4220   11.6910 C   0  0  0  0  0  0  0  0  0  0  0  0
   24.7940   16.8890   13.0760 C   0  0  0  0  0  0  0  0  0  0  0  0
   24.6830   16.1210   14.0250 O   0  0  0  0  0  0  0  0  0  0  0  0
   25.1500   18.2110   13.2240 N   0  0  0  0  0  0  0  0  0  0  0  0
   25.3070   18.8030   14.5450 C   0  0  1  0  0  0  0  0  0  0  0  0
   26.3320   18.0570   15.3950 C   0  0  0  0  0  0  0  0  0  0  0  0
   26.4750   18.7500   16.7410 C   0  0  0  0  0  0  0  0  0  0  0  0
   26.8370   20.2070   16.5740 C   0  0  0  0  0  0  0  0  0  0  0  0
   27.5540   20.8030   17.3710 O   0  0  0  0  0  0  0  0  0  0  0  0
   26.2960   20.8540   15.4910 N   0  0  0  0  0  0  0  0  0  0  0  0
   25.7630   20.2550   14.3770 C   0  0  0  0  0  0  0  0  0  0  0  0
   25.6510   20.8680   13.3150 O   0  0  0  0  0  0  0  0  0  0  0  0
   23.2280   15.9700   11.3150 C   0  0  0  0  0  0  0  0  0  0  0  0
   22.9760   15.5390   10.0030 C   0  0  0  0  0  0  0  0  0  0  0  0
   24.0180   15.5730    9.0570 C   0  0  0  0  0  0  0  0  0  0  0  0
   21.1700   16.2340    5.4470 C   0  0  0  0  0  0  0  0  0  0  0  0
   20.1180   16.9910    5.6840 N   0  0  0  0  0  0  0  0  0  0  0  0
   18.9504   19.6134    8.5356 H   0  0  0  0  0  0  0  0  0  0  0  0
   19.8320   19.3891    6.9867 H   0  0  0  0  0  0  0  0  0  0  0  0
   18.0430   19.5504    6.9867 H   0  0  0  0  0  0  0  0  0  0  0  0
   18.7398   17.3917    8.7477 H   0  0  0  0  0  0  0  0  0  0  0  0
   17.8489   17.3407    7.1653 H   0  0  0  0  0  0  0  0  0  0  0  0
   20.9421   15.8340    8.7010 H   0  0  0  0  0  0  0  0  0  0  0  0
   27.0463   16.2592    8.3292 H   0  0  0  0  0  0  0  0  0  0  0  0
   26.5422   16.8444   11.0298 H   0  0  0  0  0  0  0  0  0  0  0  0
   25.3077   18.7902   12.3870 H   0  0  0  0  0  0  0  0  0  0  0  0
   24.3381   18.7434   15.0624 H   0  0  0  0  0  0  0  0  0  0  0  0
   25.9957   17.0212   15.5498 H   0  0  0  0  0  0  0  0  0  0  0  0
   27.3035   18.0539   14.8791 H   0  0  0  0  0  0  0  0  0  0  0  0
   25.5210   18.6780   17.2839 H   0  0  0  0  0  0  0  0  0  0  0  0
   27.2812   18.2547   17.3020 H   0  0  0  0  0  0  0  0  0  0  0  0
   26.2894   21.8837   15.5167 H   0  0  0  0  0  0  0  0  0  0  0  0
   22.4165   15.9527   12.0575 H   0  0  0  0  0  0  0  0  0  0  0  0
   21.9765   15.1791    9.7176 H   0  0  0  0  0  0  0  0  0  0  0  0
   21.5932   16.0440    4.4496 H   0  0  0  0  0  0  0  0  0  0  0  0
  1  2  1  0
  2  3  1  0
  3  4  2  0
  4  5  1  0
  5  6  1  0
  6  7  2  0
  6  8  2  0
  6  9  1  0
  9 10  2  0
 10 11  1  0
 11 12  1  0
 12 13  2  0
 13 14  1  0
 14 15  1  0
 15 16  2  0
 15 17  1  0
 17 18  1  0
 18 19  1  0
 19 20  1  0
 20 21  1  0
 21 22  2  0
 21 23  1  0
 23 24  1  0
 24 25  2  0
 14 26  2  0
 26 27  1  0
 27 28  2  0
  5 29  1  0
 29 30  2  0
 30  3  1  0
 28  9  1  0
 28 12  1  0
 24 18  1  0
  1 31  1  0
  1 32  1  0
  1 33  1  0
  2 34  1  0
  2 35  1  0
  4 36  1  0
 11 37  1  0
 13 38  1  0
 17 39  1  0
 18 40  1  1
 19 41  1  0
 19 42  1  0
 20 43  1  0
 20 44  1  0
 23 45  1  0
 26 46  1  0
 27 47  1  0
 29 48  1  0
M  END
>  <meeko>  (337) 
{"is_sidechain": [true], "free_energy": -10.93, "intermolecular_energy": 0.0, "internal_energy": -10.93, "cluster_size": 18, "cluster_id": 1, "rank_in_cluster": 1}

>  <_RMSD_MCS_to_ref>  (337) 
0.6992784376293414

$$$$
ligand
     RDKit          3D

 47 50  0  0  0  0  0  0  0  0999 V2000
   18.9090   19.1540    7.5370 C   0  0  0  0  0  0  0  0  0  0  0  0
   18.7730   17.6460    7.6780 C   0  0  0  0  0  0  0  0  0  0  0  0
   20.0570   16.9400    7.4220 C   0  0  0  0  0  0  0  0  0  0  0  0
   20.6540   15.9300    8.1500 C   0  0  0  0  0  0  0  0  0  0  0  0
   21.7980   15.6510    7.4580 N   0  0  0  0  0  0  0  0  0  0  0  0
   22.9890   14.5590    7.9440 S   0  0  0  0  0  6  0  0  0  0  0  0
   23.7620   14.2800    6.7450 O   0  0  0  0  0  0  0  0  0  0  0  0
   22.2290   13.4930    8.5790 O   0  0  0  0  0  0  0  0  0  0  0  0
   23.9970   15.3280    9.1250 C   0  0  0  0  0  0  0  0  0  0  0  0
   25.2050   15.8090    8.7540 C   0  0  0  0  0  0  0  0  0  0  0  0
   26.0760   16.4820    9.7070 C   0  0  0  0  0  0  0  0  0  0  0  0
   25.6570   16.6410   10.9730 C   0  0  0  0  0  0  0  0  0  0  0  0
   24.4040   16.1540   11.3460 N   0  0  0  0  0  0  0  0  0  0  0  0
   23.7260   16.1680   12.5430 C   0  0  0  0  0  0  0  0  0  0  0  0
   24.1690   16.7210   13.8020 C   0  0  0  0  0  0  0  0  0  0  0  0
   23.9820   16.1920   14.8940 O   0  0  0  0  0  0  0  0  0  0  0  0
   24.8310   17.9290   13.6730 N   0  0  0  0  0  0  0  0  0  0  0  0
   25.0450   18.7840   14.8270 C   0  0  1  0  0  0  0  0  0  0  0  0
   25.9020   18.0800   15.8710 C   0  0  0  0  0  0  0  0  0  0  0  0
   26.1120   19.0030   17.0610 C   0  0  0  0  0  0  0  0  0  0  0  0
   26.7150   20.3210   16.6360 C   0  0  0  0  0  0  0  0  0  0  0  0
   27.4870   20.9530   17.3510 O   0  0  0  0  0  0  0  0  0  0  0  0
   26.3330   20.8040   15.4100 N   0  0  0  0  0  0  0  0  0  0  0  0
   25.7460   20.0830   14.3970 C   0  0  0  0  0  0  0  0  0  0  0  0
   25.7870   20.4860   13.2360 O   0  0  0  0  0  0  0  0  0  0  0  0
   22.5580   15.5640   12.3900 N   0  0  0  0  0  0  0  0  0  0  0  0
   22.4500   15.1540   11.0860 N   0  0  0  0  0  0  0  0  0  0  0  0
   23.5520   15.4980   10.4610 C   0  0  0  0  0  0  0  0  0  0  0  0
   21.8950   16.4920    6.3980 C   0  0  0  0  0  0  0  0  0  0  0  0
   20.8370   17.2750    6.3340 N   0  0  0  0  0  0  0  0  0  0  0  0
   18.9504   19.6134    8.5356 H   0  0  0  0  0  0  0  0  0  0  0  0
   19.8320   19.3891    6.9867 H   0  0  0  0  0  0  0  0  0  0  0  0
   18.0430   19.5504    6.9867 H   0  0  0  0  0  0  0  0  0  0  0  0
   18.4390   17.4144    8.7002 H   0  0  0  0  0  0  0  0  0  0  0  0
   18.0431   17.3013    6.9307 H   0  0  0  0  0  0  0  0  0  0  0  0
   20.2914   15.4582    9.0752 H   0  0  0  0  0  0  0  0  0  0  0  0
   25.5361   15.6895    7.7119 H   0  0  0  0  0  0  0  0  0  0  0  0
   27.0627   16.8547    9.3947 H   0  0  0  0  0  0  0  0  0  0  0  0
   26.2960   17.1506   11.7092 H   0  0  0  0  0  0  0  0  0  0  0  0
   25.1757   18.2250   12.7486 H   0  0  0  0  0  0  0  0  0  0  0  0
   24.0632   19.0162   15.2654 H   0  0  0  0  0  0  0  0  0  0  0  0
   25.3945   17.1625   16.2037 H   0  0  0  0  0  0  0  0  0  0  0  0
   26.8766   17.8213   15.4313 H   0  0  0  0  0  0  0  0  0  0  0  0
   25.1415   19.1922   17.5429 H   0  0  0  0  0  0  0  0  0  0  0  0
   26.8061   18.5140   17.7604 H   0  0  0  0  0  0  0  0  0  0  0  0
   26.5024   21.8041   15.2310 H   0  0  0  0  0  0  0  0  0  0  0  0
   22.7378   16.5168    5.6916 H   0  0  0  0  0  0  0  0  0  0  0  0
  1  2  1  0
  2  3  1  0
  3  4  2  0
  4  5  1  0
  5  6  1  0
  6  7  2  0
  6  8  2  0
  6  9  1  0
  9 10  2  0
 10 11  1  0
 11 12  2  0
 12 13  1  0
 13 14  1  0
 14 15  1  0
 15 16  2  0
 15 17  1  0
 17 18  1  0
 18 19  1  0
 19 20  1  0
 20 21  1  0
 21 22  2  0
 21 23  1  0
 23 24  1  0
 24 25  2  0
 14 26  2  0
 26 27  1  0
 27 28  2  0
  5 29  1  0
 29 30  2  0
 30  3  1  0
 28  9  1  0
 28 13  1  0
 24 18  1  0
  1 31  1  0
  1 32  1  0
  1 33  1  0
  2 34  1  0
  2 35  1  0
  4 36  1  0
 10 37  1  0
 11 38  1  0
 12 39  1  0
 17 40  1  0
 18 41  1  1
 19 42  1  0
 19 43  1  0
 20 44  1  0
 20 45  1  0
 23 46  1  0
 29 47  1  0
M  END
>  <meeko>  (338) 
{"is_sidechain": [true], "free_energy": -10.93, "intermolecular_energy": 0.0, "internal_energy": -10.93, "cluster_size": 18, "cluster_id": 1, "rank_in_cluster": 1}

>  <_RMSD_MCS_to_ref>  (338) 
0.6101187498257105

$$$$
ligand
     RDKit          3D

 47 50  0  0  0  0  0  0  0  0999 V2000
   18.9090   19.1540    7.5370 C   0  0  0  0  0  0  0  0  0  0  0  0
   18.7730   17.6460    7.6780 C   0  0  0  0  0  0  0  0  0  0  0  0
   20.0930   16.9600    7.6700 C   0  0  0  0  0  0  0  0  0  0  0  0
   20.9680   16.7490    8.7170 C   0  0  0  0  0  0  0  0  0  0  0  0
   22.0020   16.0540    8.1560 N   0  0  0  0  0  0  0  0  0  0  0  0
   23.4460   15.6370    8.9110 S   0  0  0  0  0  6  0  0  0  0  0  0
   24.2780   16.8240    8.8130 O   0  0  0  0  0  0  0  0  0  0  0  0
   23.8230   14.3670    8.3120 O   0  0  0  0  0  0  0  0  0  0  0  0
   22.9930   15.3760   10.6140 C   0  0  0  0  0  0  0  0  0  0  0  0
   23.8810   15.8460   11.5160 N   0  0  0  0  0  0  0  0  0  0  0  0
   23.5590   15.6780   12.8280 C   0  0  0  0  0  0  0  0  0  0  0  0
   24.5250   16.1900   13.8390 C   0  0  0  0  0  0  0  0  0  0  0  0
   25.0320   15.4650   14.6860 O   0  0  0  0  0  0  0  0  0  0  0  0
   24.8040   17.5370   13.7370 N   0  0  0  0  0  0  0  0  0  0  0  0
   25.8230   18.1820   14.5460 C   0  0  2  0  0  0  0  0  0  0  0  0
   25.6260   17.9130   16.0340 C   0  0  0  0  0  0  0  0  0  0  0  0
   26.7080   18.6280   16.8280 C   0  0  0  0  0  0  0  0  0  0  0  0
   26.7240   20.1080   16.5230 C   0  0  0  0  0  0  0  0  0  0  0  0
   27.0280   20.9490   17.3630 O   0  0  0  0  0  0  0  0  0  0  0  0
   26.4130   20.4740   15.2380 N   0  0  0  0  0  0  0  0  0  0  0  0
   25.7790   19.6940   14.3010 C   0  0  0  0  0  0  0  0  0  0  0  0
   25.2310   20.2000   13.3240 O   0  0  0  0  0  0  0  0  0  0  0  0
   22.3620   15.0460   13.1840 C   0  0  0  0  0  0  0  0  0  0  0  0
   21.6770   14.6870   14.3790 C   0  0  0  0  0  0  0  0  0  0  0  0
   20.4990   14.0660   14.0200 C   0  0  0  0  0  0  0  0  0  0  0  0
   20.4400   14.0350   12.6510 N   0  0  0  0  0  0  0  0  0  0  0  0
   21.5610   14.6230   12.1310 C   0  0  0  0  0  0  0  0  0  0  0  0
   21.8130   14.7560   10.8200 N   0  0  0  0  0  0  0  0  0  0  0  0
   21.7630   15.8970    6.8270 C   0  0  0  0  0  0  0  0  0  0  0  0
   20.6050   16.4340    6.5000 N   0  0  0  0  0  0  0  0  0  0  0  0
   18.9504   19.6134    8.5356 H   0  0  0  0  0  0  0  0  0  0  0  0
   19.8320   19.3891    6.9867 H   0  0  0  0  0  0  0  0  0  0  0  0
   18.0430   19.5504    6.9867 H   0  0  0  0  0  0  0  0  0  0  0  0
   18.2637   17.4234    8.6273 H   0  0  0  0  0  0  0  0  0  0  0  0
   18.1952   17.2769    6.8178 H   0  0  0  0  0  0  0  0  0  0  0  0
   20.8578   17.0677    9.7640 H   0  0  0  0  0  0  0  0  0  0  0  0
   24.2709   18.1053   13.0634 H   0  0  0  0  0  0  0  0  0  0  0  0
   26.7983   17.7666   14.2523 H   0  0  0  0  0  0  0  0  0  0  0  0
   24.6381   18.2831   16.3455 H   0  0  0  0  0  0  0  0  0  0  0  0
   25.6892   16.8310   16.2217 H   0  0  0  0  0  0  0  0  0  0  0  0
   26.5180   18.4853   17.9020 H   0  0  0  0  0  0  0  0  0  0  0  0
   27.6833   18.2044   16.5462 H   0  0  0  0  0  0  0  0  0  0  0  0
   26.6805   21.4253   14.9475 H   0  0  0  0  0  0  0  0  0  0  0  0
   22.0252   14.8719   15.4059 H   0  0  0  0  0  0  0  0  0  0  0  0
   19.7412   13.6664   14.7100 H   0  0  0  0  0  0  0  0  0  0  0  0
   19.6702   13.6312   12.0985 H   0  0  0  0  0  0  0  0  0  0  0  0
   22.4413   15.3924    6.1232 H   0  0  0  0  0  0  0  0  0  0  0  0
  1  2  1  0
  2  3  1  0
  3  4  2  0
  4  5  1  0
  5  6  1  0
  6  7  2  0
  6  8  2  0
  6  9  1  0
  9 10  2  0
 10 11  1  0
 11 12  1  0
 12 13  2  0
 12 14  1  0
 14 15  1  0
 15 16  1  0
 16 17  1  0
 17 18  1  0
 18 19  2  0
 18 20  1  0
 20 21  1  0
 21 22  2  0
 11 23  2  0
 23 24  1  0
 24 25  2  0
 25 26  1  0
 26 27  1  0
 27 28  2  0
  5 29  1  0
 29 30  2  0
 30  3  1  0
 28  9  1  0
 21 15  1  0
 27 23  1  0
  1 31  1  0
  1 32  1  0
  1 33  1  0
  2 34  1  0
  2 35  1  0
  4 36  1  0
 14 37  1  0
 15 38  1  6
 16 39  1  0
 16 40  1  0
 17 41  1  0
 17 42  1  0
 20 43  1  0
 24 44  1  0
 25 45  1  0
 26 46  1  0
 29 47  1  0
M  END
>  <meeko>  (339) 
{"is_sidechain": [true], "free_energy": -10.93, "intermolecular_energy": 0.0, "internal_energy": -10.93, "cluster_size": 20, "cluster_id": 1, "rank_in_cluster": 1}

>  <_RMSD_MCS_to_ref>  (339) 
0.5546472352365561

$$$$
ligand
     RDKit          3D

 47 50  0  0  0  0  0  0  0  0999 V2000
   18.9090   19.1540    7.5370 C   0  0  0  0  0  0  0  0  0  0  0  0
   18.7730   17.6460    7.6780 C   0  0  0  0  0  0  0  0  0  0  0  0
   20.0920   16.9590    7.6620 C   0  0  0  0  0  0  0  0  0  0  0  0
   20.9340   16.6690    8.7180 C   0  0  0  0  0  0  0  0  0  0  0  0
   22.0030   16.0520    8.1330 N   0  0  0  0  0  0  0  0  0  0  0  0
   23.2740   15.3150    8.9370 S   0  0  0  0  0  6  0  0  0  0  0  0
   23.3100   13.9440    8.4620 O   0  0  0  0  0  0  0  0  0  0  0  0
   24.4100   16.2100    8.8050 O   0  0  0  0  0  0  0  0  0  0  0  0
   22.8950   15.2350   10.6750 C   0  0  0  0  0  0  0  0  0  0  0  0
   23.9260   15.7690   11.6170 C   0  0  0  0  0  0  0  0  0  0  0  0
   23.6310   15.6990   12.9290 C   0  0  0  0  0  0  0  0  0  0  0  0
   24.6560   16.2320   13.8700 C   0  0  0  0  0  0  0  0  0  0  0  0
   25.2910   15.4840   14.6100 O   0  0  0  0  0  0  0  0  0  0  0  0
   24.8480   17.5850   13.8580 N   0  0  0  0  0  0  0  0  0  0  0  0
   25.8560   18.2360   14.6790 C   0  0  2  0  0  0  0  0  0  0  0  0
   25.6400   17.9520   16.1620 C   0  0  0  0  0  0  0  0  0  0  0  0
   26.7120   18.6580   16.9780 C   0  0  0  0  0  0  0  0  0  0  0  0
   26.7310   20.1390   16.6900 C   0  0  0  0  0  0  0  0  0  0  0  0
   27.0230   20.9720   17.5430 O   0  0  0  0  0  0  0  0  0  0  0  0
   26.4380   20.5190   15.4050 N   0  0  0  0  0  0  0  0  0  0  0  0
   25.8200   19.7510   14.4470 C   0  0  0  0  0  0  0  0  0  0  0  0
   25.3000   20.2730   13.4630 O   0  0  0  0  0  0  0  0  0  0  0  0
   22.4110   15.1450   13.3290 N   0  0  0  0  0  0  0  0  0  0  0  0
   21.9250   14.9750   14.5920 N   0  0  0  0  0  0  0  0  0  0  0  0
   20.7270   14.4160   14.4220 C   0  0  0  0  0  0  0  0  0  0  0  0
   20.4140   14.2010   13.0740 C   0  0  0  0  0  0  0  0  0  0  0  0
   21.5010   14.6700   12.3740 C   0  0  0  0  0  0  0  0  0  0  0  0
   21.7530   14.7170   11.0330 N   0  0  0  0  0  0  0  0  0  0  0  0
   21.7760   15.9340    6.8010 C   0  0  0  0  0  0  0  0  0  0  0  0
   20.6300   16.4960    6.4770 N   0  0  0  0  0  0  0  0  0  0  0  0
   18.9504   19.6134    8.5356 H   0  0  0  0  0  0  0  0  0  0  0  0
   19.8320   19.3891    6.9867 H   0  0  0  0  0  0  0  0  0  0  0  0
   18.0430   19.5504    6.9867 H   0  0  0  0  0  0  0  0  0  0  0  0
   18.2691   17.4232    8.6301 H   0  0  0  0  0  0  0  0  0  0  0  0
   18.1901   17.2779    6.8208 H   0  0  0  0  0  0  0  0  0  0  0  0
   20.7791   16.8854    9.7853 H   0  0  0  0  0  0  0  0  0  0  0  0
   24.8740   16.1959   11.2578 H   0  0  0  0  0  0  0  0  0  0  0  0
   24.2571   18.1647   13.2450 H   0  0  0  0  0  0  0  0  0  0  0  0
   26.8362   17.8315   14.3864 H   0  0  0  0  0  0  0  0  0  0  0  0
   24.6483   18.3195   16.4645 H   0  0  0  0  0  0  0  0  0  0  0  0
   25.7007   16.8680   16.3390 H   0  0  0  0  0  0  0  0  0  0  0  0
   26.5085   18.5032   18.0479 H   0  0  0  0  0  0  0  0  0  0  0  0
   27.6910   18.2376   16.7043 H   0  0  0  0  0  0  0  0  0  0  0  0
   26.7078   21.4745   15.1308 H   0  0  0  0  0  0  0  0  0  0  0  0
   20.0556   14.1516   15.2522 H   0  0  0  0  0  0  0  0  0  0  0  0
   19.4967   13.7536   12.6636 H   0  0  0  0  0  0  0  0  0  0  0  0
   22.4542   15.4383    6.0908 H   0  0  0  0  0  0  0  0  0  0  0  0
  1  2  1  0
  2  3  1  0
  3  4  2  0
  4  5  1  0
  5  6  1  0
  6  7  2  0
  6  8  2  0
  6  9  1  0
  9 10  1  0
 10 11  2  0
 11 12  1  0
 12 13  2  0
 12 14  1  0
 14 15  1  0
 15 16  1  0
 16 17  1  0
 17 18  1  0
 18 19  2  0
 18 20  1  0
 20 21  1  0
 21 22  2  0
 11 23  1  0
 23 24  1  0
 24 25  2  0
 25 26  1  0
 26 27  2  0
 27 28  1  0
  5 29  1  0
 29 30  2  0
 30  3  1  0
 28  9  2  0
 21 15  1  0
 27 23  1  0
  1 31  1  0
  1 32  1  0
  1 33  1  0
  2 34  1  0
  2 35  1  0
  4 36  1  0
 10 37  1  0
 14 38  1  0
 15 39  1  6
 16 40  1  0
 16 41  1  0
 17 42  1  0
 17 43  1  0
 20 44  1  0
 25 45  1  0
 26 46  1  0
 29 47  1  0
M  END
>  <meeko>  (340) 
{"is_sidechain": [true], "free_energy": -10.93, "intermolecular_energy": 0.0, "internal_energy": -10.93, "cluster_size": 20, "cluster_id": 1, "rank_in_cluster": 1}

>  <_RMSD_MCS_to_ref>  (340) 
0.6123453092641261

$$$$
ligand
     RDKit          3D

 52 56  0  0  0  0  0  0  0  0999 V2000
   18.9090   19.1540    7.5370 C   0  0  0  0  0  0  0  0  0  0  0  0
   18.7730   17.6460    7.6780 C   0  0  0  0  0  0  0  0  0  0  0  0
   19.9630   16.9230    7.1540 C   0  0  0  0  0  0  0  0  0  0  0  0
   20.5330   15.7480    7.6030 C   0  0  0  0  0  0  0  0  0  0  0  0
   21.6050   15.5590    6.7770 N   0  0  0  0  0  0  0  0  0  0  0  0
   22.6310   14.2290    6.7740 S   0  0  0  0  0  6  0  0  0  0  0  0
   22.0200   13.2560    7.6600 O   0  0  0  0  0  0  0  0  0  0  0  0
   22.8820   13.9470    5.3700 O   0  0  0  0  0  0  0  0  0  0  0  0
   24.1310   14.7930    7.5040 C   0  0  0  0  0  0  0  0  0  0  0  0
   25.2420   14.7190    6.7160 N   0  0  0  0  0  0  0  0  0  0  0  0
   26.4290   15.1350    7.2190 C   0  0  0  0  0  0  0  0  0  0  0  0
   26.6150   15.6350    8.4960 C   0  0  0  0  0  0  0  0  0  0  0  0
   25.4550   15.6850    9.2550 C   0  0  0  0  0  0  0  0  0  0  0  0
   25.3750   16.1330   10.5360 O   0  0  0  0  0  0  0  0  0  0  0  0
   24.0700   16.0220   10.9330 C   0  0  0  0  0  0  0  0  0  0  0  0
   23.7670   16.4510   12.2970 C   0  0  0  0  0  0  0  0  0  0  0  0
   22.5800   16.0700   12.9300 C   0  0  0  0  0  0  0  0  0  0  0  0
   22.3060   16.4860   14.2310 C   0  0  0  0  0  0  0  0  0  0  0  0
   23.2200   17.2900   14.9180 C   0  0  0  0  0  0  0  0  0  0  0  0
   24.4230   17.6930   14.3210 C   0  0  0  0  0  0  0  0  0  0  0  0
   25.3600   18.5310   15.0210 N   0  0  0  0  0  0  0  0  0  0  0  0
   26.3320   17.9240   15.9270 C   0  0  0  0  0  0  0  0  0  0  0  0
   26.5810   18.8110   17.1290 C   0  0  0  0  0  0  0  0  0  0  0  0
   26.9720   20.1770   16.6590 C   0  0  0  0  0  0  0  0  0  0  0  0
   27.6230   20.9530   17.3550 O   0  0  0  0  0  0  0  0  0  0  0  0
   26.4850   20.5460   15.4370 N   0  0  0  0  0  0  0  0  0  0  0  0
   25.5290   19.8840   14.7030 C   0  0  0  0  0  0  0  0  0  0  0  0
   24.9240   20.5160   13.8410 O   0  0  0  0  0  0  0  0  0  0  0  0
   24.6710   17.2630   13.0060 C   0  0  0  0  0  0  0  0  0  0  0  0
   23.3190   15.5010    9.8940 C   0  0  0  0  0  0  0  0  0  0  0  0
   24.2080   15.2800    8.8060 C   0  0  0  0  0  0  0  0  0  0  0  0
   21.6350   16.5530    5.8530 C   0  0  0  0  0  0  0  0  0  0  0  0
   20.6580   17.4110    6.0640 N   0  0  0  0  0  0  0  0  0  0  0  0
   18.9504   19.6134    8.5356 H   0  0  0  0  0  0  0  0  0  0  0  0
   19.8320   19.3891    6.9867 H   0  0  0  0  0  0  0  0  0  0  0  0
   18.0430   19.5504    6.9867 H   0  0  0  0  0  0  0  0  0  0  0  0
   18.6492   17.3995    8.7429 H   0  0  0  0  0  0  0  0  0  0  0  0
   17.8993   17.3292    7.0896 H   0  0  0  0  0  0  0  0  0  0  0  0
   20.2002   15.1102    8.4351 H   0  0  0  0  0  0  0  0  0  0  0  0
   27.3103   15.0706    6.5639 H   0  0  0  0  0  0  0  0  0  0  0  0
   27.5942   15.9631    8.8749 H   0  0  0  0  0  0  0  0  0  0  0  0
   21.8564   15.4364   12.3962 H   0  0  0  0  0  0  0  0  0  0  0  0
   21.3683   16.1811   14.7187 H   0  0  0  0  0  0  0  0  0  0  0  0
   22.9916   17.6121   15.9447 H   0  0  0  0  0  0  0  0  0  0  0  0
   25.9461   16.9528   16.2704 H   0  0  0  0  0  0  0  0  0  0  0  0
   27.2807   17.7922   15.3861 H   0  0  0  0  0  0  0  0  0  0  0  0
   25.6642   18.8781   17.7332 H   0  0  0  0  0  0  0  0  0  0  0  0
   27.3892   18.3852   17.7418 H   0  0  0  0  0  0  0  0  0  0  0  0
   26.8728   21.4063   15.0241 H   0  0  0  0  0  0  0  0  0  0  0  0
   25.6049   17.5723   12.5139 H   0  0  0  0  0  0  0  0  0  0  0  0
   22.2383   15.2964    9.9071 H   0  0  0  0  0  0  0  0  0  0  0  0
   22.3727   16.6311    5.0408 H   0  0  0  0  0  0  0  0  0  0  0  0
  1  2  1  0
  2  3  1  0
  3  4  2  0
  4  5  1  0
  5  6  1  0
  6  7  2  0
  6  8  2  0
  6  9  1  0
  9 10  2  0
 10 11  1  0
 11 12  2  0
 12 13  1  0
 13 14  1  0
 14 15  1  0
 15 16  1  0
 16 17  2  0
 17 18  1  0
 18 19  2  0
 19 20  1  0
 20 21  1  0
 21 22  1  0
 22 23  1  0
 23 24  1  0
 24 25  2  0
 24 26  1  0
 26 27  1  0
 27 28  2  0
 20 29  2  0
 15 30  2  0
 30 31  1  0
  5 32  1  0
 32 33  2  0
 33  3  1  0
 31  9  1  0
 31 13  2  0
 29 16  1  0
 27 21  1  0
  1 34  1  0
  1 35  1  0
  1 36  1  0
  2 37  1  0
  2 38  1  0
  4 39  1  0
 11 40  1  0
 12 41  1  0
 17 42  1  0
 18 43  1  0
 19 44  1  0
 22 45  1  0
 22 46  1  0
 23 47  1  0
 23 48  1  0
 26 49  1  0
 29 50  1  0
 30 51  1  0
 32 52  1  0
M  END
>  <meeko>  (341) 
{"is_sidechain": [true], "free_energy": -10.93, "intermolecular_energy": 0.0, "internal_energy": -10.93, "cluster_size": 19, "cluster_id": 1, "rank_in_cluster": 1}

>  <_RMSD_MCS_to_ref>  (341) 
0.527860777099416

$$$$
ligand
     RDKit          3D

 57 61  0  0  0  0  0  0  0  0999 V2000
   18.8250   19.0170    7.5350 C   0  0  0  0  0  0  0  0  0  0  0  0
   18.5200   17.5420    7.7330 C   0  0  0  0  0  0  0  0  0  0  0  0
   19.7060   16.6810    7.4720 C   0  0  0  0  0  0  0  0  0  0  0  0
   20.7730   16.3970    8.3020 C   0  0  0  0  0  0  0  0  0  0  0  0
   21.5620   15.5670    7.5570 N   0  0  0  0  0  0  0  0  0  0  0  0
   23.0690   14.9880    8.0180 S   0  0  0  0  0  6  0  0  0  0  0  0
   23.0120   13.5400    8.0020 O   0  0  0  0  0  0  0  0  0  0  0  0
   24.0100   15.7080    7.1800 O   0  0  0  0  0  0  0  0  0  0  0  0
   23.3110   15.5310    9.6910 C   0  0  0  0  0  0  0  0  0  0  0  0
   22.1900   15.5750   10.5540 C   0  0  0  0  0  0  0  0  0  0  0  0
   22.3190   16.0480   11.8620 C   0  0  0  0  0  0  0  0  0  0  0  0
   23.5710   16.4670   12.2700 C   0  0  0  0  0  0  0  0  0  0  0  0
   24.6850   16.4460   11.4350 C   0  0  0  0  0  0  0  0  0  0  0  0
   24.5610   15.9940   10.1280 C   0  0  0  0  0  0  0  0  0  0  0  0
   25.7540   15.9490    9.2780 C   0  0  0  0  0  0  0  0  0  0  0  0
   26.2510   17.0170    8.9470 O   0  0  0  0  0  0  0  0  0  0  0  0
   26.1950   14.7110    8.8920 N   0  0  0  0  0  0  0  0  0  0  0  0
   27.5070   14.4020    8.3330 C   0  0  0  0  0  0  0  0  0  0  0  0
   27.5630   13.2340    9.3190 C   0  0  0  0  0  0  0  0  0  0  0  0
   26.0620   13.4190    9.5580 C   0  0  0  0  0  0  0  0  0  0  0  0
   25.8810   16.9520   12.1700 C   0  0  0  0  0  0  0  0  0  0  0  0
   25.3590   17.1810   13.5110 N   0  0  0  0  0  0  0  0  0  0  0  0
   26.1320   17.9290   14.5000 C   0  0  2  0  0  0  0  0  0  0  0  0
   25.6010   17.8020   15.9270 C   0  0  0  0  0  0  0  0  0  0  0  0
   26.5140   18.5670   16.8730 C   0  0  0  0  0  0  0  0  0  0  0  0
   26.6400   20.0150   16.4610 C   0  0  0  0  0  0  0  0  0  0  0  0
   26.9430   20.8980   17.2570 O   0  0  0  0  0  0  0  0  0  0  0  0
   26.4780   20.2930   15.1260 N   0  0  0  0  0  0  0  0  0  0  0  0
   26.2490   19.4070   14.0990 C   0  0  0  0  0  0  0  0  0  0  0  0
   26.2450   19.7940   12.9300 O   0  0  0  0  0  0  0  0  0  0  0  0
   23.9870   16.9950   13.5740 C   0  0  0  0  0  0  0  0  0  0  0  0
   23.2270   17.2300   14.4920 O   0  0  0  0  0  0  0  0  0  0  0  0
   20.9960   15.3880    6.3370 C   0  0  0  0  0  0  0  0  0  0  0  0
   19.8610   16.0520    6.2530 N   0  0  0  0  0  0  0  0  0  0  0  0
   18.9260   19.5054    8.5155 H   0  0  0  0  0  0  0  0  0  0  0  0
   19.7645   19.1250    6.9731 H   0  0  0  0  0  0  0  0  0  0  0  0
   18.0054   19.4887    6.9731 H   0  0  0  0  0  0  0  0  0  0  0  0
   18.1900   17.3850    8.7705 H   0  0  0  0  0  0  0  0  0  0  0  0
   17.7350   17.2609    7.0155 H   0  0  0  0  0  0  0  0  0  0  0  0
   20.9473   16.7564    9.3269 H   0  0  0  0  0  0  0  0  0  0  0  0
   21.2090   15.2339   10.1916 H   0  0  0  0  0  0  0  0  0  0  0  0
   21.4555   16.0856   12.5424 H   0  0  0  0  0  0  0  0  0  0  0  0
   27.4987   14.1097    7.2726 H   0  0  0  0  0  0  0  0  0  0  0  0
   28.3075   15.1542    8.2744 H   0  0  0  0  0  0  0  0  0  0  0  0
   27.8364   12.2692    8.8668 H   0  0  0  0  0  0  0  0  0  0  0  0
   28.2774   13.2271   10.1554 H   0  0  0  0  0  0  0  0  0  0  0  0
   25.4194   12.6951    9.0355 H   0  0  0  0  0  0  0  0  0  0  0  0
   25.6140   13.3213   10.5579 H   0  0  0  0  0  0  0  0  0  0  0  0
   26.6865   16.2030   12.1804 H   0  0  0  0  0  0  0  0  0  0  0  0
   26.3256   17.8495   11.7153 H   0  0  0  0  0  0  0  0  0  0  0  0
   27.1318   17.4702   14.5049 H   0  0  0  0  0  0  0  0  0  0  0  0
   24.5847   18.2195   15.9794 H   0  0  0  0  0  0  0  0  0  0  0  0
   25.5748   16.7414   16.2174 H   0  0  0  0  0  0  0  0  0  0  0  0
   26.0981   18.5185   17.8902 H   0  0  0  0  0  0  0  0  0  0  0  0
   27.5130   18.1077   16.8394 H   0  0  0  0  0  0  0  0  0  0  0  0
   26.5349   21.2868   14.8612 H   0  0  0  0  0  0  0  0  0  0  0  0
   21.4246   14.7745    5.5309 H   0  0  0  0  0  0  0  0  0  0  0  0
  1  2  1  0
  2  3  1  0
  3  4  2  0
  4  5  1  0
  5  6  1  0
  6  7  2  0
  6  8  2  0
  6  9  1  0
  9 10  2  0
 10 11  1  0
 11 12  2  0
 12 13  1  0
 13 14  2  0
 14 15  1  0
 15 16  2  0
 15 17  1  0
 17 18  1  0
 18 19  1  0
 19 20  1  0
 13 21  1  0
 21 22  1  0
 22 23  1  0
 23 24  1  0
 24 25  1  0
 25 26  1  0
 26 27  2  0
 26 28  1  0
 28 29  1  0
 29 30  2  0
 22 31  1  0
 31 32  2  0
  5 33  1  0
 33 34  2  0
 34  3  1  0
 14  9  1  0
 20 17  1  0
 29 23  1  0
 31 12  1  0
  1 35  1  0
  1 36  1  0
  1 37  1  0
  2 38  1  0
  2 39  1  0
  4 40  1  0
 10 41  1  0
 11 42  1  0
 18 43  1  0
 18 44  1  0
 19 45  1  0
 19 46  1  0
 20 47  1  0
 20 48  1  0
 21 49  1  0
 21 50  1  0
 23 51  1  1
 24 52  1  0
 24 53  1  0
 25 54  1  0
 25 55  1  0
 28 56  1  0
 33 57  1  0
M  END
>  <meeko>  (342) 
{"is_sidechain": [true], "free_energy": -10.92, "intermolecular_energy": 0.0, "internal_energy": -10.92, "cluster_size": 13, "cluster_id": 1, "rank_in_cluster": 1}

>  <_RMSD_MCS_to_ref>  (342) 
0.870162724245682

$$$$
ligand
     RDKit          3D

 50 53  0  0  0  0  0  0  0  0999 V2000
   18.7970   18.8170    7.7190 C   0  0  0  0  0  0  0  0  0  0  0  0
   18.5280   17.3290    7.8810 C   0  0  0  0  0  0  0  0  0  0  0  0
   19.7210   16.5030    7.5550 C   0  0  0  0  0  0  0  0  0  0  0  0
   20.8190   16.2150    8.3430 C   0  0  0  0  0  0  0  0  0  0  0  0
   21.6070   15.4350    7.5460 N   0  0  0  0  0  0  0  0  0  0  0  0
   23.0480   14.7000    7.9910 S   0  0  0  0  0  6  0  0  0  0  0  0
   24.0990   15.5270    7.4240 O   0  0  0  0  0  0  0  0  0  0  0  0
   22.9030   13.2960    7.6460 O   0  0  0  0  0  0  0  0  0  0  0  0
   23.1340   14.8310    9.7550 C   0  0  0  0  0  0  0  0  0  0  0  0
   22.1030   14.3240   10.5250 C   0  0  0  0  0  0  0  0  0  0  0  0
   22.2010   14.4430   11.9160 C   0  0  0  0  0  0  0  0  0  0  0  0
   21.1740   13.9550   12.7400 C   0  0  0  0  0  0  0  0  0  0  0  0
   21.2540   14.0660   14.1270 C   0  0  0  0  0  0  0  0  0  0  0  0
   22.3630   14.6710   14.7120 C   0  0  0  0  0  0  0  0  0  0  0  0
   23.3990   15.1710   13.9080 C   0  0  0  0  0  0  0  0  0  0  0  0
   24.5690   15.7930   14.5840 C   0  0  0  0  0  0  0  0  0  0  0  0
   25.4980   15.1100   14.9940 O   0  0  0  0  0  0  0  0  0  0  0  0
   24.5330   17.1650   14.6930 N   0  0  0  0  0  0  0  0  0  0  0  0
   25.6810   17.9150   15.1870 C   0  0  2  0  0  0  0  0  0  0  0  0
   25.8120   17.8410   16.7040 C   0  0  0  0  0  0  0  0  0  0  0  0
   27.0010   18.6770   17.1530 C   0  0  0  0  0  0  0  0  0  0  0  0
   26.8820   20.1020   16.6650 C   0  0  0  0  0  0  0  0  0  0  0  0
   27.2880   21.0580   17.3190 O   0  0  0  0  0  0  0  0  0  0  0  0
   26.3170   20.2840   15.4280 N   0  0  0  0  0  0  0  0  0  0  0  0
   25.5200   19.3800   14.7720 C   0  0  0  0  0  0  0  0  0  0  0  0
   24.7330   19.7410   13.8970 O   0  0  0  0  0  0  0  0  0  0  0  0
   23.3380   15.0600   12.4930 C   0  0  0  0  0  0  0  0  0  0  0  0
   24.3120   15.5310   11.5900 C   0  0  0  0  0  0  0  0  0  0  0  0
   24.2380   15.4360   10.2400 N   0  0  0  0  0  0  0  0  0  0  0  0
   20.9800   15.2350    6.3570 C   0  0  0  0  0  0  0  0  0  0  0  0
   19.8360   15.8910    6.3230 N   0  0  0  0  0  0  0  0  0  0  0  0
   18.8815   19.2845    8.7111 H   0  0  0  0  0  0  0  0  0  0  0  0
   19.7359   18.9616    7.1643 H   0  0  0  0  0  0  0  0  0  0  0  0
   17.9682   19.2812    7.1643 H   0  0  0  0  0  0  0  0  0  0  0  0
   18.2359   17.1334    8.9233 H   0  0  0  0  0  0  0  0  0  0  0  0
   17.7252   17.0531    7.1814 H   0  0  0  0  0  0  0  0  0  0  0  0
   21.0137   16.5397    9.3758 H   0  0  0  0  0  0  0  0  0  0  0  0
   21.2318   13.8415   10.0579 H   0  0  0  0  0  0  0  0  0  0  0  0
   20.2937   13.4782   12.2842 H   0  0  0  0  0  0  0  0  0  0  0  0
   20.4421   13.6762   14.7585 H   0  0  0  0  0  0  0  0  0  0  0  0
   22.4274   14.7573   15.8067 H   0  0  0  0  0  0  0  0  0  0  0  0
   23.6784   17.6711   14.4202 H   0  0  0  0  0  0  0  0  0  0  0  0
   26.5895   17.4717   14.7533 H   0  0  0  0  0  0  0  0  0  0  0  0
   24.8944   18.2288   17.1704 H   0  0  0  0  0  0  0  0  0  0  0  0
   25.9645   16.7948   17.0077 H   0  0  0  0  0  0  0  0  0  0  0  0
   27.0454   18.6766   18.2521 H   0  0  0  0  0  0  0  0  0  0  0  0
   27.9158   18.2383   16.7279 H   0  0  0  0  0  0  0  0  0  0  0  0
   26.5076   21.1765   14.9505 H   0  0  0  0  0  0  0  0  0  0  0  0
   25.2040   16.0146   12.0149 H   0  0  0  0  0  0  0  0  0  0  0  0
   21.3714   14.6135    5.5381 H   0  0  0  0  0  0  0  0  0  0  0  0
  1  2  1  0
  2  3  1  0
  3  4  2  0
  4  5  1  0
  5  6  1  0
  6  7  2  0
  6  8  2  0
  6  9  1  0
  9 10  2  0
 10 11  1  0
 11 12  2  0
 12 13  1  0
 13 14  2  0
 14 15  1  0
 15 16  1  0
 16 17  2  0
 16 18  1  0
 18 19  1  0
 19 20  1  0
 20 21  1  0
 21 22  1  0
 22 23  2  0
 22 24  1  0
 24 25  1  0
 25 26  2  0
 15 27  2  0
 27 28  1  0
 28 29  2  0
  5 30  1  0
 30 31  2  0
 31  3  1  0
 29  9  1  0
 27 11  1  0
 25 19  1  0
  1 32  1  0
  1 33  1  0
  1 34  1  0
  2 35  1  0
  2 36  1  0
  4 37  1  0
 10 38  1  0
 12 39  1  0
 13 40  1  0
 14 41  1  0
 18 42  1  0
 19 43  1  6
 20 44  1  0
 20 45  1  0
 21 46  1  0
 21 47  1  0
 24 48  1  0
 28 49  1  0
 30 50  1  0
M  END
>  <meeko>  (343) 
{"is_sidechain": [true], "free_energy": -10.92, "intermolecular_energy": 0.0, "internal_energy": -10.92, "cluster_size": 18, "cluster_id": 1, "rank_in_cluster": 1}

>  <_RMSD_MCS_to_ref>  (343) 
0.5866711174073599

$$$$
ligand
     RDKit          3D

 56 60  0  0  0  0  0  0  0  0999 V2000
   18.7970   18.8160    7.7190 C   0  0  0  0  0  0  0  0  0  0  0  0
   18.5280   17.3300    7.8810 C   0  0  0  0  0  0  0  0  0  0  0  0
   19.7730   16.5190    7.7980 C   0  0  0  0  0  0  0  0  0  0  0  0
   20.5330   15.9780    8.8180 C   0  0  0  0  0  0  0  0  0  0  0  0
   21.5930   15.4090    8.1730 N   0  0  0  0  0  0  0  0  0  0  0  0
   22.8660   14.5850    8.8870 S   0  0  0  0  0  6  0  0  0  0  0  0
   23.6440   14.1050    7.7590 O   0  0  0  0  0  0  0  0  0  0  0  0
   23.4370   15.4770    9.8800 O   0  0  0  0  0  0  0  0  0  0  0  0
   22.2040   13.1740    9.7450 C   0  0  0  0  0  0  0  0  0  0  0  0
   21.2690   12.4030    9.0260 C   0  0  0  0  0  0  0  0  0  0  0  0
   20.6900   11.2740    9.5990 C   0  0  0  0  0  0  0  0  0  0  0  0
   21.0430   10.9000   10.8890 C   0  0  0  0  0  0  0  0  0  0  0  0
   21.9750   11.6560   11.6020 C   0  0  0  0  0  0  0  0  0  0  0  0
   22.5810   12.8060   11.0510 C   0  0  0  0  0  0  0  0  0  0  0  0
   23.5450   13.5300   11.8890 C   0  0  0  0  0  0  0  0  0  0  0  0
   24.9010   13.1270   11.9680 C   0  0  0  0  0  0  0  0  0  0  0  0
   25.8350   13.8310   12.7430 C   0  0  0  0  0  0  0  0  0  0  0  0
   25.3970   14.9320   13.4550 C   0  0  0  0  0  0  0  0  0  0  0  0
   24.0580   15.3070   13.4040 C   0  0  0  0  0  0  0  0  0  0  0  0
   23.1190   14.6330   12.6470 C   0  0  0  0  0  0  0  0  0  0  0  0
   23.8750   16.4800   14.2630 C   0  0  0  0  0  0  0  0  0  0  0  0
   22.8290   17.0830   14.4060 O   0  0  0  0  0  0  0  0  0  0  0  0
   25.0980   16.7270   14.8680 N   0  0  0  0  0  0  0  0  0  0  0  0
   25.3500   17.9390   15.6390 C   0  0  1  0  0  0  0  0  0  0  0  0
   26.2390   17.6790   16.8520 C   0  0  0  0  0  0  0  0  0  0  0  0
   26.3740   18.9590   17.6620 C   0  0  0  0  0  0  0  0  0  0  0  0
   26.9040   20.0900   16.8130 C   0  0  0  0  0  0  0  0  0  0  0  0
   27.6460   20.9570   17.2640 O   0  0  0  0  0  0  0  0  0  0  0  0
   26.4930   20.1170   15.5050 N   0  0  0  0  0  0  0  0  0  0  0  0
   25.9710   19.0620   14.7920 C   0  0  0  0  0  0  0  0  0  0  0  0
   26.0160   19.0640   13.5650 O   0  0  0  0  0  0  0  0  0  0  0  0
   26.1550   15.8810   14.3250 C   0  0  0  0  0  0  0  0  0  0  0  0
   21.4080   15.5120    6.8330 C   0  0  0  0  0  0  0  0  0  0  0  0
   20.3250   16.2090    6.5700 N   0  0  0  0  0  0  0  0  0  0  0  0
   18.8816   19.2836    8.7111 H   0  0  0  0  0  0  0  0  0  0  0  0
   19.7359   18.9603    7.1643 H   0  0  0  0  0  0  0  0  0  0  0  0
   17.9683   19.2803    7.1643 H   0  0  0  0  0  0  0  0  0  0  0  0
   18.0597   17.1600    8.8617 H   0  0  0  0  0  0  0  0  0  0  0  0
   17.8662   17.0161    7.0603 H   0  0  0  0  0  0  0  0  0  0  0  0
   20.3305   16.0007    9.8990 H   0  0  0  0  0  0  0  0  0  0  0  0
   20.9939   12.6960    8.0021 H   0  0  0  0  0  0  0  0  0  0  0  0
   19.9566   10.6812    9.0328 H   0  0  0  0  0  0  0  0  0  0  0  0
   20.5889   10.0095   11.3482 H   0  0  0  0  0  0  0  0  0  0  0  0
   22.2451   11.3469   12.6225 H   0  0  0  0  0  0  0  0  0  0  0  0
   25.2299   12.2395   11.4074 H   0  0  0  0  0  0  0  0  0  0  0  0
   26.8879   13.5152   12.7830 H   0  0  0  0  0  0  0  0  0  0  0  0
   22.0662   14.9517   12.6382 H   0  0  0  0  0  0  0  0  0  0  0  0
   24.3596   18.2690   15.9856 H   0  0  0  0  0  0  0  0  0  0  0  0
   25.7870   16.8949   17.4772 H   0  0  0  0  0  0  0  0  0  0  0  0
   27.2333   17.3502   16.5155 H   0  0  0  0  0  0  0  0  0  0  0  0
   25.3864   19.2394   18.0570 H   0  0  0  0  0  0  0  0  0  0  0  0
   27.0834   18.7781   18.4830 H   0  0  0  0  0  0  0  0  0  0  0  0
   26.5838   21.0144   15.0077 H   0  0  0  0  0  0  0  0  0  0  0  0
   26.8736   16.4711   13.7373 H   0  0  0  0  0  0  0  0  0  0  0  0
   26.7564   15.3809   15.0985 H   0  0  0  0  0  0  0  0  0  0  0  0
   22.0714   15.0736    6.0729 H   0  0  0  0  0  0  0  0  0  0  0  0
  1  2  1  0
  2  3  1  0
  3  4  2  0
  4  5  1  0
  5  6  1  0
  6  7  2  0
  6  8  2  0
  6  9  1  0
  9 10  2  0
 10 11  1  0
 11 12  2  0
 12 13  1  0
 13 14  2  0
 14 15  1  0
 15 16  2  0
 16 17  1  0
 17 18  2  0
 18 19  1  0
 19 20  2  0
 19 21  1  0
 21 22  2  0
 21 23  1  0
 23 24  1  0
 24 25  1  0
 25 26  1  0
 26 27  1  0
 27 28  2  0
 27 29  1  0
 29 30  1  0
 30 31  2  0
 23 32  1  0
  5 33  1  0
 33 34  2  0
 34  3  1  0
 14  9  1  0
 20 15  1  0
 30 24  1  0
 32 18  1  0
  1 35  1  0
  1 36  1  0
  1 37  1  0
  2 38  1  0
  2 39  1  0
  4 40  1  0
 10 41  1  0
 11 42  1  0
 12 43  1  0
 13 44  1  0
 16 45  1  0
 17 46  1  0
 20 47  1  0
 24 48  1  1
 25 49  1  0
 25 50  1  0
 26 51  1  0
 26 52  1  0
 29 53  1  0
 32 54  1  0
 32 55  1  0
 33 56  1  0
M  END
>  <meeko>  (344) 
{"is_sidechain": [true], "free_energy": -10.92, "intermolecular_energy": 0.0, "internal_energy": -10.92, "cluster_size": 20, "cluster_id": 1, "rank_in_cluster": 1}

>  <_RMSD_MCS_to_ref>  (344) 
1.4437028972595283

$$$$
ligand
     RDKit          3D

 47 50  0  0  0  0  0  0  0  0999 V2000
   18.9090   19.1540    7.5370 C   0  0  0  0  0  0  0  0  0  0  0  0
   18.7730   17.6460    7.6780 C   0  0  0  0  0  0  0  0  0  0  0  0
   20.0040   16.9280    7.2490 C   0  0  0  0  0  0  0  0  0  0  0  0
   21.1960   16.7640    7.9270 C   0  0  0  0  0  0  0  0  0  0  0  0
   21.9780   16.0520    7.0630 N   0  0  0  0  0  0  0  0  0  0  0  0
   23.4410   15.3030    7.4530 S   0  0  0  0  0  6  0  0  0  0  0  0
   23.2070   13.8960    7.1770 O   0  0  0  0  0  0  0  0  0  0  0  0
   24.4390   16.0500    6.7080 O   0  0  0  0  0  0  0  0  0  0  0  0
   23.6660   15.5400    9.1730 C   0  0  0  0  0  0  0  0  0  0  0  0
   24.8710   16.1900    9.6880 C   0  0  0  0  0  0  0  0  0  0  0  0
   25.0190   16.3390   11.0160 C   0  0  0  0  0  0  0  0  0  0  0  0
   24.0200   15.8730   11.8730 N   0  0  0  0  0  0  0  0  0  0  0  0
   23.8940   15.8790   13.2440 C   0  0  0  0  0  0  0  0  0  0  0  0
   24.8280   16.4090   14.2090 C   0  0  0  0  0  0  0  0  0  0  0  0
   25.4210   15.7300   15.0440 O   0  0  0  0  0  0  0  0  0  0  0  0
   25.0150   17.7710   14.1200 N   0  0  0  0  0  0  0  0  0  0  0  0
   26.0060   18.4800   14.9100 C   0  0  2  0  0  0  0  0  0  0  0  0
   25.8590   18.1920   16.4000 C   0  0  0  0  0  0  0  0  0  0  0  0
   26.9060   18.9750   17.1750 C   0  0  0  0  0  0  0  0  0  0  0  0
   26.8170   20.4540   16.8800 C   0  0  0  0  0  0  0  0  0  0  0  0
   27.0820   21.3100   17.7170 O   0  0  0  0  0  0  0  0  0  0  0  0
   26.4560   20.8030   15.6020 N   0  0  0  0  0  0  0  0  0  0  0  0
   25.8560   19.9870   14.6740 C   0  0  0  0  0  0  0  0  0  0  0  0
   25.2590   20.4580   13.7090 O   0  0  0  0  0  0  0  0  0  0  0  0
   22.7490   15.3060   13.5790 N   0  0  0  0  0  0  0  0  0  0  0  0
   22.1070   14.9150   12.4290 N   0  0  0  0  0  0  0  0  0  0  0  0
   22.8620   15.2560   11.4120 C   0  0  0  0  0  0  0  0  0  0  0  0
   22.6990   15.0980   10.0080 C   0  0  0  0  0  0  0  0  0  0  0  0
   21.2570   15.7580    5.9510 C   0  0  0  0  0  0  0  0  0  0  0  0
   20.0540   16.2880    6.0260 N   0  0  0  0  0  0  0  0  0  0  0  0
   18.9504   19.6134    8.5356 H   0  0  0  0  0  0  0  0  0  0  0  0
   19.8320   19.3891    6.9867 H   0  0  0  0  0  0  0  0  0  0  0  0
   18.0430   19.5504    6.9867 H   0  0  0  0  0  0  0  0  0  0  0  0
   18.5719   17.4055    8.7324 H   0  0  0  0  0  0  0  0  0  0  0  0
   17.9477   17.3191    7.0284 H   0  0  0  0  0  0  0  0  0  0  0  0
   21.4561   17.1245    8.9332 H   0  0  0  0  0  0  0  0  0  0  0  0
   25.6466   16.5524    8.9972 H   0  0  0  0  0  0  0  0  0  0  0  0
   25.9186   16.8234   11.4235 H   0  0  0  0  0  0  0  0  0  0  0  0
   24.4278   18.3085   13.4663 H   0  0  0  0  0  0  0  0  0  0  0  0
   27.0005   18.1328   14.5932 H   0  0  0  0  0  0  0  0  0  0  0  0
   24.8550   18.4929   16.7340 H   0  0  0  0  0  0  0  0  0  0  0  0
   25.9992   17.1160   16.5802 H   0  0  0  0  0  0  0  0  0  0  0  0
   26.7487   18.8145   18.2518 H   0  0  0  0  0  0  0  0  0  0  0  0
   27.9012   18.6198   16.8692 H   0  0  0  0  0  0  0  0  0  0  0  0
   26.6544   21.7709   15.3108 H   0  0  0  0  0  0  0  0  0  0  0  0
   21.7939   14.6202    9.6049 H   0  0  0  0  0  0  0  0  0  0  0  0
   21.6264   15.1601    5.1048 H   0  0  0  0  0  0  0  0  0  0  0  0
  1  2  1  0
  2  3  1  0
  3  4  2  0
  4  5  1  0
  5  6  1  0
  6  7  2  0
  6  8  2  0
  6  9  1  0
  9 10  1  0
 10 11  2  0
 11 12  1  0
 12 13  1  0
 13 14  1  0
 14 15  2  0
 14 16  1  0
 16 17  1  0
 17 18  1  0
 18 19  1  0
 19 20  1  0
 20 21  2  0
 20 22  1  0
 22 23  1  0
 23 24  2  0
 13 25  2  0
 25 26  1  0
 26 27  2  0
 27 28  1  0
  5 29  1  0
 29 30  2  0
 30  3  1  0
 28  9  2  0
 27 12  1  0
 23 17  1  0
  1 31  1  0
  1 32  1  0
  1 33  1  0
  2 34  1  0
  2 35  1  0
  4 36  1  0
 10 37  1  0
 11 38  1  0
 16 39  1  0
 17 40  1  6
 18 41  1  0
 18 42  1  0
 19 43  1  0
 19 44  1  0
 22 45  1  0
 28 46  1  0
 29 47  1  0
M  END
>  <meeko>  (345) 
{"is_sidechain": [true], "free_energy": -10.92, "intermolecular_energy": 0.0, "internal_energy": -10.92, "cluster_size": 17, "cluster_id": 1, "rank_in_cluster": 1}

>  <_RMSD_MCS_to_ref>  (345) 
0.8337224424897718

$$$$
ligand
     RDKit          3D

 47 50  0  0  0  0  0  0  0  0999 V2000
   18.9090   19.1540    7.5370 C   0  0  0  0  0  0  0  0  0  0  0  0
   18.7730   17.6460    7.6780 C   0  0  0  0  0  0  0  0  0  0  0  0
   20.0940   16.9610    7.6830 C   0  0  0  0  0  0  0  0  0  0  0  0
   20.8500   16.5460    8.7610 C   0  0  0  0  0  0  0  0  0  0  0  0
   21.9520   15.9620    8.1990 N   0  0  0  0  0  0  0  0  0  0  0  0
   23.3770   15.5560    9.0110 S   0  0  0  0  0  6  0  0  0  0  0  0
   23.6830   14.2100    8.5570 O   0  0  0  0  0  0  0  0  0  0  0  0
   24.2620   16.6850    8.7820 O   0  0  0  0  0  0  0  0  0  0  0  0
   22.8630   15.5250   10.7180 C   0  0  0  0  0  0  0  0  0  0  0  0
   23.4500   16.4460   11.5070 N   0  0  0  0  0  0  0  0  0  0  0  0
   23.1140   16.4220   12.8150 C   0  0  0  0  0  0  0  0  0  0  0  0
   23.7770   17.3980   13.7170 C   0  0  0  0  0  0  0  0  0  0  0  0
   23.2530   17.7390   14.7710 O   0  0  0  0  0  0  0  0  0  0  0  0
   25.0050   17.8450   13.2670 N   0  0  0  0  0  0  0  0  0  0  0  0
   25.9670   18.4250   14.1890 C   0  0  2  0  0  0  0  0  0  0  0  0
   25.7160   17.9370   15.6090 C   0  0  0  0  0  0  0  0  0  0  0  0
   26.7250   18.5740   16.5500 C   0  0  0  0  0  0  0  0  0  0  0  0
   26.6870   20.0820   16.4590 C   0  0  0  0  0  0  0  0  0  0  0  0
   26.9270   20.8030   17.4230 O   0  0  0  0  0  0  0  0  0  0  0  0
   26.4070   20.6170   15.2280 N   0  0  0  0  0  0  0  0  0  0  0  0
   25.8440   19.9580   14.1600 C   0  0  0  0  0  0  0  0  0  0  0  0
   25.2990   20.5850   13.2530 O   0  0  0  0  0  0  0  0  0  0  0  0
   22.2050   15.4800   13.2540 C   0  0  0  0  0  0  0  0  0  0  0  0
   21.6850   15.1990   14.4940 N   0  0  0  0  0  0  0  0  0  0  0  0
   20.8030   14.1530   14.3940 C   0  0  0  0  0  0  0  0  0  0  0  0
   20.7640   13.7510   13.0730 C   0  0  0  0  0  0  0  0  0  0  0  0
   21.6510   14.5830   12.3510 C   0  0  0  0  0  0  0  0  0  0  0  0
   21.9640   14.5740   11.0360 N   0  0  0  0  0  0  0  0  0  0  0  0
   21.8540   16.0510    6.8440 C   0  0  0  0  0  0  0  0  0  0  0  0
   20.7460   16.6750    6.4980 N   0  0  0  0  0  0  0  0  0  0  0  0
   18.9504   19.6134    8.5356 H   0  0  0  0  0  0  0  0  0  0  0  0
   19.8320   19.3891    6.9867 H   0  0  0  0  0  0  0  0  0  0  0  0
   18.0430   19.5504    6.9867 H   0  0  0  0  0  0  0  0  0  0  0  0
   18.2550   17.4237    8.6226 H   0  0  0  0  0  0  0  0  0  0  0  0
   18.2036   17.2757    6.8127 H   0  0  0  0  0  0  0  0  0  0  0  0
   20.6185   16.6593    9.8304 H   0  0  0  0  0  0  0  0  0  0  0  0
   25.2408   17.7662   12.2675 H   0  0  0  0  0  0  0  0  0  0  0  0
   26.9761   18.1168   13.8780 H   0  0  0  0  0  0  0  0  0  0  0  0
   24.6983   18.2174   15.9184 H   0  0  0  0  0  0  0  0  0  0  0  0
   25.8220   16.8427   15.6445 H   0  0  0  0  0  0  0  0  0  0  0  0
   26.4929   18.2716   17.5818 H   0  0  0  0  0  0  0  0  0  0  0  0
   27.7307   18.2346   16.2611 H   0  0  0  0  0  0  0  0  0  0  0  0
   26.6414   21.6104   15.0894 H   0  0  0  0  0  0  0  0  0  0  0  0
   21.9209   15.6967   15.3644 H   0  0  0  0  0  0  0  0  0  0  0  0
   20.2275   13.7116   15.2211 H   0  0  0  0  0  0  0  0  0  0  0  0
   20.1550   12.9340   12.6588 H   0  0  0  0  0  0  0  0  0  0  0  0
   22.5973   15.6564    6.1356 H   0  0  0  0  0  0  0  0  0  0  0  0
  1  2  1  0
  2  3  1  0
  3  4  2  0
  4  5  1  0
  5  6  1  0
  6  7  2  0
  6  8  2  0
  6  9  1  0
  9 10  2  0
 10 11  1  0
 11 12  1  0
 12 13  2  0
 12 14  1  0
 14 15  1  0
 15 16  1  0
 16 17  1  0
 17 18  1  0
 18 19  2  0
 18 20  1  0
 20 21  1  0
 21 22  2  0
 11 23  2  0
 23 24  1  0
 24 25  1  0
 25 26  2  0
 26 27  1  0
 27 28  2  0
  5 29  1  0
 29 30  2  0
 30  3  1  0
 28  9  1  0
 21 15  1  0
 27 23  1  0
  1 31  1  0
  1 32  1  0
  1 33  1  0
  2 34  1  0
  2 35  1  0
  4 36  1  0
 14 37  1  0
 15 38  1  6
 16 39  1  0
 16 40  1  0
 17 41  1  0
 17 42  1  0
 20 43  1  0
 24 44  1  0
 25 45  1  0
 26 46  1  0
 29 47  1  0
M  END
>  <meeko>  (346) 
{"is_sidechain": [true], "free_energy": -10.92, "intermolecular_energy": 0.0, "internal_energy": -10.92, "cluster_size": 20, "cluster_id": 1, "rank_in_cluster": 1}

>  <_RMSD_MCS_to_ref>  (346) 
0.6655869590068603

$$$$
ligand
     RDKit          3D

 47 50  0  0  0  0  0  0  0  0999 V2000
   18.9090   19.1540    7.5370 C   0  0  0  0  0  0  0  0  0  0  0  0
   18.7730   17.6460    7.6780 C   0  0  0  0  0  0  0  0  0  0  0  0
   20.0870   16.9530    7.5970 C   0  0  0  0  0  0  0  0  0  0  0  0
   20.9120   16.5310    8.6210 C   0  0  0  0  0  0  0  0  0  0  0  0
   21.9670   15.9450    7.9840 N   0  0  0  0  0  0  0  0  0  0  0  0
   23.4000   15.4400    8.6990 S   0  0  0  0  0  6  0  0  0  0  0  0
   23.5730   14.0490    8.3350 O   0  0  0  0  0  0  0  0  0  0  0  0
   24.3770   16.4620    8.3720 O   0  0  0  0  0  0  0  0  0  0  0  0
   23.0650   15.5200   10.4440 C   0  0  0  0  0  0  0  0  0  0  0  0
   23.8220   16.3870   11.2420 C   0  0  0  0  0  0  0  0  0  0  0  0
   23.5870   16.4800   12.6290 C   0  0  0  0  0  0  0  0  0  0  0  0
   24.4180   17.3980   13.4430 C   0  0  0  0  0  0  0  0  0  0  0  0
   25.5420   17.7000   13.0530 O   0  0  0  0  0  0  0  0  0  0  0  0
   23.8900   17.8680   14.6200 N   0  0  0  0  0  0  0  0  0  0  0  0
   24.6610   18.7130   15.5200 C   0  0  1  0  0  0  0  0  0  0  0  0
   25.7870   17.9370   16.1950 C   0  0  0  0  0  0  0  0  0  0  0  0
   26.5660   18.8660   17.1140 C   0  0  0  0  0  0  0  0  0  0  0  0
   27.0860   20.0690   16.3650 C   0  0  0  0  0  0  0  0  0  0  0  0
   28.1450   20.6170   16.6550 O   0  0  0  0  0  0  0  0  0  0  0  0
   26.2960   20.5510   15.3530 N   0  0  0  0  0  0  0  0  0  0  0  0
   25.2580   19.8900   14.7410 C   0  0  0  0  0  0  0  0  0  0  0  0
   24.8380   20.2560   13.6440 O   0  0  0  0  0  0  0  0  0  0  0  0
   22.5600   15.6960   13.1810 C   0  0  0  0  0  0  0  0  0  0  0  0
   22.0940   15.5790   14.4660 N   0  0  0  0  0  0  0  0  0  0  0  0
   21.0940   14.7080   14.4710 N   0  0  0  0  0  0  0  0  0  0  0  0
   20.9270   14.2750   13.2130 N   0  0  0  0  0  0  0  0  0  0  0  0
   21.8180   14.8580   12.3530 C   0  0  0  0  0  0  0  0  0  0  0  0
   22.0320   14.7350   10.9780 C   0  0  0  0  0  0  0  0  0  0  0  0
   21.7930   16.0560    6.6410 C   0  0  0  0  0  0  0  0  0  0  0  0
   20.6540   16.6600    6.3710 N   0  0  0  0  0  0  0  0  0  0  0  0
   18.9504   19.6134    8.5356 H   0  0  0  0  0  0  0  0  0  0  0  0
   19.8320   19.3891    6.9867 H   0  0  0  0  0  0  0  0  0  0  0  0
   18.0430   19.5504    6.9867 H   0  0  0  0  0  0  0  0  0  0  0  0
   18.3135   17.4213    8.6518 H   0  0  0  0  0  0  0  0  0  0  0  0
   18.1488   17.2842    6.8477 H   0  0  0  0  0  0  0  0  0  0  0  0
   20.7545   16.6420    9.7040 H   0  0  0  0  0  0  0  0  0  0  0  0
   24.6088   17.0024   10.7813 H   0  0  0  0  0  0  0  0  0  0  0  0
   22.9237   17.6162   14.8725 H   0  0  0  0  0  0  0  0  0  0  0  0
   23.9783   19.0798   16.3007 H   0  0  0  0  0  0  0  0  0  0  0  0
   25.3610   17.1115   16.7842 H   0  0  0  0  0  0  0  0  0  0  0  0
   26.4624   17.5307   15.4277 H   0  0  0  0  0  0  0  0  0  0  0  0
   25.9041   19.2067   17.9238 H   0  0  0  0  0  0  0  0  0  0  0  0
   27.4250   18.3121   17.5205 H   0  0  0  0  0  0  0  0  0  0  0  0
   26.5010   21.5033   15.0182 H   0  0  0  0  0  0  0  0  0  0  0  0
   20.2149   13.5874   12.9285 H   0  0  0  0  0  0  0  0  0  0  0  0
   21.4269   14.0630   10.3516 H   0  0  0  0  0  0  0  0  0  0  0  0
   22.5041   15.6922    5.8847 H   0  0  0  0  0  0  0  0  0  0  0  0
  1  2  1  0
  2  3  1  0
  3  4  2  0
  4  5  1  0
  5  6  1  0
  6  7  2  0
  6  8  2  0
  6  9  1  0
  9 10  2  0
 10 11  1  0
 11 12  1  0
 12 13  2  0
 12 14  1  0
 14 15  1  0
 15 16  1  0
 16 17  1  0
 17 18  1  0
 18 19  2  0
 18 20  1  0
 20 21  1  0
 21 22  2  0
 11 23  2  0
 23 24  1  0
 24 25  2  0
 25 26  1  0
 26 27  1  0
 27 28  2  0
  5 29  1  0
 29 30  2  0
 30  3  1  0
 28  9  1  0
 21 15  1  0
 27 23  1  0
  1 31  1  0
  1 32  1  0
  1 33  1  0
  2 34  1  0
  2 35  1  0
  4 36  1  0
 10 37  1  0
 14 38  1  0
 15 39  1  1
 16 40  1  0
 16 41  1  0
 17 42  1  0
 17 43  1  0
 20 44  1  0
 26 45  1  0
 28 46  1  0
 29 47  1  0
M  END
>  <meeko>  (347) 
{"is_sidechain": [true], "free_energy": -10.92, "intermolecular_energy": 0.0, "internal_energy": -10.92, "cluster_size": 20, "cluster_id": 1, "rank_in_cluster": 1}

>  <_RMSD_MCS_to_ref>  (347) 
0.7249691181162281

$$$$
ligand
     RDKit          3D

 50 53  0  0  0  0  0  0  0  0999 V2000
   18.9090   19.1540    7.5370 C   0  0  0  0  0  0  0  0  0  0  0  0
   18.7730   17.6460    7.6780 C   0  0  0  0  0  0  0  0  0  0  0  0
   20.0850   16.9520    7.5820 C   0  0  0  0  0  0  0  0  0  0  0  0
   21.0320   16.7400    8.5660 C   0  0  0  0  0  0  0  0  0  0  0  0
   22.0180   16.0360    7.9370 N   0  0  0  0  0  0  0  0  0  0  0  0
   23.5310   15.6850    8.5740 S   0  0  0  0  0  6  0  0  0  0  0  0
   24.3710   16.8270    8.2740 O   0  0  0  0  0  0  0  0  0  0  0  0
   23.8490   14.3430    8.1250 O   0  0  0  0  0  0  0  0  0  0  0  0
   23.2500   15.6380   10.3240 C   0  0  0  0  0  0  0  0  0  0  0  0
   24.0050   16.4540   11.1650 C   0  0  0  0  0  0  0  0  0  0  0  0
   23.7780   16.4150   12.5480 C   0  0  0  0  0  0  0  0  0  0  0  0
   24.6180   17.2800   13.4140 C   0  0  0  0  0  0  0  0  0  0  0  0
   25.8380   17.2530   13.3320 O   0  0  0  0  0  0  0  0  0  0  0  0
   23.9300   18.0840   14.2920 N   0  0  0  0  0  0  0  0  0  0  0  0
   24.6290   18.8650   15.3060 C   0  0  1  0  0  0  0  0  0  0  0  0
   25.6400   18.0290   16.0810 C   0  0  0  0  0  0  0  0  0  0  0  0
   26.3610   18.9110   17.0890 C   0  0  0  0  0  0  0  0  0  0  0  0
   27.0090   20.0970   16.4150 C   0  0  0  0  0  0  0  0  0  0  0  0
   28.0680   20.5800   16.8060 O   0  0  0  0  0  0  0  0  0  0  0  0
   26.3390   20.6390   15.3470 N   0  0  0  0  0  0  0  0  0  0  0  0
   25.3600   20.0190   14.6130 C   0  0  0  0  0  0  0  0  0  0  0  0
   25.0890   20.3850   13.4700 O   0  0  0  0  0  0  0  0  0  0  0  0
   22.7900   15.5550   13.1010 C   0  0  0  0  0  0  0  0  0  0  0  0
   22.4820   15.4400   14.4690 C   0  0  0  0  0  0  0  0  0  0  0  0
   21.5210   14.6380   14.9850 N   0  0  0  0  0  0  0  0  0  0  0  0
   20.8190   13.8920   14.1120 C   0  0  0  0  0  0  0  0  0  0  0  0
   21.0300   13.9150   12.7450 C   0  0  0  0  0  0  0  0  0  0  0  0
   22.0220   14.7530   12.2250 C   0  0  0  0  0  0  0  0  0  0  0  0
   22.2550   14.8040   10.8410 C   0  0  0  0  0  0  0  0  0  0  0  0
   21.6900   15.8810    6.6290 C   0  0  0  0  0  0  0  0  0  0  0  0
   20.5140   16.4190    6.3810 N   0  0  0  0  0  0  0  0  0  0  0  0
   18.9504   19.6134    8.5356 H   0  0  0  0  0  0  0  0  0  0  0  0
   19.8320   19.3891    6.9867 H   0  0  0  0  0  0  0  0  0  0  0  0
   18.0430   19.5504    6.9867 H   0  0  0  0  0  0  0  0  0  0  0  0
   18.3239   17.4208    8.6566 H   0  0  0  0  0  0  0  0  0  0  0  0
   18.1394   17.2857    6.8542 H   0  0  0  0  0  0  0  0  0  0  0  0
   20.9988   17.0645    9.6165 H   0  0  0  0  0  0  0  0  0  0  0  0
   24.7721   17.1226   10.7473 H   0  0  0  0  0  0  0  0  0  0  0  0
   22.9030   18.1356   14.2325 H   0  0  0  0  0  0  0  0  0  0  0  0
   23.8846   19.2373   16.0252 H   0  0  0  0  0  0  0  0  0  0  0  0
   25.1169   17.2191   16.6105 H   0  0  0  0  0  0  0  0  0  0  0  0
   26.3716   17.5976   15.3820 H   0  0  0  0  0  0  0  0  0  0  0  0
   25.6352   19.2733   17.8319 H   0  0  0  0  0  0  0  0  0  0  0  0
   27.1478   18.3138   17.5731 H   0  0  0  0  0  0  0  0  0  0  0  0
   26.5943   21.5981   15.0717 H   0  0  0  0  0  0  0  0  0  0  0  0
   23.0673   16.0488   15.1738 H   0  0  0  0  0  0  0  0  0  0  0  0
   20.0355   13.2284   14.5066 H   0  0  0  0  0  0  0  0  0  0  0  0
   20.4264   13.2834   12.0766 H   0  0  0  0  0  0  0  0  0  0  0  0
   21.6516   14.1847   10.1609 H   0  0  0  0  0  0  0  0  0  0  0  0
   22.3188   15.3764    5.8807 H   0  0  0  0  0  0  0  0  0  0  0  0
  1  2  1  0
  2  3  1  0
  3  4  2  0
  4  5  1  0
  5  6  1  0
  6  7  2  0
  6  8  2  0
  6  9  1  0
  9 10  2  0
 10 11  1  0
 11 12  1  0
 12 13  2  0
 12 14  1  0
 14 15  1  0
 15 16  1  0
 16 17  1  0
 17 18  1  0
 18 19  2  0
 18 20  1  0
 20 21  1  0
 21 22  2  0
 11 23  2  0
 23 24  1  0
 24 25  2  0
 25 26  1  0
 26 27  2  0
 27 28  1  0
 28 29  2  0
  5 30  1  0
 30 31  2  0
 31  3  1  0
 29  9  1  0
 21 15  1  0
 28 23  1  0
  1 32  1  0
  1 33  1  0
  1 34  1  0
  2 35  1  0
  2 36  1  0
  4 37  1  0
 10 38  1  0
 14 39  1  0
 15 40  1  1
 16 41  1  0
 16 42  1  0
 17 43  1  0
 17 44  1  0
 20 45  1  0
 24 46  1  0
 26 47  1  0
 27 48  1  0
 29 49  1  0
 30 50  1  0
M  END
>  <meeko>  (348) 
{"is_sidechain": [true], "free_energy": -10.92, "intermolecular_energy": 0.0, "internal_energy": -10.92, "cluster_size": 20, "cluster_id": 1, "rank_in_cluster": 1}

>  <_RMSD_MCS_to_ref>  (348) 
0.6683879445684551

$$$$
ligand
     RDKit          3D

 49 53  0  0  0  0  0  0  0  0999 V2000
   18.9090   19.1540    7.5370 C   0  0  0  0  0  0  0  0  0  0  0  0
   18.7730   17.6460    7.6780 C   0  0  0  0  0  0  0  0  0  0  0  0
   19.8680   16.9160    6.9840 C   0  0  0  0  0  0  0  0  0  0  0  0
   20.7820   16.0200    7.5030 C   0  0  0  0  0  0  0  0  0  0  0  0
   21.5340   15.6470    6.4270 N   0  0  0  0  0  0  0  0  0  0  0  0
   22.9470   14.7380    6.4840 S   0  0  0  0  0  6  0  0  0  0  0  0
   23.7210   15.1320    5.3230 O   0  0  0  0  0  0  0  0  0  0  0  0
   22.5270   13.3700    6.7110 O   0  0  0  0  0  0  0  0  0  0  0  0
   23.7630   15.3350    7.9440 C   0  0  0  0  0  0  0  0  0  0  0  0
   25.0450   15.8920    7.8340 C   0  0  0  0  0  0  0  0  0  0  0  0
   25.7130   16.3740    8.9650 C   0  0  0  0  0  0  0  0  0  0  0  0
   25.0390   16.2750   10.1810 C   0  0  0  0  0  0  0  0  0  0  0  0
   25.5250   16.6860   11.3860 O   0  0  0  0  0  0  0  0  0  0  0  0
   24.5600   16.4170   12.3090 C   0  0  0  0  0  0  0  0  0  0  0  0
   24.5590   16.6510   13.6700 C   0  0  0  0  0  0  0  0  0  0  0  0
   25.9300   17.3880   14.4990 S   0  0  0  0  0  0  0  0  0  0  0  0
   25.0520   18.7660   15.3280 C   0  0  1  0  0  0  0  0  0  0  0  0
   25.2100   18.7030   16.8470 C   0  0  0  0  0  0  0  0  0  0  0  0
   26.6360   18.9950   17.2920 C   0  0  0  0  0  0  0  0  0  0  0  0
   27.1370   20.2950   16.7140 C   0  0  0  0  0  0  0  0  0  0  0  0
   28.0310   20.9490   17.2450 O   0  0  0  0  0  0  0  0  0  0  0  0
   26.5790   20.7010   15.5280 N   0  0  0  0  0  0  0  0  0  0  0  0
   25.5890   20.0890   14.7970 C   0  0  0  0  0  0  0  0  0  0  0  0
   25.2040   20.5890   13.7400 O   0  0  0  0  0  0  0  0  0  0  0  0
   23.4660   16.2870   14.3780 N   0  0  0  0  0  0  0  0  0  0  0  0
   22.4390   15.7250   13.7080 C   0  0  0  0  0  0  0  0  0  0  0  0
   22.3530   15.4600   12.3930 N   0  0  0  0  0  0  0  0  0  0  0  0
   23.4580   15.8340   11.7040 C   0  0  0  0  0  0  0  0  0  0  0  0
   23.7610   15.7370   10.3220 C   0  0  0  0  0  0  0  0  0  0  0  0
   23.0970   15.2580    9.1770 C   0  0  0  0  0  0  0  0  0  0  0  0
   21.1140   16.3290    5.3310 C   0  0  0  0  0  0  0  0  0  0  0  0
   20.0930   17.1040    5.6330 N   0  0  0  0  0  0  0  0  0  0  0  0
   18.9504   19.6134    8.5356 H   0  0  0  0  0  0  0  0  0  0  0  0
   19.8320   19.3891    6.9867 H   0  0  0  0  0  0  0  0  0  0  0  0
   18.0430   19.5504    6.9867 H   0  0  0  0  0  0  0  0  0  0  0  0
   18.7960   17.3866    8.7467 H   0  0  0  0  0  0  0  0  0  0  0  0
   17.8212   17.3478    7.2142 H   0  0  0  0  0  0  0  0  0  0  0  0
   20.8812   15.6838    8.5457 H   0  0  0  0  0  0  0  0  0  0  0  0
   25.5305   15.9506    6.8487 H   0  0  0  0  0  0  0  0  0  0  0  0
   26.7208   16.8097    8.8978 H   0  0  0  0  0  0  0  0  0  0  0  0
   23.9780   18.6797   15.1066 H   0  0  0  0  0  0  0  0  0  0  0  0
   24.5381   19.4446   17.3036 H   0  0  0  0  0  0  0  0  0  0  0  0
   24.9593   17.6816   17.1693 H   0  0  0  0  0  0  0  0  0  0  0  0
   26.6627   19.0575   18.3899 H   0  0  0  0  0  0  0  0  0  0  0  0
   27.2845   18.1829   16.9316 H   0  0  0  0  0  0  0  0  0  0  0  0
   26.9500   21.5777   15.1347 H   0  0  0  0  0  0  0  0  0  0  0  0
   21.5627   15.4492   14.3131 H   0  0  0  0  0  0  0  0  0  0  0  0
   22.0840   14.8350    9.2467 H   0  0  0  0  0  0  0  0  0  0  0  0
   21.5636   16.2459    4.3305 H   0  0  0  0  0  0  0  0  0  0  0  0
  1  2  1  0
  2  3  1  0
  3  4  2  0
  4  5  1  0
  5  6  1  0
  6  7  2  0
  6  8  2  0
  6  9  1  0
  9 10  2  0
 10 11  1  0
 11 12  2  0
 12 13  1  0
 13 14  1  0
 14 15  2  0
 15 16  1  0
 16 17  1  0
 17 18  1  0
 18 19  1  0
 19 20  1  0
 20 21  2  0
 20 22  1  0
 22 23  1  0
 23 24  2  0
 15 25  1  0
 25 26  2  0
 26 27  1  0
 27 28  2  0
 28 29  1  0
 29 30  2  0
  5 31  1  0
 31 32  2  0
 32  3  1  0
 30  9  1  0
 29 12  1  0
 28 14  1  0
 23 17  1  0
  1 33  1  0
  1 34  1  0
  1 35  1  0
  2 36  1  0
  2 37  1  0
  4 38  1  0
 10 39  1  0
 11 40  1  0
 17 41  1  1
 18 42  1  0
 18 43  1  0
 19 44  1  0
 19 45  1  0
 22 46  1  0
 26 47  1  0
 30 48  1  0
 31 49  1  0
M  END
>  <meeko>  (349) 
{"is_sidechain": [true], "free_energy": -10.92, "intermolecular_energy": 0.0, "internal_energy": -10.92, "cluster_size": 20, "cluster_id": 1, "rank_in_cluster": 1}

>  <_RMSD_MCS_to_ref>  (349) 
0.9075534419525939

$$$$
ligand
     RDKit          3D

 49 53  0  0  0  0  0  0  0  0999 V2000
   18.9090   19.1540    7.5370 C   0  0  0  0  0  0  0  0  0  0  0  0
   18.7730   17.6460    7.6780 C   0  0  0  0  0  0  0  0  0  0  0  0
   19.9610   16.9230    7.1490 C   0  0  0  0  0  0  0  0  0  0  0  0
   21.2470   16.8780    7.6530 C   0  0  0  0  0  0  0  0  0  0  0  0
   21.9140   16.0520    6.7940 N   0  0  0  0  0  0  0  0  0  0  0  0
   23.5740   15.7890    6.7710 S   0  0  0  0  0  6  0  0  0  0  0  0
   24.1730   17.0770    6.4810 O   0  0  0  0  0  0  0  0  0  0  0  0
   23.7820   14.6260    5.9310 O   0  0  0  0  0  0  0  0  0  0  0  0
   23.9470   15.3490    8.4470 C   0  0  0  0  0  0  0  0  0  0  0  0
   24.5370   14.1110    8.7250 C   0  0  0  0  0  0  0  0  0  0  0  0
   24.8230   13.7660   10.0470 C   0  0  0  0  0  0  0  0  0  0  0  0
   24.5080   14.6580   11.0740 C   0  0  0  0  0  0  0  0  0  0  0  0
   23.8990   15.9040   10.7980 C   0  0  0  0  0  0  0  0  0  0  0  0
   23.6180   16.2400    9.4750 C   0  0  0  0  0  0  0  0  0  0  0  0
   23.5590   16.8280   11.8190 N   0  0  0  0  0  0  0  0  0  0  0  0
   23.8020   16.5160   13.0670 C   0  0  0  0  0  0  0  0  0  0  0  0
   23.3520   17.6720   14.3140 S   0  0  0  0  0  0  0  0  0  0  0  0
   25.0140   18.3010   14.7310 C   0  0  2  0  0  0  0  0  0  0  0  0
   25.2040   18.1920   16.2440 C   0  0  0  0  0  0  0  0  0  0  0  0
   26.5710   18.7380   16.6260 C   0  0  0  0  0  0  0  0  0  0  0  0
   26.7310   20.1670   16.1680 C   0  0  0  0  0  0  0  0  0  0  0  0
   27.5030   20.9500   16.7130 O   0  0  0  0  0  0  0  0  0  0  0  0
   26.0150   20.5350   15.0570 N   0  0  0  0  0  0  0  0  0  0  0  0
   25.1890   19.7530   14.2810 C   0  0  0  0  0  0  0  0  0  0  0  0
   24.6930   20.2220   13.2560 O   0  0  0  0  0  0  0  0  0  0  0  0
   24.4150   15.3010   13.4040 N   0  0  0  0  0  0  0  0  0  0  0  0
   24.7590   14.8900   14.6460 N   0  0  0  0  0  0  0  0  0  0  0  0
   25.3020   13.6980   14.3800 C   0  0  0  0  0  0  0  0  0  0  0  0
   25.3440   13.3410   13.0570 N   0  0  0  0  0  0  0  0  0  0  0  0
   24.7780   14.3710   12.4670 C   0  0  0  0  0  0  0  0  0  0  0  0
   21.0720   15.6690    5.8000 C   0  0  0  0  0  0  0  0  0  0  0  0
   19.8720   16.1750    5.9920 N   0  0  0  0  0  0  0  0  0  0  0  0
   18.9504   19.6134    8.5356 H   0  0  0  0  0  0  0  0  0  0  0  0
   19.8320   19.3891    6.9867 H   0  0  0  0  0  0  0  0  0  0  0  0
   18.0430   19.5504    6.9867 H   0  0  0  0  0  0  0  0  0  0  0  0
   18.6533   17.3991    8.7432 H   0  0  0  0  0  0  0  0  0  0  0  0
   17.8968   17.3296    7.0930 H   0  0  0  0  0  0  0  0  0  0  0  0
   21.6427   17.3902    8.5424 H   0  0  0  0  0  0  0  0  0  0  0  0
   24.7738   13.4144    7.9073 H   0  0  0  0  0  0  0  0  0  0  0  0
   25.2930   12.7987   10.2780 H   0  0  0  0  0  0  0  0  0  0  0  0
   23.1394   17.2020    9.2395 H   0  0  0  0  0  0  0  0  0  0  0  0
   25.7708   17.7006   14.2048 H   0  0  0  0  0  0  0  0  0  0  0  0
   24.4218   18.7732   16.7542 H   0  0  0  0  0  0  0  0  0  0  0  0
   25.1341   17.1367   16.5463 H   0  0  0  0  0  0  0  0  0  0  0  0
   26.6820   18.6964   17.7196 H   0  0  0  0  0  0  0  0  0  0  0  0
   27.3420   18.1251   16.1363 H   0  0  0  0  0  0  0  0  0  0  0  0
   26.1068   21.5191   14.7672 H   0  0  0  0  0  0  0  0  0  0  0  0
   25.6913   13.0436   15.1739 H   0  0  0  0  0  0  0  0  0  0  0  0
   21.3532   15.0260    4.9530 H   0  0  0  0  0  0  0  0  0  0  0  0
  1  2  1  0
  2  3  1  0
  3  4  2  0
  4  5  1  0
  5  6  1  0
  6  7  2  0
  6  8  2  0
  6  9  1  0
  9 10  2  0
 10 11  1  0
 11 12  2  0
 12 13  1  0
 13 14  2  0
 13 15  1  0
 15 16  2  0
 16 17  1  0
 17 18  1  0
 18 19  1  0
 19 20  1  0
 20 21  1  0
 21 22  2  0
 21 23  1  0
 23 24  1  0
 24 25  2  0
 16 26  1  0
 26 27  1  0
 27 28  2  0
 28 29  1  0
 29 30  2  0
  5 31  1  0
 31 32  2  0
 32  3  1  0
 14  9  1  0
 24 18  1  0
 30 26  1  0
 30 12  1  0
  1 33  1  0
  1 34  1  0
  1 35  1  0
  2 36  1  0
  2 37  1  0
  4 38  1  0
 10 39  1  0
 11 40  1  0
 14 41  1  0
 18 42  1  6
 19 43  1  0
 19 44  1  0
 20 45  1  0
 20 46  1  0
 23 47  1  0
 28 48  1  0
 31 49  1  0
M  END
>  <meeko>  (350) 
{"is_sidechain": [true], "free_energy": -10.92, "intermolecular_energy": 0.0, "internal_energy": -10.92, "cluster_size": 20, "cluster_id": 1, "rank_in_cluster": 1}

>  <_RMSD_MCS_to_ref>  (350) 
0.474306335610226

$$$$
ligand
     RDKit          3D

 51 54  0  0  0  0  0  0  0  0999 V2000
   18.7970   18.8170    7.7190 C   0  0  0  0  0  0  0  0  0  0  0  0
   18.5280   17.3290    7.8810 C   0  0  0  0  0  0  0  0  0  0  0  0
   19.7850   16.5370    7.9710 C   0  0  0  0  0  0  0  0  0  0  0  0
   20.0370   15.3850    8.6890 C   0  0  0  0  0  0  0  0  0  0  0  0
   21.3380   15.0910    8.4000 N   0  0  0  0  0  0  0  0  0  0  0  0
   22.1990   13.7700    8.9780 S   0  0  0  0  0  6  0  0  0  0  0  0
   21.2280   12.7550    9.3360 O   0  0  0  0  0  0  0  0  0  0  0  0
   23.2120   13.5360    7.9670 O   0  0  0  0  0  0  0  0  0  0  0  0
   22.9940   14.3610   10.4640 C   0  0  0  0  0  0  0  0  0  0  0  0
   24.2980   14.8550   10.3070 C   0  0  0  0  0  0  0  0  0  0  0  0
   24.9750   15.3830   11.3940 C   0  0  0  0  0  0  0  0  0  0  0  0
   24.3560   15.4180   12.6470 C   0  0  0  0  0  0  0  0  0  0  0  0
   25.1870   15.9710   13.7440 C   0  0  0  0  0  0  0  0  0  0  0  0
   25.5300   15.2590   14.6790 O   0  0  0  0  0  0  0  0  0  0  0  0
   25.4730   17.3110   13.6540 N   0  0  0  0  0  0  0  0  0  0  0  0
   26.3410   17.9720   14.6160 C   0  0  2  0  0  0  0  0  0  0  0  0
   25.8540   17.7850   16.0480 C   0  0  0  0  0  0  0  0  0  0  0  0
   26.7850   18.5190   17.0010 C   0  0  0  0  0  0  0  0  0  0  0  0
   26.9040   19.9800   16.6320 C   0  0  0  0  0  0  0  0  0  0  0  0
   27.0510   20.8620   17.4720 O   0  0  0  0  0  0  0  0  0  0  0  0
   26.8720   20.2810   15.2930 N   0  0  0  0  0  0  0  0  0  0  0  0
   26.3930   19.4690   14.2950 C   0  0  0  0  0  0  0  0  0  0  0  0
   26.0410   19.9330   13.2110 O   0  0  0  0  0  0  0  0  0  0  0  0
   23.0310   14.9440   12.8380 C   0  0  0  0  0  0  0  0  0  0  0  0
   22.3640   15.0370   14.0850 C   0  0  0  0  0  0  0  0  0  0  0  0
   21.0790   14.5400   14.2770 C   0  0  0  0  0  0  0  0  0  0  0  0
   20.4200   13.9340   13.2250 C   0  0  0  0  0  0  0  0  0  0  0  0
   21.0380   13.8520   11.9760 C   0  0  0  0  0  0  0  0  0  0  0  0
   22.3380   14.3720   11.7310 C   0  0  0  0  0  0  0  0  0  0  0  0
   21.8440   16.0490    7.5840 C   0  0  0  0  0  0  0  0  0  0  0  0
   20.9160   16.9330    7.2820 N   0  0  0  0  0  0  0  0  0  0  0  0
   18.8815   19.2845    8.7111 H   0  0  0  0  0  0  0  0  0  0  0  0
   19.7359   18.9616    7.1643 H   0  0  0  0  0  0  0  0  0  0  0  0
   17.9682   19.2812    7.1643 H   0  0  0  0  0  0  0  0  0  0  0  0
   17.9441   17.1725    8.8000 H   0  0  0  0  0  0  0  0  0  0  0  0
   17.9762   16.9869    6.9931 H   0  0  0  0  0  0  0  0  0  0  0  0
   19.3477   14.8314    9.3435 H   0  0  0  0  0  0  0  0  0  0  0  0
   24.7829   14.8229    9.3201 H   0  0  0  0  0  0  0  0  0  0  0  0
   25.9961   15.7734   11.2717 H   0  0  0  0  0  0  0  0  0  0  0  0
   25.0628   17.8617   12.8863 H   0  0  0  0  0  0  0  0  0  0  0  0
   27.3403   17.5189   14.5382 H   0  0  0  0  0  0  0  0  0  0  0  0
   24.8361   18.1907   16.1449 H   0  0  0  0  0  0  0  0  0  0  0  0
   25.8471   16.7132   16.2956 H   0  0  0  0  0  0  0  0  0  0  0  0
   26.3879   18.4384   18.0237 H   0  0  0  0  0  0  0  0  0  0  0  0
   27.7828   18.0607   16.9351 H   0  0  0  0  0  0  0  0  0  0  0  0
   27.2412   21.2003   15.0113 H   0  0  0  0  0  0  0  0  0  0  0  0
   22.8796   15.5182   14.9292 H   0  0  0  0  0  0  0  0  0  0  0  0
   20.5914   14.6289   15.2590 H   0  0  0  0  0  0  0  0  0  0  0  0
   19.4123   13.5177   13.3709 H   0  0  0  0  0  0  0  0  0  0  0  0
   20.4982   13.3663   11.1497 H   0  0  0  0  0  0  0  0  0  0  0  0
   22.8832   16.0827    7.2251 H   0  0  0  0  0  0  0  0  0  0  0  0
  1  2  1  0
  2  3  1  0
  3  4  2  0
  4  5  1  0
  5  6  1  0
  6  7  2  0
  6  8  2  0
  6  9  1  0
  9 10  2  0
 10 11  1  0
 11 12  2  0
 12 13  1  0
 13 14  2  0
 13 15  1  0
 15 16  1  0
 16 17  1  0
 17 18  1  0
 18 19  1  0
 19 20  2  0
 19 21  1  0
 21 22  1  0
 22 23  2  0
 12 24  1  0
 24 25  2  0
 25 26  1  0
 26 27  2  0
 27 28  1  0
 28 29  2  0
  5 30  1  0
 30 31  2  0
 31  3  1  0
 29  9  1  0
 22 16  1  0
 29 24  1  0
  1 32  1  0
  1 33  1  0
  1 34  1  0
  2 35  1  0
  2 36  1  0
  4 37  1  0
 10 38  1  0
 11 39  1  0
 15 40  1  0
 16 41  1  1
 17 42  1  0
 17 43  1  0
 18 44  1  0
 18 45  1  0
 21 46  1  0
 25 47  1  0
 26 48  1  0
 27 49  1  0
 28 50  1  0
 30 51  1  0
M  END
>  <meeko>  (351) 
{"is_sidechain": [true], "free_energy": -10.91, "intermolecular_energy": 0.0, "internal_energy": -10.91, "cluster_size": 19, "cluster_id": 1, "rank_in_cluster": 1}

>  <_RMSD_MCS_to_ref>  (351) 
0.8307612974455016

$$$$
ligand
     RDKit          3D

 52 56  0  0  0  0  0  0  0  0999 V2000
   18.7970   18.8170    7.7190 C   0  0  0  0  0  0  0  0  0  0  0  0
   18.5280   17.3290    7.8810 C   0  0  0  0  0  0  0  0  0  0  0  0
   19.7830   16.5380    7.9830 C   0  0  0  0  0  0  0  0  0  0  0  0
   20.1910   15.6890    8.9920 C   0  0  0  0  0  0  0  0  0  0  0  0
   21.3960   15.2170    8.5670 N   0  0  0  0  0  0  0  0  0  0  0  0
   22.3330   14.0330    9.3010 S   0  0  0  0  0  6  0  0  0  0  0  0
   22.9590   13.2640    8.2440 O   0  0  0  0  0  0  0  0  0  0  0  0
   21.4410   13.4020   10.2570 O   0  0  0  0  0  0  0  0  0  0  0  0
   23.5760   14.9240   10.2110 C   0  0  0  0  0  0  0  0  0  0  0  0
   23.2140   15.4090   11.4800 C   0  0  0  0  0  0  0  0  0  0  0  0
   24.1580   16.1250   12.1870 C   0  0  0  0  0  0  0  0  0  0  0  0
   25.4330   16.3840   11.6940 C   0  0  0  0  0  0  0  0  0  0  0  0
   25.8050   15.9030   10.4510 C   0  0  0  0  0  0  0  0  0  0  0  0
   24.8780   15.1500    9.6990 C   0  0  0  0  0  0  0  0  0  0  0  0
   25.3360   14.6610    8.4240 C   0  0  0  0  0  0  0  0  0  0  0  0
   26.2490   13.6550    8.2210 C   0  0  0  0  0  0  0  0  0  0  0  0
   26.3580   13.5920    6.8640 N   0  0  0  0  0  0  0  0  0  0  0  0
   25.6000   14.5270    6.2690 N   0  0  0  0  0  0  0  0  0  0  0  0
   24.9740   15.2020    7.2260 N   0  0  0  0  0  0  0  0  0  0  0  0
   26.2030   17.2110   12.6700 C   0  0  0  0  0  0  0  0  0  0  0  0
   25.2840   17.3050   13.7980 N   0  0  0  0  0  0  0  0  0  0  0  0
   25.4640   18.2360   14.9050 C   0  0  1  0  0  0  0  0  0  0  0  0
   26.3330   17.6610   16.0190 C   0  0  0  0  0  0  0  0  0  0  0  0
   26.4040   18.6540   17.1680 C   0  0  0  0  0  0  0  0  0  0  0  0
   26.9070   19.9990   16.6980 C   0  0  0  0  0  0  0  0  0  0  0  0
   27.6330   20.7070   17.3880 O   0  0  0  0  0  0  0  0  0  0  0  0
   26.4990   20.4040   15.4520 N   0  0  0  0  0  0  0  0  0  0  0  0
   26.0670   19.5740   14.4430 C   0  0  0  0  0  0  0  0  0  0  0  0
   26.1860   19.9120   13.2670 O   0  0  0  0  0  0  0  0  0  0  0  0
   24.0440   16.7500   13.5080 C   0  0  0  0  0  0  0  0  0  0  0  0
   23.0380   16.7600   14.1880 O   0  0  0  0  0  0  0  0  0  0  0  0
   21.6920   15.7700    7.3620 C   0  0  0  0  0  0  0  0  0  0  0  0
   20.7300   16.5830    6.9770 N   0  0  0  0  0  0  0  0  0  0  0  0
   18.8815   19.2845    8.7111 H   0  0  0  0  0  0  0  0  0  0  0  0
   19.7359   18.9616    7.1643 H   0  0  0  0  0  0  0  0  0  0  0  0
   17.9682   19.2812    7.1643 H   0  0  0  0  0  0  0  0  0  0  0  0
   17.9363   17.1737    8.7952 H   0  0  0  0  0  0  0  0  0  0  0  0
   17.9845   16.9855    6.9885 H   0  0  0  0  0  0  0  0  0  0  0  0
   19.6632   15.4484    9.9266 H   0  0  0  0  0  0  0  0  0  0  0  0
   22.2123   15.2239   11.8951 H   0  0  0  0  0  0  0  0  0  0  0  0
   26.8107   16.1050   10.0539 H   0  0  0  0  0  0  0  0  0  0  0  0
   26.7687   13.0451    8.9747 H   0  0  0  0  0  0  0  0  0  0  0  0
   26.9466   12.9139    6.3594 H   0  0  0  0  0  0  0  0  0  0  0  0
   27.1398   16.7132   12.9609 H   0  0  0  0  0  0  0  0  0  0  0  0
   26.5087   18.1893   12.2707 H   0  0  0  0  0  0  0  0  0  0  0  0
   24.4534   18.4121   15.3022 H   0  0  0  0  0  0  0  0  0  0  0  0
   25.8949   16.7173   16.3761 H   0  0  0  0  0  0  0  0  0  0  0  0
   27.3459   17.4716   15.6341 H   0  0  0  0  0  0  0  0  0  0  0  0
   25.3992   18.7772   17.5983 H   0  0  0  0  0  0  0  0  0  0  0  0
   27.1040   18.2646   17.9219 H   0  0  0  0  0  0  0  0  0  0  0  0
   26.5177   21.4149   15.2553 H   0  0  0  0  0  0  0  0  0  0  0  0
   22.6079   15.5670    6.7876 H   0  0  0  0  0  0  0  0  0  0  0  0
  1  2  1  0
  2  3  1  0
  3  4  2  0
  4  5  1  0
  5  6  1  0
  6  7  2  0
  6  8  2  0
  6  9  1  0
  9 10  2  0
 10 11  1  0
 11 12  2  0
 12 13  1  0
 13 14  2  0
 14 15  1  0
 15 16  2  0
 16 17  1  0
 17 18  1  0
 18 19  2  0
 12 20  1  0
 20 21  1  0
 21 22  1  0
 22 23  1  0
 23 24  1  0
 24 25  1  0
 25 26  2  0
 25 27  1  0
 27 28  1  0
 28 29  2  0
 21 30  1  0
 30 31  2  0
  5 32  1  0
 32 33  2  0
 33  3  1  0
 14  9  1  0
 19 15  1  0
 28 22  1  0
 30 11  1  0
  1 34  1  0
  1 35  1  0
  1 36  1  0
  2 37  1  0
  2 38  1  0
  4 39  1  0
 10 40  1  0
 13 41  1  0
 16 42  1  0
 17 43  1  0
 20 44  1  0
 20 45  1  0
 22 46  1  1
 23 47  1  0
 23 48  1  0
 24 49  1  0
 24 50  1  0
 27 51  1  0
 32 52  1  0
M  END
>  <meeko>  (352) 
{"is_sidechain": [true], "free_energy": -10.91, "intermolecular_energy": 0.0, "internal_energy": -10.91, "cluster_size": 18, "cluster_id": 1, "rank_in_cluster": 1}

>  <_RMSD_MCS_to_ref>  (352) 
0.5145366847951659

$$$$
ligand
     RDKit          3D

 52 56  0  0  0  0  0  0  0  0999 V2000
   18.9090   19.1540    7.5370 C   0  0  0  0  0  0  0  0  0  0  0  0
   18.7730   17.6460    7.6780 C   0  0  0  0  0  0  0  0  0  0  0  0
   20.0910   16.9560    7.6390 C   0  0  0  0  0  0  0  0  0  0  0  0
   20.5330   15.8870    8.3960 C   0  0  0  0  0  0  0  0  0  0  0  0
   21.7950   15.6500    7.9300 N   0  0  0  0  0  0  0  0  0  0  0  0
   22.8980   14.5680    8.5830 S   0  0  0  0  0  6  0  0  0  0  0  0
   22.1540   13.6560    9.4300 O   0  0  0  0  0  0  0  0  0  0  0  0
   23.6410   14.0850    7.4330 O   0  0  0  0  0  0  0  0  0  0  0  0
   24.0060   15.5140    9.6000 C   0  0  0  0  0  0  0  0  0  0  0  0
   23.5870   15.8140   10.9070 C   0  0  0  0  0  0  0  0  0  0  0  0
   24.4240   16.5940   11.6810 C   0  0  0  0  0  0  0  0  0  0  0  0
   25.6350   17.0940   11.2140 C   0  0  0  0  0  0  0  0  0  0  0  0
   26.0510   16.8180    9.9230 C   0  0  0  0  0  0  0  0  0  0  0  0
   25.2290   16.0220    9.0980 C   0  0  0  0  0  0  0  0  0  0  0  0
   25.7110   15.7160    7.7680 C   0  0  0  0  0  0  0  0  0  0  0  0
   26.5960   14.6950    7.4840 C   0  0  0  0  0  0  0  0  0  0  0  0
   26.9030   14.6560    5.7950 S   0  0  0  0  0  0  0  0  0  0  0  0
   25.8370   15.9840    5.5910 C   0  0  0  0  0  0  0  0  0  0  0  0
   25.2730   16.4480    6.6870 N   0  0  0  0  0  0  0  0  0  0  0  0
   26.2960   17.9110   12.2750 C   0  0  0  0  0  0  0  0  0  0  0  0
   25.3900   17.7520   13.4060 N   0  0  0  0  0  0  0  0  0  0  0  0
   25.4550   18.5750   14.6090 C   0  0  1  0  0  0  0  0  0  0  0  0
   26.3390   17.9630   15.6910 C   0  0  0  0  0  0  0  0  0  0  0  0
   26.2870   18.8330   16.9370 C   0  0  0  0  0  0  0  0  0  0  0  0
   26.6790   20.2580   16.6240 C   0  0  0  0  0  0  0  0  0  0  0  0
   27.3240   20.9490   17.4060 O   0  0  0  0  0  0  0  0  0  0  0  0
   26.2640   20.7560   15.4150 N   0  0  0  0  0  0  0  0  0  0  0  0
   25.9480   20.0010   14.3090 C   0  0  0  0  0  0  0  0  0  0  0  0
   26.0810   20.4650   13.1800 O   0  0  0  0  0  0  0  0  0  0  0  0
   24.2430   17.0510   13.0640 C   0  0  0  0  0  0  0  0  0  0  0  0
   23.2620   16.8350   13.7450 O   0  0  0  0  0  0  0  0  0  0  0  0
   22.1130   16.5980    7.0110 C   0  0  0  0  0  0  0  0  0  0  0  0
   21.0830   17.3860    6.7800 N   0  0  0  0  0  0  0  0  0  0  0  0
   18.9504   19.6134    8.5356 H   0  0  0  0  0  0  0  0  0  0  0  0
   19.8320   19.3891    6.9867 H   0  0  0  0  0  0  0  0  0  0  0  0
   18.0430   19.5504    6.9867 H   0  0  0  0  0  0  0  0  0  0  0  0
   18.2846   17.4227    8.6380 H   0  0  0  0  0  0  0  0  0  0  0  0
   18.1755   17.2803    6.8299 H   0  0  0  0  0  0  0  0  0  0  0  0
   19.9930   15.3509    9.1904 H   0  0  0  0  0  0  0  0  0  0  0  0
   22.6289   15.4419   11.2990 H   0  0  0  0  0  0  0  0  0  0  0  0
   27.0063   17.2127    9.5468 H   0  0  0  0  0  0  0  0  0  0  0  0
   27.0364   14.0120    8.2253 H   0  0  0  0  0  0  0  0  0  0  0  0
   25.6361   16.4226    4.6024 H   0  0  0  0  0  0  0  0  0  0  0  0
   27.2976   17.5218   12.5102 H   0  0  0  0  0  0  0  0  0  0  0  0
   26.4555   18.9600   11.9850 H   0  0  0  0  0  0  0  0  0  0  0  0
   24.4218   18.6213   14.9836 H   0  0  0  0  0  0  0  0  0  0  0  0
   25.9767   16.9530   15.9332 H   0  0  0  0  0  0  0  0  0  0  0  0
   27.3756   17.9024   15.3280 H   0  0  0  0  0  0  0  0  0  0  0  0
   25.2634   18.8225   17.3397 H   0  0  0  0  0  0  0  0  0  0  0  0
   26.9973   18.4297   17.6737 H   0  0  0  0  0  0  0  0  0  0  0  0
   26.1823   21.7791   15.3281 H   0  0  0  0  0  0  0  0  0  0  0  0
   23.0957   16.6946    6.5262 H   0  0  0  0  0  0  0  0  0  0  0  0
  1  2  1  0
  2  3  1  0
  3  4  2  0
  4  5  1  0
  5  6  1  0
  6  7  2  0
  6  8  2  0
  6  9  1  0
  9 10  2  0
 10 11  1  0
 11 12  2  0
 12 13  1  0
 13 14  2  0
 14 15  1  0
 15 16  2  0
 16 17  1  0
 17 18  1  0
 18 19  2  0
 12 20  1  0
 20 21  1  0
 21 22  1  0
 22 23  1  0
 23 24  1  0
 24 25  1  0
 25 26  2  0
 25 27  1  0
 27 28  1  0
 28 29  2  0
 21 30  1  0
 30 31  2  0
  5 32  1  0
 32 33  2  0
 33  3  1  0
 14  9  1  0
 19 15  1  0
 28 22  1  0
 30 11  1  0
  1 34  1  0
  1 35  1  0
  1 36  1  0
  2 37  1  0
  2 38  1  0
  4 39  1  0
 10 40  1  0
 13 41  1  0
 16 42  1  0
 18 43  1  0
 20 44  1  0
 20 45  1  0
 22 46  1  1
 23 47  1  0
 23 48  1  0
 24 49  1  0
 24 50  1  0
 27 51  1  0
 32 52  1  0
M  END
>  <meeko>  (353) 
{"is_sidechain": [true], "free_energy": -10.91, "intermolecular_energy": 0.0, "internal_energy": -10.91, "cluster_size": 20, "cluster_id": 1, "rank_in_cluster": 1}

>  <_RMSD_MCS_to_ref>  (353) 
0.7652975456208737

$$$$
ligand
     RDKit          3D

 52 56  0  0  0  0  0  0  0  0999 V2000
   18.9090   19.1540    7.5370 C   0  0  0  0  0  0  0  0  0  0  0  0
   18.7730   17.6460    7.6780 C   0  0  0  0  0  0  0  0  0  0  0  0
   20.0330   16.9330    7.3320 C   0  0  0  0  0  0  0  0  0  0  0  0
   21.1900   16.8030    8.0750 C   0  0  0  0  0  0  0  0  0  0  0  0
   22.0070   16.0380    7.2910 N   0  0  0  0  0  0  0  0  0  0  0  0
   23.6230   15.7190    7.6020 S   0  0  0  0  0  6  0  0  0  0  0  0
   24.2600   15.6450    6.3020 O   0  0  0  0  0  0  0  0  0  0  0  0
   24.0480   16.6310    8.6420 O   0  0  0  0  0  0  0  0  0  0  0  0
   23.7900   14.1510    8.2750 C   0  0  0  0  0  0  0  0  0  0  0  0
   23.9900   12.9870    7.4860 C   0  0  0  0  0  0  0  0  0  0  0  0
   24.0750   11.8310    8.1370 N   0  0  0  0  0  0  0  0  0  0  0  0
   23.9460   12.1320    9.7640 S   0  0  0  0  0  0  0  0  0  0  0  0
   23.7490   13.8300    9.6180 C   0  0  0  0  0  0  0  0  0  0  0  0
   23.5840   14.6530   10.8070 C   0  0  0  0  0  0  0  0  0  0  0  0
   22.3650   14.6130   11.5230 C   0  0  0  0  0  0  0  0  0  0  0  0
   22.2010   15.3480   12.6980 C   0  0  0  0  0  0  0  0  0  0  0  0
   23.2760   16.0960   13.1350 C   0  0  0  0  0  0  0  0  0  0  0  0
   24.4860   16.1480   12.4470 C   0  0  0  0  0  0  0  0  0  0  0  0
   24.6530   15.4420   11.2680 C   0  0  0  0  0  0  0  0  0  0  0  0
   25.4530   17.0180   13.1800 C   0  0  0  0  0  0  0  0  0  0  0  0
   24.7010   17.3960   14.3700 N   0  0  0  0  0  0  0  0  0  0  0  0
   25.1330   18.4290   15.3020 C   0  0  1  0  0  0  0  0  0  0  0  0
   26.1280   17.9050   16.3320 C   0  0  0  0  0  0  0  0  0  0  0  0
   26.4640   19.0130   17.3190 C   0  0  0  0  0  0  0  0  0  0  0  0
   26.9820   20.2400   16.6050 C   0  0  0  0  0  0  0  0  0  0  0  0
   27.8630   20.9510   17.0750 O   0  0  0  0  0  0  0  0  0  0  0  0
   26.4030   20.5360   15.3970 N   0  0  0  0  0  0  0  0  0  0  0  0
   25.7480   19.6400   14.5820 C   0  0  0  0  0  0  0  0  0  0  0  0
   25.6960   19.8300   13.3680 O   0  0  0  0  0  0  0  0  0  0  0  0
   23.3950   16.9310   14.3340 C   0  0  0  0  0  0  0  0  0  0  0  0
   22.4980   17.1500   15.1260 O   0  0  0  0  0  0  0  0  0  0  0  0
   21.3670   15.7480    6.1300 C   0  0  0  0  0  0  0  0  0  0  0  0
   20.1650   16.2880    6.1190 N   0  0  0  0  0  0  0  0  0  0  0  0
   18.9504   19.6134    8.5356 H   0  0  0  0  0  0  0  0  0  0  0  0
   19.8320   19.3891    6.9867 H   0  0  0  0  0  0  0  0  0  0  0  0
   18.0430   19.5504    6.9867 H   0  0  0  0  0  0  0  0  0  0  0  0
   18.5069   17.4101    8.7189 H   0  0  0  0  0  0  0  0  0  0  0  0
   17.9924   17.3106    6.9793 H   0  0  0  0  0  0  0  0  0  0  0  0
   21.4047   17.2198    9.0701 H   0  0  0  0  0  0  0  0  0  0  0  0
   24.0706   13.0395    6.3902 H   0  0  0  0  0  0  0  0  0  0  0  0
   21.5356   13.9947   11.1490 H   0  0  0  0  0  0  0  0  0  0  0  0
   21.2522   15.3320   13.2543 H   0  0  0  0  0  0  0  0  0  0  0  0
   25.5972   15.4967   10.7064 H   0  0  0  0  0  0  0  0  0  0  0  0
   26.3644   16.4625   13.4459 H   0  0  0  0  0  0  0  0  0  0  0  0
   25.8012   17.8789   12.5904 H   0  0  0  0  0  0  0  0  0  0  0  0
   24.2196   18.7491   15.8248 H   0  0  0  0  0  0  0  0  0  0  0  0
   25.6846   17.0550   16.8714 H   0  0  0  0  0  0  0  0  0  0  0  0
   27.0456   17.5761   15.8223 H   0  0  0  0  0  0  0  0  0  0  0  0
   25.5570   19.2806   17.8809 H   0  0  0  0  0  0  0  0  0  0  0  0
   27.2475   18.6484   17.9996 H   0  0  0  0  0  0  0  0  0  0  0  0
   26.4634   21.5115   15.0720 H   0  0  0  0  0  0  0  0  0  0  0  0
   21.7919   15.1466    5.3128 H   0  0  0  0  0  0  0  0  0  0  0  0
  1  2  1  0
  2  3  1  0
  3  4  2  0
  4  5  1  0
  5  6  1  0
  6  7  2  0
  6  8  2  0
  6  9  1  0
  9 10  1  0
 10 11  2  0
 11 12  1  0
 12 13  1  0
 13 14  1  0
 14 15  2  0
 15 16  1  0
 16 17  2  0
 17 18  1  0
 18 19  2  0
 18 20  1  0
 20 21  1  0
 21 22  1  0
 22 23  1  0
 23 24  1  0
 24 25  1  0
 25 26  2  0
 25 27  1  0
 27 28  1  0
 28 29  2  0
 21 30  1  0
 30 31  2  0
  5 32  1  0
 32 33  2  0
 33  3  1  0
 13  9  2  0
 19 14  1  0
 28 22  1  0
 30 17  1  0
  1 34  1  0
  1 35  1  0
  1 36  1  0
  2 37  1  0
  2 38  1  0
  4 39  1  0
 10 40  1  0
 15 41  1  0
 16 42  1  0
 19 43  1  0
 20 44  1  0
 20 45  1  0
 22 46  1  1
 23 47  1  0
 23 48  1  0
 24 49  1  0
 24 50  1  0
 27 51  1  0
 32 52  1  0
M  END
>  <meeko>  (354) 
{"is_sidechain": [true], "free_energy": -10.91, "intermolecular_energy": 0.0, "internal_energy": -10.91, "cluster_size": 20, "cluster_id": 1, "rank_in_cluster": 1}

>  <_RMSD_MCS_to_ref>  (354) 
1.1898689236867879

$$$$
ligand
     RDKit          3D

 48 51  0  0  0  0  0  0  0  0999 V2000
   18.9090   19.1540    7.5370 C   0  0  0  0  0  0  0  0  0  0  0  0
   18.7730   17.6460    7.6780 C   0  0  0  0  0  0  0  0  0  0  0  0
   20.0920   16.9570    7.6520 C   0  0  0  0  0  0  0  0  0  0  0  0
   20.9350   16.6560    8.7050 C   0  0  0  0  0  0  0  0  0  0  0  0
   21.9810   16.0030    8.1190 N   0  0  0  0  0  0  0  0  0  0  0  0
   23.4510   15.6310    8.8610 S   0  0  0  0  0  6  0  0  0  0  0  0
   23.8490   14.3680    8.2670 O   0  0  0  0  0  0  0  0  0  0  0  0
   24.2580   16.8250    8.6780 O   0  0  0  0  0  0  0  0  0  0  0  0
   23.1070   15.4160   10.5650 C   0  0  0  0  0  0  0  0  0  0  0  0
   24.0400   15.8980   11.5830 C   0  0  0  0  0  0  0  0  0  0  0  0
   23.7510   15.7170   12.8920 C   0  0  0  0  0  0  0  0  0  0  0  0
   24.6910   16.2430   13.9190 C   0  0  0  0  0  0  0  0  0  0  0  0
   25.2650   15.5010   14.7050 O   0  0  0  0  0  0  0  0  0  0  0  0
   24.8870   17.6010   13.8850 N   0  0  0  0  0  0  0  0  0  0  0  0
   25.8980   18.2400   14.7180 C   0  0  2  0  0  0  0  0  0  0  0  0
   25.6890   17.9600   16.2010 C   0  0  0  0  0  0  0  0  0  0  0  0
   26.7500   18.6910   17.0100 C   0  0  0  0  0  0  0  0  0  0  0  0
   26.7460   20.1720   16.7090 C   0  0  0  0  0  0  0  0  0  0  0  0
   27.0100   21.0170   17.5590 O   0  0  0  0  0  0  0  0  0  0  0  0
   26.4570   20.5370   15.4180 N   0  0  0  0  0  0  0  0  0  0  0  0
   25.8330   19.7520   14.4810 C   0  0  0  0  0  0  0  0  0  0  0  0
   25.2640   20.2460   13.5080 O   0  0  0  0  0  0  0  0  0  0  0  0
   22.5390   15.0980   13.2290 N   0  0  0  0  0  0  0  0  0  0  0  0
   21.9890   14.8000   14.4540 C   0  0  0  0  0  0  0  0  0  0  0  0
   20.7920   14.1780   14.1890 C   0  0  0  0  0  0  0  0  0  0  0  0
   20.5820   14.0730   12.8420 N   0  0  0  0  0  0  0  0  0  0  0  0
   21.6340   14.6250   12.2800 C   0  0  0  0  0  0  0  0  0  0  0  0
   21.9580   14.7990   10.9050 C   0  0  0  0  0  0  0  0  0  0  0  0
   21.7920   15.9760    6.7740 C   0  0  0  0  0  0  0  0  0  0  0  0
   20.6440   16.5380    6.4580 N   0  0  0  0  0  0  0  0  0  0  0  0
   18.9504   19.6134    8.5356 H   0  0  0  0  0  0  0  0  0  0  0  0
   19.8320   19.3891    6.9867 H   0  0  0  0  0  0  0  0  0  0  0  0
   18.0430   19.5504    6.9867 H   0  0  0  0  0  0  0  0  0  0  0  0
   18.2758   17.4231    8.6336 H   0  0  0  0  0  0  0  0  0  0  0  0
   18.1838   17.2791    6.8246 H   0  0  0  0  0  0  0  0  0  0  0  0
   20.7952   16.8891    9.7709 H   0  0  0  0  0  0  0  0  0  0  0  0
   24.9704   16.4043   11.2862 H   0  0  0  0  0  0  0  0  0  0  0  0
   24.3087   18.1795   13.2590 H   0  0  0  0  0  0  0  0  0  0  0  0
   26.8800   17.8297   14.4401 H   0  0  0  0  0  0  0  0  0  0  0  0
   24.6912   18.3108   16.5032 H   0  0  0  0  0  0  0  0  0  0  0  0
   25.7688   16.8784   16.3845 H   0  0  0  0  0  0  0  0  0  0  0  0
   26.5494   18.5425   18.0813 H   0  0  0  0  0  0  0  0  0  0  0  0
   27.7353   18.2841   16.7387 H   0  0  0  0  0  0  0  0  0  0  0  0
   26.7332   21.4853   15.1260 H   0  0  0  0  0  0  0  0  0  0  0  0
   22.4190   15.0153   15.4433 H   0  0  0  0  0  0  0  0  0  0  0  0
   20.0956   13.8132   14.9584 H   0  0  0  0  0  0  0  0  0  0  0  0
   21.2749   14.4322   10.1247 H   0  0  0  0  0  0  0  0  0  0  0  0
   22.4992   15.5449    6.0501 H   0  0  0  0  0  0  0  0  0  0  0  0
  1  2  1  0
  2  3  1  0
  3  4  2  0
  4  5  1  0
  5  6  1  0
  6  7  2  0
  6  8  2  0
  6  9  1  0
  9 10  1  0
 10 11  2  0
 11 12  1  0
 12 13  2  0
 12 14  1  0
 14 15  1  0
 15 16  1  0
 16 17  1  0
 17 18  1  0
 18 19  2  0
 18 20  1  0
 20 21  1  0
 21 22  2  0
 11 23  1  0
 23 24  1  0
 24 25  2  0
 25 26  1  0
 26 27  2  0
 27 28  1  0
  5 29  1  0
 29 30  2  0
 30  3  1  0
 28  9  2  0
 21 15  1  0
 27 23  1  0
  1 31  1  0
  1 32  1  0
  1 33  1  0
  2 34  1  0
  2 35  1  0
  4 36  1  0
 10 37  1  0
 14 38  1  0
 15 39  1  6
 16 40  1  0
 16 41  1  0
 17 42  1  0
 17 43  1  0
 20 44  1  0
 24 45  1  0
 25 46  1  0
 28 47  1  0
 29 48  1  0
M  END
>  <meeko>  (355) 
{"is_sidechain": [true], "free_energy": -10.91, "intermolecular_energy": 0.0, "internal_energy": -10.91, "cluster_size": 19, "cluster_id": 1, "rank_in_cluster": 1}

>  <_RMSD_MCS_to_ref>  (355) 
0.6357431347119158

$$$$
ligand
     RDKit          3D

 47 50  0  0  0  0  0  0  0  0999 V2000
   18.9090   19.1540    7.5370 C   0  0  0  0  0  0  0  0  0  0  0  0
   18.7730   17.6460    7.6780 C   0  0  0  0  0  0  0  0  0  0  0  0
   19.9990   16.9270    7.2370 C   0  0  0  0  0  0  0  0  0  0  0  0
   21.0740   16.4970    7.9900 C   0  0  0  0  0  0  0  0  0  0  0  0
   21.9160   15.9290    7.0780 N   0  0  0  0  0  0  0  0  0  0  0  0
   23.2960   15.0380    7.4320 S   0  0  0  0  0  6  0  0  0  0  0  0
   24.3810   15.6750    6.7130 O   0  0  0  0  0  0  0  0  0  0  0  0
   22.9320   13.6500    7.2250 O   0  0  0  0  0  0  0  0  0  0  0  0
   23.5350   15.3140    9.1760 C   0  0  0  0  0  0  0  0  0  0  0  0
   24.7400   15.9720    9.5940 C   0  0  0  0  0  0  0  0  0  0  0  0
   25.0460   16.2450   10.9430 C   0  0  0  0  0  0  0  0  0  0  0  0
   24.0410   15.7860   11.7930 C   0  0  0  0  0  0  0  0  0  0  0  0
   24.0120   15.8810   13.1600 C   0  0  0  0  0  0  0  0  0  0  0  0
   24.9110   16.4350   14.1430 C   0  0  0  0  0  0  0  0  0  0  0  0
   25.4860   15.7640   14.9970 O   0  0  0  0  0  0  0  0  0  0  0  0
   25.0970   17.7980   14.0590 N   0  0  0  0  0  0  0  0  0  0  0  0
   26.0710   18.4980   14.8810 C   0  0  2  0  0  0  0  0  0  0  0  0
   25.8960   18.1950   16.3650 C   0  0  0  0  0  0  0  0  0  0  0  0
   26.9230   18.9800   17.1670 C   0  0  0  0  0  0  0  0  0  0  0  0
   26.8300   20.4610   16.8790 C   0  0  0  0  0  0  0  0  0  0  0  0
   27.0610   21.3130   17.7320 O   0  0  0  0  0  0  0  0  0  0  0  0
   26.5030   20.8170   15.5960 N   0  0  0  0  0  0  0  0  0  0  0  0
   25.9150   20.0060   14.6580 C   0  0  0  0  0  0  0  0  0  0  0  0
   25.3130   20.4770   13.6940 O   0  0  0  0  0  0  0  0  0  0  0  0
   22.8500   15.3000   13.5870 O   0  0  0  0  0  0  0  0  0  0  0  0
   22.1190   14.8260   12.5140 N   0  0  0  0  0  0  0  0  0  0  0  0
   22.8250   15.1110   11.4090 C   0  0  0  0  0  0  0  0  0  0  0  0
   22.5350   14.8480   10.0620 C   0  0  0  0  0  0  0  0  0  0  0  0
   21.3400   15.9770    5.8500 C   0  0  0  0  0  0  0  0  0  0  0  0
   20.1750   16.5860    5.9100 N   0  0  0  0  0  0  0  0  0  0  0  0
   18.9504   19.6134    8.5356 H   0  0  0  0  0  0  0  0  0  0  0  0
   19.8320   19.3891    6.9867 H   0  0  0  0  0  0  0  0  0  0  0  0
   18.0430   19.5504    6.9867 H   0  0  0  0  0  0  0  0  0  0  0  0
   18.5815   17.4049    8.7340 H   0  0  0  0  0  0  0  0  0  0  0  0
   17.9414   17.3206    7.0357 H   0  0  0  0  0  0  0  0  0  0  0  0
   21.2186   16.5908    9.0764 H   0  0  0  0  0  0  0  0  0  0  0  0
   25.4616   16.2790    8.8226 H   0  0  0  0  0  0  0  0  0  0  0  0
   25.9602   16.7547   11.2812 H   0  0  0  0  0  0  0  0  0  0  0  0
   24.5275   18.3384   13.3922 H   0  0  0  0  0  0  0  0  0  0  0  0
   27.0730   18.1544   14.5843 H   0  0  0  0  0  0  0  0  0  0  0  0
   24.8834   18.4855   16.6817 H   0  0  0  0  0  0  0  0  0  0  0  0
   26.0397   17.1184   16.5390 H   0  0  0  0  0  0  0  0  0  0  0  0
   26.7449   18.8117   18.2394 H   0  0  0  0  0  0  0  0  0  0  0  0
   27.9265   18.6330   16.8798 H   0  0  0  0  0  0  0  0  0  0  0  0
   26.7186   21.7826   15.3096 H   0  0  0  0  0  0  0  0  0  0  0  0
   21.6227   14.3318    9.7283 H   0  0  0  0  0  0  0  0  0  0  0  0
   21.7849   15.5644    4.9325 H   0  0  0  0  0  0  0  0  0  0  0  0
  1  2  1  0
  2  3  1  0
  3  4  2  0
  4  5  1  0
  5  6  1  0
  6  7  2  0
  6  8  2  0
  6  9  1  0
  9 10  1  0
 10 11  2  0
 11 12  1  0
 12 13  2  0
 13 14  1  0
 14 15  2  0
 14 16  1  0
 16 17  1  0
 17 18  1  0
 18 19  1  0
 19 20  1  0
 20 21  2  0
 20 22  1  0
 22 23  1  0
 23 24  2  0
 13 25  1  0
 25 26  1  0
 26 27  2  0
 27 28  1  0
  5 29  1  0
 29 30  2  0
 30  3  1  0
 28  9  2  0
 27 12  1  0
 23 17  1  0
  1 31  1  0
  1 32  1  0
  1 33  1  0
  2 34  1  0
  2 35  1  0
  4 36  1  0
 10 37  1  0
 11 38  1  0
 16 39  1  0
 17 40  1  6
 18 41  1  0
 18 42  1  0
 19 43  1  0
 19 44  1  0
 22 45  1  0
 28 46  1  0
 29 47  1  0
M  END
>  <meeko>  (356) 
{"is_sidechain": [true], "free_energy": -10.91, "intermolecular_energy": 0.0, "internal_energy": -10.91, "cluster_size": 14, "cluster_id": 1, "rank_in_cluster": 1}

>  <_RMSD_MCS_to_ref>  (356) 
0.8589043408125646

$$$$
ligand
     RDKit          3D

 47 50  0  0  0  0  0  0  0  0999 V2000
   18.9090   19.1540    7.5370 C   0  0  0  0  0  0  0  0  0  0  0  0
   18.7730   17.6460    7.6780 C   0  0  0  0  0  0  0  0  0  0  0  0
   20.0860   16.9510    7.5800 C   0  0  0  0  0  0  0  0  0  0  0  0
   21.0760   16.8290    8.5340 C   0  0  0  0  0  0  0  0  0  0  0  0
   22.0590   16.1180    7.9070 N   0  0  0  0  0  0  0  0  0  0  0  0
   23.4220   15.4610    8.6370 S   0  0  0  0  0  6  0  0  0  0  0  0
   23.4400   14.0660    8.2400 O   0  0  0  0  0  0  0  0  0  0  0  0
   24.5150   16.3680    8.3540 O   0  0  0  0  0  0  0  0  0  0  0  0
   23.0640   15.5490   10.3740 C   0  0  0  0  0  0  0  0  0  0  0  0
   23.8310   16.3950   11.1850 C   0  0  0  0  0  0  0  0  0  0  0  0
   23.5860   16.4900   12.5680 C   0  0  0  0  0  0  0  0  0  0  0  0
   24.4000   17.4090   13.3930 C   0  0  0  0  0  0  0  0  0  0  0  0
   25.5290   17.7100   13.0200 O   0  0  0  0  0  0  0  0  0  0  0  0
   23.8560   17.8790   14.5630 N   0  0  0  0  0  0  0  0  0  0  0  0
   24.6260   18.7000   15.4880 C   0  0  1  0  0  0  0  0  0  0  0  0
   25.7550   17.9100   16.1430 C   0  0  0  0  0  0  0  0  0  0  0  0
   26.5360   18.8230   17.0750 C   0  0  0  0  0  0  0  0  0  0  0  0
   27.0510   20.0420   16.3460 C   0  0  0  0  0  0  0  0  0  0  0  0
   28.1150   20.5820   16.6350 O   0  0  0  0  0  0  0  0  0  0  0  0
   26.2500   20.5480   15.3530 N   0  0  0  0  0  0  0  0  0  0  0  0
   25.2220   19.8890   14.7280 C   0  0  0  0  0  0  0  0  0  0  0  0
   24.8070   20.2560   13.6290 O   0  0  0  0  0  0  0  0  0  0  0  0
   22.5520   15.6980   13.0660 C   0  0  0  0  0  0  0  0  0  0  0  0
   22.1170   15.6230   14.3560 O   0  0  0  0  0  0  0  0  0  0  0  0
   21.0740   14.7180   14.4470 N   0  0  0  0  0  0  0  0  0  0  0  0
   20.8910   14.2600   13.2070 C   0  0  0  0  0  0  0  0  0  0  0  0
   21.7860   14.8420   12.2860 C   0  0  0  0  0  0  0  0  0  0  0  0
   22.0390   14.7490   10.9060 C   0  0  0  0  0  0  0  0  0  0  0  0
   21.6470   15.7990    6.6540 C   0  0  0  0  0  0  0  0  0  0  0  0
   20.4510   16.2970    6.4200 N   0  0  0  0  0  0  0  0  0  0  0  0
   18.9504   19.6134    8.5356 H   0  0  0  0  0  0  0  0  0  0  0  0
   19.8320   19.3891    6.9867 H   0  0  0  0  0  0  0  0  0  0  0  0
   18.0430   19.5504    6.9867 H   0  0  0  0  0  0  0  0  0  0  0  0
   18.3253   17.4208    8.6572 H   0  0  0  0  0  0  0  0  0  0  0  0
   18.1382   17.2859    6.8550 H   0  0  0  0  0  0  0  0  0  0  0  0
   21.0737   17.2159    9.5637 H   0  0  0  0  0  0  0  0  0  0  0  0
   24.6364   16.9938   10.7348 H   0  0  0  0  0  0  0  0  0  0  0  0
   22.8794   17.6453   14.7923 H   0  0  0  0  0  0  0  0  0  0  0  0
   23.9469   19.0451   16.2816 H   0  0  0  0  0  0  0  0  0  0  0  0
   25.3317   17.0735   16.7184 H   0  0  0  0  0  0  0  0  0  0  0  0
   26.4269   17.5166   15.3660 H   0  0  0  0  0  0  0  0  0  0  0  0
   25.8771   19.1472   17.8940 H   0  0  0  0  0  0  0  0  0  0  0  0
   27.3980   18.2633   17.4670 H   0  0  0  0  0  0  0  0  0  0  0  0
   26.4386   21.5137   15.0483 H   0  0  0  0  0  0  0  0  0  0  0  0
   20.1296   13.5143   12.9348 H   0  0  0  0  0  0  0  0  0  0  0  0
   21.4543   14.0729   10.2648 H   0  0  0  0  0  0  0  0  0  0  0  0
   22.2310   15.2068    5.9341 H   0  0  0  0  0  0  0  0  0  0  0  0
  1  2  1  0
  2  3  1  0
  3  4  2  0
  4  5  1  0
  5  6  1  0
  6  7  2  0
  6  8  2  0
  6  9  1  0
  9 10  2  0
 10 11  1  0
 11 12  1  0
 12 13  2  0
 12 14  1  0
 14 15  1  0
 15 16  1  0
 16 17  1  0
 17 18  1  0
 18 19  2  0
 18 20  1  0
 20 21  1  0
 21 22  2  0
 11 23  2  0
 23 24  1  0
 24 25  1  0
 25 26  2  0
 26 27  1  0
 27 28  2  0
  5 29  1  0
 29 30  2  0
 30  3  1  0
 28  9  1  0
 21 15  1  0
 27 23  1  0
  1 31  1  0
  1 32  1  0
  1 33  1  0
  2 34  1  0
  2 35  1  0
  4 36  1  0
 10 37  1  0
 14 38  1  0
 15 39  1  1
 16 40  1  0
 16 41  1  0
 17 42  1  0
 17 43  1  0
 20 44  1  0
 26 45  1  0
 28 46  1  0
 29 47  1  0
M  END
>  <meeko>  (357) 
{"is_sidechain": [true], "free_energy": -10.91, "intermolecular_energy": 0.0, "internal_energy": -10.91, "cluster_size": 20, "cluster_id": 1, "rank_in_cluster": 1}

>  <_RMSD_MCS_to_ref>  (357) 
0.699508557647597

$$$$
ligand
     RDKit          3D

 47 50  0  0  0  0  0  0  0  0999 V2000
   18.9090   19.1540    7.5370 C   0  0  0  0  0  0  0  0  0  0  0  0
   18.7730   17.6460    7.6780 C   0  0  0  0  0  0  0  0  0  0  0  0
   20.0390   16.9370    7.3500 C   0  0  0  0  0  0  0  0  0  0  0  0
   20.8790   16.2300    8.1880 C   0  0  0  0  0  0  0  0  0  0  0  0
   21.8730   15.7840    7.3650 N   0  0  0  0  0  0  0  0  0  0  0  0
   23.1200   14.7400    7.7690 S   0  0  0  0  0  6  0  0  0  0  0  0
   24.0960   14.8070    6.7000 O   0  0  0  0  0  0  0  0  0  0  0  0
   22.4730   13.5010    8.1570 O   0  0  0  0  0  0  0  0  0  0  0  0
   23.9550   15.2810    9.2200 C   0  0  0  0  0  0  0  0  0  0  0  0
   25.2360   15.7830    9.4110 C   0  0  0  0  0  0  0  0  0  0  0  0
   25.3960   16.0690   10.7850 C   0  0  0  0  0  0  0  0  0  0  0  0
   24.2070   15.7390   11.3960 C   0  0  0  0  0  0  0  0  0  0  0  0
   23.7220   15.7800   12.7340 C   0  0  0  0  0  0  0  0  0  0  0  0
   24.6100   16.2890   13.8710 C   0  0  0  0  0  0  0  0  0  0  0  0
   25.0200   15.5480   14.7500 O   0  0  0  0  0  0  0  0  0  0  0  0
   24.9070   17.6310   13.7770 N   0  0  0  0  0  0  0  0  0  0  0  0
   25.9010   18.2580   14.6300 C   0  0  2  0  0  0  0  0  0  0  0  0
   25.6650   17.9570   16.1060 C   0  0  0  0  0  0  0  0  0  0  0  0
   26.7150   18.6680   16.9450 C   0  0  0  0  0  0  0  0  0  0  0  0
   26.7230   20.1540   16.6700 C   0  0  0  0  0  0  0  0  0  0  0  0
   26.9870   20.9810   17.5360 O   0  0  0  0  0  0  0  0  0  0  0  0
   26.4520   20.5410   15.3820 N   0  0  0  0  0  0  0  0  0  0  0  0
   25.8530   19.7740   14.4130 C   0  0  0  0  0  0  0  0  0  0  0  0
   25.3310   20.2890   13.4260 O   0  0  0  0  0  0  0  0  0  0  0  0
   22.5220   15.3690   13.0110 N   0  0  0  0  0  0  0  0  0  0  0  0
   21.7530   14.9140   11.9700 C   0  0  0  0  0  0  0  0  0  0  0  0
   22.1000   14.8430   10.7220 N   0  0  0  0  0  0  0  0  0  0  0  0
   23.3450   15.2680   10.4480 N   0  0  0  0  0  0  0  0  0  0  0  0
   21.6240   16.2010    6.0980 C   0  0  0  0  0  0  0  0  0  0  0  0
   20.5140   16.9070    6.0520 N   0  0  0  0  0  0  0  0  0  0  0  0
   18.9504   19.6134    8.5356 H   0  0  0  0  0  0  0  0  0  0  0  0
   19.8320   19.3891    6.9867 H   0  0  0  0  0  0  0  0  0  0  0  0
   18.0430   19.5504    6.9867 H   0  0  0  0  0  0  0  0  0  0  0  0
   18.4931   17.4105    8.7154 H   0  0  0  0  0  0  0  0  0  0  0  0
   18.0020   17.3077    6.9701 H   0  0  0  0  0  0  0  0  0  0  0  0
   20.7718   16.0643    9.2701 H   0  0  0  0  0  0  0  0  0  0  0  0
   25.9942   15.9320    8.6281 H   0  0  0  0  0  0  0  0  0  0  0  0
   26.2947   16.4758   11.2717 H   0  0  0  0  0  0  0  0  0  0  0  0
   24.4099   18.2060   13.0819 H   0  0  0  0  0  0  0  0  0  0  0  0
   26.8862   17.8503   14.3595 H   0  0  0  0  0  0  0  0  0  0  0  0
   24.6642   18.3094   16.3962 H   0  0  0  0  0  0  0  0  0  0  0  0
   25.7360   16.8722   16.2738 H   0  0  0  0  0  0  0  0  0  0  0  0
   26.4956   18.5018   18.0100 H   0  0  0  0  0  0  0  0  0  0  0  0
   27.7028   18.2610   16.6833 H   0  0  0  0  0  0  0  0  0  0  0  0
   26.7238   21.4983   15.1164 H   0  0  0  0  0  0  0  0  0  0  0  0
   20.7370   14.5742   12.2193 H   0  0  0  0  0  0  0  0  0  0  0  0
   22.2616   15.9797    5.2294 H   0  0  0  0  0  0  0  0  0  0  0  0
  1  2  1  0
  2  3  1  0
  3  4  2  0
  4  5  1  0
  5  6  1  0
  6  7  2  0
  6  8  2  0
  6  9  1  0
  9 10  2  0
 10 11  1  0
 11 12  2  0
 12 13  1  0
 13 14  1  0
 14 15  2  0
 14 16  1  0
 16 17  1  0
 17 18  1  0
 18 19  1  0
 19 20  1  0
 20 21  2  0
 20 22  1  0
 22 23  1  0
 23 24  2  0
 13 25  2  0
 25 26  1  0
 26 27  2  0
 27 28  1  0
  5 29  1  0
 29 30  2  0
 30  3  1  0
 28  9  1  0
 28 12  1  0
 23 17  1  0
  1 31  1  0
  1 32  1  0
  1 33  1  0
  2 34  1  0
  2 35  1  0
  4 36  1  0
 10 37  1  0
 11 38  1  0
 16 39  1  0
 17 40  1  6
 18 41  1  0
 18 42  1  0
 19 43  1  0
 19 44  1  0
 22 45  1  0
 26 46  1  0
 29 47  1  0
M  END
>  <meeko>  (358) 
{"is_sidechain": [true], "free_energy": -10.91, "intermolecular_energy": 0.0, "internal_energy": -10.91, "cluster_size": 10, "cluster_id": 1, "rank_in_cluster": 1}

>  <_RMSD_MCS_to_ref>  (358) 
0.6241300612318992

$$$$
ligand
     RDKit          3D

 50 53  0  0  0  0  0  0  0  0999 V2000
   18.9090   19.1540    7.5370 C   0  0  0  0  0  0  0  0  0  0  0  0
   18.7730   17.6460    7.6780 C   0  0  0  0  0  0  0  0  0  0  0  0
   20.0860   16.9520    7.5820 C   0  0  0  0  0  0  0  0  0  0  0  0
   20.9260   16.5390    8.5970 C   0  0  0  0  0  0  0  0  0  0  0  0
   21.9690   15.9450    7.9480 N   0  0  0  0  0  0  0  0  0  0  0  0
   23.4120   15.4410    8.6470 S   0  0  0  0  0  6  0  0  0  0  0  0
   23.5840   14.0520    8.2680 O   0  0  0  0  0  0  0  0  0  0  0  0
   24.3820   16.4660    8.3130 O   0  0  0  0  0  0  0  0  0  0  0  0
   23.0860   15.5110   10.3890 C   0  0  0  0  0  0  0  0  0  0  0  0
   22.0710   14.7190   10.9360 C   0  0  0  0  0  0  0  0  0  0  0  0
   21.8530   14.8060   12.3000 C   0  0  0  0  0  0  0  0  0  0  0  0
   22.6030   15.6630   13.1010 C   0  0  0  0  0  0  0  0  0  0  0  0
   23.6000   16.4740   12.5730 C   0  0  0  0  0  0  0  0  0  0  0  0
   24.4320   17.4090   13.3790 C   0  0  0  0  0  0  0  0  0  0  0  0
   25.5590   17.7140   12.9960 O   0  0  0  0  0  0  0  0  0  0  0  0
   23.8940   17.8900   14.5470 N   0  0  0  0  0  0  0  0  0  0  0  0
   24.6590   18.7040   15.4750 C   0  0  1  0  0  0  0  0  0  0  0  0
   25.7880   17.9140   16.1300 C   0  0  0  0  0  0  0  0  0  0  0  0
   26.5610   18.8200   17.0750 C   0  0  0  0  0  0  0  0  0  0  0  0
   27.0760   20.0460   16.3570 C   0  0  0  0  0  0  0  0  0  0  0  0
   28.1400   20.5840   16.6520 O   0  0  0  0  0  0  0  0  0  0  0  0
   26.2770   20.5610   15.3680 N   0  0  0  0  0  0  0  0  0  0  0  0
   25.2570   19.9010   14.7270 C   0  0  0  0  0  0  0  0  0  0  0  0
   24.8560   20.2780   13.6260 O   0  0  0  0  0  0  0  0  0  0  0  0
   23.8380   16.3910   11.1910 C   0  0  0  0  0  0  0  0  0  0  0  0
   22.2210   15.6150   14.4220 O   0  0  0  0  0  0  0  0  0  0  0  0
   21.3830   14.4380   14.5080 C   0  0  0  0  0  0  0  0  0  0  0  0
   20.8210   14.1320   13.1230 C   0  0  0  0  0  0  0  0  0  0  0  0
   21.7750   16.0440    6.6080 C   0  0  0  0  0  0  0  0  0  0  0  0
   20.6310   16.6440    6.3510 N   0  0  0  0  0  0  0  0  0  0  0  0
   18.9504   19.6134    8.5356 H   0  0  0  0  0  0  0  0  0  0  0  0
   19.8320   19.3891    6.9867 H   0  0  0  0  0  0  0  0  0  0  0  0
   18.0430   19.5504    6.9867 H   0  0  0  0  0  0  0  0  0  0  0  0
   18.3239   17.4207    8.6565 H   0  0  0  0  0  0  0  0  0  0  0  0
   18.1393   17.2855    6.8543 H   0  0  0  0  0  0  0  0  0  0  0  0
   20.7863   16.6610    9.6813 H   0  0  0  0  0  0  0  0  0  0  0  0
   21.4674   14.0506   10.3044 H   0  0  0  0  0  0  0  0  0  0  0  0
   22.9144   17.6659   14.7728 H   0  0  0  0  0  0  0  0  0  0  0  0
   23.9742   19.0416   16.2669 H   0  0  0  0  0  0  0  0  0  0  0  0
   25.3649   17.0706   16.6953 H   0  0  0  0  0  0  0  0  0  0  0  0
   26.4662   17.5321   15.3527 H   0  0  0  0  0  0  0  0  0  0  0  0
   25.8968   19.1357   17.8930 H   0  0  0  0  0  0  0  0  0  0  0  0
   27.4217   18.2596   17.4689 H   0  0  0  0  0  0  0  0  0  0  0  0
   26.4588   21.5328   15.0792 H   0  0  0  0  0  0  0  0  0  0  0  0
   24.6170   17.0176   10.7322 H   0  0  0  0  0  0  0  0  0  0  0  0
   21.9798   13.5843   14.8616 H   0  0  0  0  0  0  0  0  0  0  0  0
   20.5590   14.6168   15.2144 H   0  0  0  0  0  0  0  0  0  0  0  0
   20.7771   13.0508   12.9253 H   0  0  0  0  0  0  0  0  0  0  0  0
   19.7865   14.4627   12.9486 H   0  0  0  0  0  0  0  0  0  0  0  0
   22.4751   15.6749    5.8440 H   0  0  0  0  0  0  0  0  0  0  0  0
  1  2  1  0
  2  3  1  0
  3  4  2  0
  4  5  1  0
  5  6  1  0
  6  7  2  0
  6  8  2  0
  6  9  1  0
  9 10  2  0
 10 11  1  0
 11 12  2  0
 12 13  1  0
 13 14  1  0
 14 15  2  0
 14 16  1  0
 16 17  1  0
 17 18  1  0
 18 19  1  0
 19 20  1  0
 20 21  2  0
 20 22  1  0
 22 23  1  0
 23 24  2  0
 13 25  2  0
 12 26  1  0
 26 27  1  0
 27 28  1  0
  5 29  1  0
 29 30  2  0
 30  3  1  0
 25  9  1  0
 28 11  1  0
 23 17  1  0
  1 31  1  0
  1 32  1  0
  1 33  1  0
  2 34  1  0
  2 35  1  0
  4 36  1  0
 10 37  1  0
 16 38  1  0
 17 39  1  1
 18 40  1  0
 18 41  1  0
 19 42  1  0
 19 43  1  0
 22 44  1  0
 25 45  1  0
 27 46  1  0
 27 47  1  0
 28 48  1  0
 28 49  1  0
 29 50  1  0
M  END
>  <meeko>  (359) 
{"is_sidechain": [true], "free_energy": -10.91, "intermolecular_energy": 0.0, "internal_energy": -10.91, "cluster_size": 20, "cluster_id": 1, "rank_in_cluster": 1}

>  <_RMSD_MCS_to_ref>  (359) 
0.6973559588426373

$$$$
ligand
     RDKit          3D

 50 53  0  0  0  0  0  0  0  0999 V2000
   18.9090   19.1540    7.5370 C   0  0  0  0  0  0  0  0  0  0  0  0
   18.7730   17.6460    7.6780 C   0  0  0  0  0  0  0  0  0  0  0  0
   20.0020   16.9280    7.2440 C   0  0  0  0  0  0  0  0  0  0  0  0
   21.2310   16.8530    7.8700 C   0  0  0  0  0  0  0  0  0  0  0  0
   21.9870   16.0850    7.0320 N   0  0  0  0  0  0  0  0  0  0  0  0
   23.5110   15.4630    7.3710 S   0  0  0  0  0  6  0  0  0  0  0  0
   24.4610   16.4230    6.8440 O   0  0  0  0  0  0  0  0  0  0  0  0
   23.4770   14.0810    6.9320 O   0  0  0  0  0  0  0  0  0  0  0  0
   23.5910   15.4980    9.1390 C   0  0  0  0  0  0  0  0  0  0  0  0
   24.6960   16.0630    9.7660 C   0  0  0  0  0  0  0  0  0  0  0  0
   24.7520   16.0870   11.1620 C   0  0  0  0  0  0  0  0  0  0  0  0
   23.7150   15.5400   11.9660 C   0  0  0  0  0  0  0  0  0  0  0  0
   23.6650   15.5090   13.3830 C   0  0  0  0  0  0  0  0  0  0  0  0
   24.7410   16.1050   14.2700 C   0  0  0  0  0  0  0  0  0  0  0  0
   25.5590   15.4450   14.8970 O   0  0  0  0  0  0  0  0  0  0  0  0
   24.7380   17.4850   14.2990 N   0  0  0  0  0  0  0  0  0  0  0  0
   25.7880   18.2600   14.9330 C   0  0  2  0  0  0  0  0  0  0  0  0
   25.8210   18.0450   16.4430 C   0  0  0  0  0  0  0  0  0  0  0  0
   26.9260   18.8930   17.0540 C   0  0  0  0  0  0  0  0  0  0  0  0
   26.7570   20.3510   16.7000 C   0  0  0  0  0  0  0  0  0  0  0  0
   27.0870   21.2560   17.4610 O   0  0  0  0  0  0  0  0  0  0  0  0
   26.2410   20.6260   15.4590 N   0  0  0  0  0  0  0  0  0  0  0  0
   25.5650   19.7490   14.6450 C   0  0  0  0  0  0  0  0  0  0  0  0
   24.8490   20.1620   13.7340 O   0  0  0  0  0  0  0  0  0  0  0  0
   22.6430   14.9500   14.1060 N   0  0  0  0  0  0  0  0  0  0  0  0
   21.6280   14.4050   13.4160 C   0  0  0  0  0  0  0  0  0  0  0  0
   21.5690   14.3840   12.0360 C   0  0  0  0  0  0  0  0  0  0  0  0
   22.6130   14.9530   11.2970 C   0  0  0  0  0  0  0  0  0  0  0  0
   22.5610   14.9330    9.8930 C   0  0  0  0  0  0  0  0  0  0  0  0
   21.2240   15.6860    5.9820 C   0  0  0  0  0  0  0  0  0  0  0  0
   20.0110   16.1910    6.0760 N   0  0  0  0  0  0  0  0  0  0  0  0
   18.9504   19.6134    8.5356 H   0  0  0  0  0  0  0  0  0  0  0  0
   19.8320   19.3891    6.9867 H   0  0  0  0  0  0  0  0  0  0  0  0
   18.0430   19.5504    6.9867 H   0  0  0  0  0  0  0  0  0  0  0  0
   18.5759   17.4052    8.7331 H   0  0  0  0  0  0  0  0  0  0  0  0
   17.9450   17.3196    7.0315 H   0  0  0  0  0  0  0  0  0  0  0  0
   21.5318   17.3080    8.8252 H   0  0  0  0  0  0  0  0  0  0  0  0
   25.5174   16.4866    9.1694 H   0  0  0  0  0  0  0  0  0  0  0  0
   25.6243   16.5426   11.6534 H   0  0  0  0  0  0  0  0  0  0  0  0
   23.9571   17.9859   13.8515 H   0  0  0  0  0  0  0  0  0  0  0  0
   26.7500   17.9237   14.5188 H   0  0  0  0  0  0  0  0  0  0  0  0
   24.8530   18.3375   16.8759 H   0  0  0  0  0  0  0  0  0  0  0  0
   26.0138   16.9834   16.6572 H   0  0  0  0  0  0  0  0  0  0  0  0
   26.8978   18.7842   18.1482 H   0  0  0  0  0  0  0  0  0  0  0  0
   27.8906   18.5478   16.6536 H   0  0  0  0  0  0  0  0  0  0  0  0
   26.3731   21.5833   15.1025 H   0  0  0  0  0  0  0  0  0  0  0  0
   20.7995   13.9512   13.9796 H   0  0  0  0  0  0  0  0  0  0  0  0
   20.7108   13.9251   11.5233 H   0  0  0  0  0  0  0  0  0  0  0  0
   21.7029   14.4690    9.3846 H   0  0  0  0  0  0  0  0  0  0  0  0
   21.5702   15.0329    5.1674 H   0  0  0  0  0  0  0  0  0  0  0  0
  1  2  1  0
  2  3  1  0
  3  4  2  0
  4  5  1  0
  5  6  1  0
  6  7  2  0
  6  8  2  0
  6  9  1  0
  9 10  2  0
 10 11  1  0
 11 12  2  0
 12 13  1  0
 13 14  1  0
 14 15  2  0
 14 16  1  0
 16 17  1  0
 17 18  1  0
 18 19  1  0
 19 20  1  0
 20 21  2  0
 20 22  1  0
 22 23  1  0
 23 24  2  0
 13 25  2  0
 25 26  1  0
 26 27  2  0
 27 28  1  0
 28 29  2  0
  5 30  1  0
 30 31  2  0
 31  3  1  0
 29  9  1  0
 28 12  1  0
 23 17  1  0
  1 32  1  0
  1 33  1  0
  1 34  1  0
  2 35  1  0
  2 36  1  0
  4 37  1  0
 10 38  1  0
 11 39  1  0
 16 40  1  0
 17 41  1  6
 18 42  1  0
 18 43  1  0
 19 44  1  0
 19 45  1  0
 22 46  1  0
 26 47  1  0
 27 48  1  0
 29 49  1  0
 30 50  1  0
M  END
>  <meeko>  (360) 
{"is_sidechain": [true], "free_energy": -10.91, "intermolecular_energy": 0.0, "internal_energy": -10.91, "cluster_size": 20, "cluster_id": 1, "rank_in_cluster": 1}

>  <_RMSD_MCS_to_ref>  (360) 
0.6722135903945347

$$$$
ligand
     RDKit          3D

 50 53  0  0  0  0  0  0  0  0999 V2000
   18.9090   19.1540    7.5370 C   0  0  0  0  0  0  0  0  0  0  0  0
   18.7730   17.6460    7.6780 C   0  0  0  0  0  0  0  0  0  0  0  0
   20.0920   16.9560    7.6350 C   0  0  0  0  0  0  0  0  0  0  0  0
   20.9960   16.7450    8.6570 C   0  0  0  0  0  0  0  0  0  0  0  0
   22.0160   16.0600    8.0630 N   0  0  0  0  0  0  0  0  0  0  0  0
   23.4830   15.6310    8.7600 S   0  0  0  0  0  6  0  0  0  0  0  0
   24.2990   16.8280    8.6590 O   0  0  0  0  0  0  0  0  0  0  0  0
   23.8880   14.3790    8.1550 O   0  0  0  0  0  0  0  0  0  0  0  0
   23.0970   15.3560   10.4800 C   0  0  0  0  0  0  0  0  0  0  0  0
   24.0100   15.8790   11.4160 C   0  0  0  0  0  0  0  0  0  0  0  0
   23.7630   15.7530   12.7830 C   0  0  0  0  0  0  0  0  0  0  0  0
   24.6860   16.3040   13.8110 C   0  0  0  0  0  0  0  0  0  0  0  0
   25.2220   15.5570   14.6210 O   0  0  0  0  0  0  0  0  0  0  0  0
   24.9160   17.6600   13.7750 N   0  0  0  0  0  0  0  0  0  0  0  0
   25.9150   18.2740   14.6410 C   0  0  2  0  0  0  0  0  0  0  0  0
   25.6620   17.9770   16.1150 C   0  0  0  0  0  0  0  0  0  0  0  0
   26.7120   18.6790   16.9610 C   0  0  0  0  0  0  0  0  0  0  0  0
   26.7400   20.1640   16.6820 C   0  0  0  0  0  0  0  0  0  0  0  0
   27.0040   20.9920   17.5490 O   0  0  0  0  0  0  0  0  0  0  0  0
   26.4860   20.5520   15.3910 N   0  0  0  0  0  0  0  0  0  0  0  0
   25.8830   19.7890   14.4230 C   0  0  0  0  0  0  0  0  0  0  0  0
   25.3650   20.3050   13.4320 O   0  0  0  0  0  0  0  0  0  0  0  0
   22.5930   15.1230   13.2110 C   0  0  0  0  0  0  0  0  0  0  0  0
   21.6840   14.5780   12.2880 C   0  0  0  0  0  0  0  0  0  0  0  0
   20.5280   13.9320   12.7310 C   0  0  0  0  0  0  0  0  0  0  0  0
   19.6080   13.3630   11.9250 N   0  0  0  0  0  0  0  0  0  0  0  0
   19.8490   13.4270   10.6060 C   0  0  0  0  0  0  0  0  0  0  0  0
   20.9610   14.0500   10.0560 C   0  0  0  0  0  0  0  0  0  0  0  0
   21.9200   14.6660   10.8950 C   0  0  0  0  0  0  0  0  0  0  0  0
   21.7260   15.8740    6.7500 C   0  0  0  0  0  0  0  0  0  0  0  0
   20.5640   16.4170    6.4530 N   0  0  0  0  0  0  0  0  0  0  0  0
   18.9504   19.6134    8.5356 H   0  0  0  0  0  0  0  0  0  0  0  0
   19.8320   19.3891    6.9867 H   0  0  0  0  0  0  0  0  0  0  0  0
   18.0430   19.5504    6.9867 H   0  0  0  0  0  0  0  0  0  0  0  0
   18.2874   17.4224    8.6393 H   0  0  0  0  0  0  0  0  0  0  0  0
   18.1728   17.2804    6.8318 H   0  0  0  0  0  0  0  0  0  0  0  0
   20.9131   17.0573    9.7085 H   0  0  0  0  0  0  0  0  0  0  0  0
   24.9207   16.3884   11.0680 H   0  0  0  0  0  0  0  0  0  0  0  0
   24.3746   18.2497   13.1269 H   0  0  0  0  0  0  0  0  0  0  0  0
   26.8976   17.8531   14.3816 H   0  0  0  0  0  0  0  0  0  0  0  0
   24.6623   18.3399   16.3958 H   0  0  0  0  0  0  0  0  0  0  0  0
   25.7194   16.8918   16.2854 H   0  0  0  0  0  0  0  0  0  0  0  0
   26.4810   18.5186   18.0244 H   0  0  0  0  0  0  0  0  0  0  0  0
   27.6974   18.2601   16.7090 H   0  0  0  0  0  0  0  0  0  0  0  0
   26.7745   21.5039   15.1236 H   0  0  0  0  0  0  0  0  0  0  0  0
   22.3792   15.0520   14.2877 H   0  0  0  0  0  0  0  0  0  0  0  0
   20.3550   13.8836   13.8162 H   0  0  0  0  0  0  0  0  0  0  0  0
   19.1248   12.9596    9.9226 H   0  0  0  0  0  0  0  0  0  0  0  0
   21.0972   14.0649    8.9646 H   0  0  0  0  0  0  0  0  0  0  0  0
   22.3715   15.3438    6.0343 H   0  0  0  0  0  0  0  0  0  0  0  0
  1  2  1  0
  2  3  1  0
  3  4  2  0
  4  5  1  0
  5  6  1  0
  6  7  2  0
  6  8  2  0
  6  9  1  0
  9 10  2  0
 10 11  1  0
 11 12  1  0
 12 13  2  0
 12 14  1  0
 14 15  1  0
 15 16  1  0
 16 17  1  0
 17 18  1  0
 18 19  2  0
 18 20  1  0
 20 21  1  0
 21 22  2  0
 11 23  2  0
 23 24  1  0
 24 25  2  0
 25 26  1  0
 26 27  2  0
 27 28  1  0
 28 29  2  0
  5 30  1  0
 30 31  2  0
 31  3  1  0
 29  9  1  0
 21 15  1  0
 29 24  1  0
  1 32  1  0
  1 33  1  0
  1 34  1  0
  2 35  1  0
  2 36  1  0
  4 37  1  0
 10 38  1  0
 14 39  1  0
 15 40  1  6
 16 41  1  0
 16 42  1  0
 17 43  1  0
 17 44  1  0
 20 45  1  0
 23 46  1  0
 25 47  1  0
 27 48  1  0
 28 49  1  0
 30 50  1  0
M  END
>  <meeko>  (361) 
{"is_sidechain": [true], "free_energy": -10.91, "intermolecular_energy": 0.0, "internal_energy": -10.91, "cluster_size": 20, "cluster_id": 1, "rank_in_cluster": 1}

>  <_RMSD_MCS_to_ref>  (361) 
0.6424651309171912

$$$$
ligand
     RDKit          3D

 54 57  0  0  0  0  0  0  0  0999 V2000
   18.9090   19.1540    7.5370 C   0  0  0  0  0  0  0  0  0  0  0  0
   18.7730   17.6460    7.6780 C   0  0  0  0  0  0  0  0  0  0  0  0
   20.0860   16.9520    7.5830 C   0  0  0  0  0  0  0  0  0  0  0  0
   20.9820   16.6490    8.5900 C   0  0  0  0  0  0  0  0  0  0  0  0
   21.9980   16.0000    7.9490 N   0  0  0  0  0  0  0  0  0  0  0  0
   23.4800   15.5800    8.6200 S   0  0  0  0  0  6  0  0  0  0  0  0
   24.3590   16.7050    8.3700 O   0  0  0  0  0  0  0  0  0  0  0  0
   23.7730   14.2430    8.1400 O   0  0  0  0  0  0  0  0  0  0  0  0
   23.1410   15.4940   10.3560 C   0  0  0  0  0  0  0  0  0  0  0  0
   22.1120   14.6750   10.8260 C   0  0  0  0  0  0  0  0  0  0  0  0
   21.8490   14.5950   12.2040 C   0  0  0  0  0  0  0  0  0  0  0  0
   22.6300   15.3440   13.1130 C   0  0  0  0  0  0  0  0  0  0  0  0
   23.6320   16.2000   12.6110 C   0  0  0  0  0  0  0  0  0  0  0  0
   24.4840   17.0480   13.4770 C   0  0  0  0  0  0  0  0  0  0  0  0
   25.7030   16.9870   13.3820 O   0  0  0  0  0  0  0  0  0  0  0  0
   23.8200   17.9060   14.3170 N   0  0  0  0  0  0  0  0  0  0  0  0
   24.5270   18.7440   15.2710 C   0  0  1  0  0  0  0  0  0  0  0  0
   25.5720   17.9600   16.0550 C   0  0  0  0  0  0  0  0  0  0  0  0
   26.2890   18.8940   17.0170 C   0  0  0  0  0  0  0  0  0  0  0  0
   26.8940   20.0720   16.2900 C   0  0  0  0  0  0  0  0  0  0  0  0
   27.9450   20.5970   16.6450 O   0  0  0  0  0  0  0  0  0  0  0  0
   26.1930   20.5570   15.2160 N   0  0  0  0  0  0  0  0  0  0  0  0
   25.2180   19.8860   14.5190 C   0  0  0  0  0  0  0  0  0  0  0  0
   24.9270   20.2030   13.3670 O   0  0  0  0  0  0  0  0  0  0  0  0
   23.8960   16.2640   11.2380 C   0  0  0  0  0  0  0  0  0  0  0  0
   22.3510   15.2130   14.5960 C   0  0  0  0  0  0  0  0  0  0  0  0
   21.5360   13.9620   14.9390 C   0  0  0  0  0  0  0  0  0  0  0  0
   20.3620   13.8700   14.0710 N   0  0  0  0  0  0  0  0  0  0  0  0
   20.7760   13.6400   12.6870 C   0  0  0  0  0  0  0  0  0  0  0  0
   21.7350   15.9660    6.6170 C   0  0  0  0  0  0  0  0  0  0  0  0
   20.5720   16.5280    6.3610 N   0  0  0  0  0  0  0  0  0  0  0  0
   18.9504   19.6134    8.5356 H   0  0  0  0  0  0  0  0  0  0  0  0
   19.8320   19.3891    6.9867 H   0  0  0  0  0  0  0  0  0  0  0  0
   18.0430   19.5504    6.9867 H   0  0  0  0  0  0  0  0  0  0  0  0
   18.3232   17.4208    8.6562 H   0  0  0  0  0  0  0  0  0  0  0  0
   18.1400   17.2854    6.8538 H   0  0  0  0  0  0  0  0  0  0  0  0
   20.8965   16.8781    9.6625 H   0  0  0  0  0  0  0  0  0  0  0  0
   21.5066   14.0918   10.1165 H   0  0  0  0  0  0  0  0  0  0  0  0
   22.7924   17.9576   14.2702 H   0  0  0  0  0  0  0  0  0  0  0  0
   23.7902   19.1357   15.9877 H   0  0  0  0  0  0  0  0  0  0  0  0
   25.0787   17.1571   16.6225 H   0  0  0  0  0  0  0  0  0  0  0  0
   26.3009   17.5212   15.3577 H   0  0  0  0  0  0  0  0  0  0  0  0
   25.5684   19.2639   17.7613 H   0  0  0  0  0  0  0  0  0  0  0  0
   27.0999   18.3337   17.5053 H   0  0  0  0  0  0  0  0  0  0  0  0
   26.4182   21.5122   14.9032 H   0  0  0  0  0  0  0  0  0  0  0  0
   24.6945   16.9181   10.8578 H   0  0  0  0  0  0  0  0  0  0  0  0
   23.3108   15.1647   15.1312 H   0  0  0  0  0  0  0  0  0  0  0  0
   21.7577   16.0881   14.8997 H   0  0  0  0  0  0  0  0  0  0  0  0
   22.1633   13.0696   14.7974 H   0  0  0  0  0  0  0  0  0  0  0  0
   21.2042   14.0257   15.9858 H   0  0  0  0  0  0  0  0  0  0  0  0
   19.7681   13.0885   14.3831 H   0  0  0  0  0  0  0  0  0  0  0  0
   21.1633   12.6136   12.6066 H   0  0  0  0  0  0  0  0  0  0  0  0
   19.8908   13.8060   12.0555 H   0  0  0  0  0  0  0  0  0  0  0  0
   22.4008   15.5298    5.8578 H   0  0  0  0  0  0  0  0  0  0  0  0
  1  2  1  0
  2  3  1  0
  3  4  2  0
  4  5  1  0
  5  6  1  0
  6  7  2  0
  6  8  2  0
  6  9  1  0
  9 10  2  0
 10 11  1  0
 11 12  2  0
 12 13  1  0
 13 14  1  0
 14 15  2  0
 14 16  1  0
 16 17  1  0
 17 18  1  0
 18 19  1  0
 19 20  1  0
 20 21  2  0
 20 22  1  0
 22 23  1  0
 23 24  2  0
 13 25  2  0
 12 26  1  0
 26 27  1  0
 27 28  1  0
 28 29  1  0
  5 30  1  0
 30 31  2  0
 31  3  1  0
 25  9  1  0
 29 11  1  0
 23 17  1  0
  1 32  1  0
  1 33  1  0
  1 34  1  0
  2 35  1  0
  2 36  1  0
  4 37  1  0
 10 38  1  0
 16 39  1  0
 17 40  1  1
 18 41  1  0
 18 42  1  0
 19 43  1  0
 19 44  1  0
 22 45  1  0
 25 46  1  0
 26 47  1  0
 26 48  1  0
 27 49  1  0
 27 50  1  0
 28 51  1  0
 29 52  1  0
 29 53  1  0
 30 54  1  0
M  END
>  <meeko>  (362) 
{"is_sidechain": [true], "free_energy": -10.91, "intermolecular_energy": 0.0, "internal_energy": -10.91, "cluster_size": 20, "cluster_id": 1, "rank_in_cluster": 1}

>  <_RMSD_MCS_to_ref>  (362) 
0.6151529168516647

$$$$
ligand
     RDKit          3D

 47 50  0  0  0  0  0  0  0  0999 V2000
   18.9090   19.1540    7.5370 C   0  0  0  0  0  0  0  0  0  0  0  0
   18.7730   17.6460    7.6780 C   0  0  0  0  0  0  0  0  0  0  0  0
   20.0170   16.9300    7.2830 C   0  0  0  0  0  0  0  0  0  0  0  0
   21.2320   16.8760    7.9340 C   0  0  0  0  0  0  0  0  0  0  0  0
   22.0170   16.1150    7.1150 N   0  0  0  0  0  0  0  0  0  0  0  0
   23.5380   15.5000    7.5040 S   0  0  0  0  0  6  0  0  0  0  0  0
   23.9050   14.6740    6.3690 O   0  0  0  0  0  0  0  0  0  0  0  0
   24.3210   16.6590    7.8850 O   0  0  0  0  0  0  0  0  0  0  0  0
   23.3170   14.5470    8.8090 O   0  0  0  0  0  0  0  0  0  0  0  0
   23.3240   15.0330   10.0930 C   0  0  0  0  0  0  0  0  0  0  0  0
   22.3770   14.7150   11.0870 C   0  0  0  0  0  0  0  0  0  0  0  0
   22.4770   15.2630   12.3720 C   0  0  0  0  0  0  0  0  0  0  0  0
   23.5320   16.1170   12.6210 C   0  0  0  0  0  0  0  0  0  0  0  0
   24.4700   16.4430   11.6540 C   0  0  0  0  0  0  0  0  0  0  0  0
   24.3840   15.9060   10.3800 C   0  0  0  0  0  0  0  0  0  0  0  0
   25.5050   17.3720   12.1410 C   0  0  0  0  0  0  0  0  0  0  0  0
   26.4490   17.7740   11.4900 O   0  0  0  0  0  0  0  0  0  0  0  0
   25.2230   17.7270   13.4830 N   0  0  0  0  0  0  0  0  0  0  0  0
   26.1680   18.3310   14.4300 C   0  0  2  0  0  0  0  0  0  0  0  0
   25.7430   18.0260   15.8630 C   0  0  0  0  0  0  0  0  0  0  0  0
   26.7100   18.6890   16.8320 C   0  0  0  0  0  0  0  0  0  0  0  0
   26.7950   20.1780   16.5860 C   0  0  0  0  0  0  0  0  0  0  0  0
   27.0620   20.9760   17.4790 O   0  0  0  0  0  0  0  0  0  0  0  0
   26.6190   20.5950   15.2900 N   0  0  0  0  0  0  0  0  0  0  0  0
   26.2470   19.8390   14.2040 C   0  0  0  0  0  0  0  0  0  0  0  0
   26.0320   20.3750   13.1180 O   0  0  0  0  0  0  0  0  0  0  0  0
   23.8900   16.9210   14.1210 S   0  0  0  0  0  6  0  0  0  0  0  0
   24.3280   15.9450   15.0850 O   0  0  0  0  0  0  0  0  0  0  0  0
   22.8580   17.8950   14.3860 O   0  0  0  0  0  0  0  0  0  0  0  0
   21.2710   15.6720    6.0710 C   0  0  0  0  0  0  0  0  0  0  0  0
   20.0550   16.1700    6.1300 N   0  0  0  0  0  0  0  0  0  0  0  0
   18.9504   19.6134    8.5356 H   0  0  0  0  0  0  0  0  0  0  0  0
   19.8320   19.3891    6.9867 H   0  0  0  0  0  0  0  0  0  0  0  0
   18.0430   19.5504    6.9867 H   0  0  0  0  0  0  0  0  0  0  0  0
   18.5449   17.4074    8.7273 H   0  0  0  0  0  0  0  0  0  0  0  0
   17.9658   17.3155    7.0078 H   0  0  0  0  0  0  0  0  0  0  0  0
   21.5060   17.3396    8.8931 H   0  0  0  0  0  0  0  0  0  0  0  0
   21.5502   14.0289   10.8510 H   0  0  0  0  0  0  0  0  0  0  0  0
   21.7418   15.0216   13.1538 H   0  0  0  0  0  0  0  0  0  0  0  0
   25.1294   16.1582    9.6114 H   0  0  0  0  0  0  0  0  0  0  0  0
   27.1660   17.8998   14.2624 H   0  0  0  0  0  0  0  0  0  0  0  0
   24.7282   18.4143   16.0348 H   0  0  0  0  0  0  0  0  0  0  0  0
   25.7520   16.9379   16.0238 H   0  0  0  0  0  0  0  0  0  0  0  0
   26.3628   18.5145   17.8611 H   0  0  0  0  0  0  0  0  0  0  0  0
   27.7086   18.2533   16.6806 H   0  0  0  0  0  0  0  0  0  0  0  0
   26.7859   21.5953   15.1096 H   0  0  0  0  0  0  0  0  0  0  0  0
   21.6327   14.9919    5.2857 H   0  0  0  0  0  0  0  0  0  0  0  0
  1  2  1  0
  2  3  1  0
  3  4  2  0
  4  5  1  0
  5  6  1  0
  6  7  2  0
  6  8  2  0
  6  9  1  0
  9 10  1  0
 10 11  2  0
 11 12  1  0
 12 13  2  0
 13 14  1  0
 14 15  2  0
 14 16  1  0
 16 17  2  0
 16 18  1  0
 18 19  1  0
 19 20  1  0
 20 21  1  0
 21 22  1  0
 22 23  2  0
 22 24  1  0
 24 25  1  0
 25 26  2  0
 18 27  1  0
 27 28  2  0
 27 29  2  0
  5 30  1  0
 30 31  2  0
 31  3  1  0
 15 10  1  0
 25 19  1  0
 27 13  1  0
  1 32  1  0
  1 33  1  0
  1 34  1  0
  2 35  1  0
  2 36  1  0
  4 37  1  0
 11 38  1  0
 12 39  1  0
 15 40  1  0
 19 41  1  6
 20 42  1  0
 20 43  1  0
 21 44  1  0
 21 45  1  0
 24 46  1  0
 30 47  1  0
M  END
>  <meeko>  (363) 
{"is_sidechain": [true], "free_energy": -10.91, "intermolecular_energy": 0.0, "internal_energy": -10.91, "cluster_size": 18, "cluster_id": 1, "rank_in_cluster": 1}

>  <_RMSD_MCS_to_ref>  (363) 
0.8615297118755938

$$$$
ligand
     RDKit          3D

 55 59  0  0  0  0  0  0  0  0999 V2000
   18.9090   19.1540    7.5370 C   0  0  0  0  0  0  0  0  0  0  0  0
   18.7730   17.6460    7.6780 C   0  0  0  0  0  0  0  0  0  0  0  0
   19.6220   16.9120    6.7000 C   0  0  0  0  0  0  0  0  0  0  0  0
   20.8830   17.2270    6.2340 C   0  0  0  0  0  0  0  0  0  0  0  0
   21.1690   16.2340    5.3430 N   0  0  0  0  0  0  0  0  0  0  0  0
   22.6590   15.9600    4.6160 S   0  0  0  0  0  6  0  0  0  0  0  0
   22.4690   14.8150    3.7490 O   0  0  0  0  0  0  0  0  0  0  0  0
   23.1050   17.2490    4.1230 O   0  0  0  0  0  0  0  0  0  0  0  0
   23.7000   15.4870    5.9630 C   0  0  0  0  0  0  0  0  0  0  0  0
   24.8170   14.6930    5.7250 C   0  0  0  0  0  0  0  0  0  0  0  0
   25.5990   14.3710    6.8130 C   0  0  0  0  0  0  0  0  0  0  0  0
   25.3350   14.7830    8.0720 N   0  0  0  0  0  0  0  0  0  0  0  0
   24.2450   15.5650    8.2920 C   0  0  0  0  0  0  0  0  0  0  0  0
   24.0290   15.9800    9.6950 C   0  0  0  0  0  0  0  0  0  0  0  0
   22.8180   15.6920   10.3820 C   0  0  0  0  0  0  0  0  0  0  0  0
   22.6080   16.0880   11.7090 C   0  0  0  0  0  0  0  0  0  0  0  0
   23.6310   16.7650   12.3390 C   0  0  0  0  0  0  0  0  0  0  0  0
   24.8330   17.0600   11.7080 C   0  0  0  0  0  0  0  0  0  0  0  0
   25.0430   16.6740   10.3930 C   0  0  0  0  0  0  0  0  0  0  0  0
   25.7300   17.8080   12.6360 C   0  0  0  0  0  0  0  0  0  0  0  0
   24.9610   17.8230   13.8750 N   0  0  0  0  0  0  0  0  0  0  0  0
   25.3020   18.6550   15.0230 C   0  0  1  0  0  0  0  0  0  0  0  0
   26.3400   18.0000   15.9290 C   0  0  0  0  0  0  0  0  0  0  0  0
   26.5750   18.8830   17.1460 C   0  0  0  0  0  0  0  0  0  0  0  0
   26.9830   20.2790   16.7370 C   0  0  0  0  0  0  0  0  0  0  0  0
   27.7900   20.9420   17.3800 O   0  0  0  0  0  0  0  0  0  0  0  0
   26.3880   20.7860   15.6090 N   0  0  0  0  0  0  0  0  0  0  0  0
   25.8090   20.0460   14.6030 C   0  0  0  0  0  0  0  0  0  0  0  0
   25.7320   20.5010   13.4650 O   0  0  0  0  0  0  0  0  0  0  0  0
   23.6910   17.2900   13.7060 C   0  0  0  0  0  0  0  0  0  0  0  0
   22.7820   17.2480   14.5130 O   0  0  0  0  0  0  0  0  0  0  0  0
   23.4080   15.9440    7.2490 C   0  0  0  0  0  0  0  0  0  0  0  0
   20.1420   15.3450    5.3210 C   0  0  0  0  0  0  0  0  0  0  0  0
   19.1800   15.7330    6.1310 N   0  0  0  0  0  0  0  0  0  0  0  0
   18.9504   19.6134    8.5356 H   0  0  0  0  0  0  0  0  0  0  0  0
   19.8320   19.3891    6.9867 H   0  0  0  0  0  0  0  0  0  0  0  0
   18.0430   19.5504    6.9867 H   0  0  0  0  0  0  0  0  0  0  0  0
   19.0737   17.3566    8.6958 H   0  0  0  0  0  0  0  0  0  0  0  0
   17.7238   17.3812    7.4806 H   0  0  0  0  0  0  0  0  0  0  0  0
   21.5132   18.0831    6.5166 H   0  0  0  0  0  0  0  0  0  0  0  0
   25.0650   14.3381    4.7138 H   0  0  0  0  0  0  0  0  0  0  0  0
   26.4873   13.7438    6.6470 H   0  0  0  0  0  0  0  0  0  0  0  0
   22.0232   15.1424    9.8563 H   0  0  0  0  0  0  0  0  0  0  0  0
   21.6638   15.8676   12.2284 H   0  0  0  0  0  0  0  0  0  0  0  0
   25.9956   16.9071    9.8948 H   0  0  0  0  0  0  0  0  0  0  0  0
   26.6887   17.2854   12.7695 H   0  0  0  0  0  0  0  0  0  0  0  0
   25.9971   18.8117   12.2736 H   0  0  0  0  0  0  0  0  0  0  0  0
   24.3644   18.7710   15.5864 H   0  0  0  0  0  0  0  0  0  0  0  0
   25.9740   17.0152   16.2549 H   0  0  0  0  0  0  0  0  0  0  0  0
   27.2834   17.8745   15.3774 H   0  0  0  0  0  0  0  0  0  0  0  0
   25.6470   18.9381   17.7340 H   0  0  0  0  0  0  0  0  0  0  0  0
   27.3872   18.4436   17.7438 H   0  0  0  0  0  0  0  0  0  0  0  0
   26.3734   21.8107   15.5061 H   0  0  0  0  0  0  0  0  0  0  0  0
   22.5360   16.5889    7.4328 H   0  0  0  0  0  0  0  0  0  0  0  0
   20.1179   14.4295    4.7117 H   0  0  0  0  0  0  0  0  0  0  0  0
  1  2  1  0
  2  3  1  0
  3  4  2  0
  4  5  1  0
  5  6  1  0
  6  7  2  0
  6  8  2  0
  6  9  1  0
  9 10  2  0
 10 11  1  0
 11 12  2  0
 12 13  1  0
 13 14  1  0
 14 15  2  0
 15 16  1  0
 16 17  2  0
 17 18  1  0
 18 19  2  0
 18 20  1  0
 20 21  1  0
 21 22  1  0
 22 23  1  0
 23 24  1  0
 24 25  1  0
 25 26  2  0
 25 27  1  0
 27 28  1  0
 28 29  2  0
 21 30  1  0
 30 31  2  0
 13 32  2  0
  5 33  1  0
 33 34  2  0
 34  3  1  0
 32  9  1  0
 19 14  1  0
 28 22  1  0
 30 17  1  0
  1 35  1  0
  1 36  1  0
  1 37  1  0
  2 38  1  0
  2 39  1  0
  4 40  1  0
 10 41  1  0
 11 42  1  0
 15 43  1  0
 16 44  1  0
 19 45  1  0
 20 46  1  0
 20 47  1  0
 22 48  1  1
 23 49  1  0
 23 50  1  0
 24 51  1  0
 24 52  1  0
 27 53  1  0
 32 54  1  0
 33 55  1  0
M  END
>  <meeko>  (364) 
{"is_sidechain": [true], "free_energy": -10.91, "intermolecular_energy": 0.0, "internal_energy": -10.91, "cluster_size": 19, "cluster_id": 1, "rank_in_cluster": 1}

>  <_RMSD_MCS_to_ref>  (364) 
0.8237962935904323

$$$$
ligand
     RDKit          3D

 52 56  0  0  0  0  0  0  0  0999 V2000
   18.7970   18.8170    7.7190 C   0  0  0  0  0  0  0  0  0  0  0  0
   18.5280   17.3290    7.8810 C   0  0  0  0  0  0  0  0  0  0  0  0
   19.7840   16.5360    7.9510 C   0  0  0  0  0  0  0  0  0  0  0  0
   20.4110   15.9950    9.0570 C   0  0  0  0  0  0  0  0  0  0  0  0
   21.5200   15.3830    8.5480 N   0  0  0  0  0  0  0  0  0  0  0  0
   22.6000   14.4380    9.4180 S   0  0  0  0  0  6  0  0  0  0  0  0
   22.8160   13.2250    8.6550 O   0  0  0  0  0  0  0  0  0  0  0  0
   23.6920   15.3380    9.7530 O   0  0  0  0  0  0  0  0  0  0  0  0
   21.7700   14.0380   10.9170 C   0  0  0  0  0  0  0  0  0  0  0  0
   20.5530   13.3780   10.8900 C   0  0  0  0  0  0  0  0  0  0  0  0
   19.8770   13.0530   12.0430 C   0  0  0  0  0  0  0  0  0  0  0  0
   20.3550   13.3550   13.3060 C   0  0  0  0  0  0  0  0  0  0  0  0
   21.5930   14.0270   13.3790 C   0  0  0  0  0  0  0  0  0  0  0  0
   22.3920   14.4950   14.4600 C   0  0  0  0  0  0  0  0  0  0  0  0
   23.5260   15.0970   13.9420 C   0  0  0  0  0  0  0  0  0  0  0  0
   24.6620   15.7370   14.5680 C   0  0  0  0  0  0  0  0  0  0  0  0
   25.6220   15.1030   14.9920 O   0  0  0  0  0  0  0  0  0  0  0  0
   24.6010   17.1070   14.6440 N   0  0  0  0  0  0  0  0  0  0  0  0
   25.7290   17.8960   15.1110 C   0  0  2  0  0  0  0  0  0  0  0  0
   25.9250   17.7890   16.6200 C   0  0  0  0  0  0  0  0  0  0  0  0
   27.0920   18.6690   17.0420 C   0  0  0  0  0  0  0  0  0  0  0  0
   26.8910   20.0990   16.5990 C   0  0  0  0  0  0  0  0  0  0  0  0
   27.2890   21.0560   17.2570 O   0  0  0  0  0  0  0  0  0  0  0  0
   26.2590   20.2860   15.3950 N   0  0  0  0  0  0  0  0  0  0  0  0
   25.4800   19.3620   14.7450 C   0  0  0  0  0  0  0  0  0  0  0  0
   24.6420   19.7070   13.9120 O   0  0  0  0  0  0  0  0  0  0  0  0
   23.4310   14.9930   12.5720 N   0  0  0  0  0  0  0  0  0  0  0  0
   22.2690   14.3510   12.1980 C   0  0  0  0  0  0  0  0  0  0  0  0
   18.7010   12.4120   11.7980 O   0  0  0  0  0  0  0  0  0  0  0  0
   18.7080   12.3570   10.3590 C   0  0  0  0  0  0  0  0  0  0  0  0
   19.8770   12.9730    9.7800 O   0  0  0  0  0  0  0  0  0  0  0  0
   21.5340   15.5350    7.1990 C   0  0  0  0  0  0  0  0  0  0  0  0
   20.4910   16.2370    6.8030 N   0  0  0  0  0  0  0  0  0  0  0  0
   18.8815   19.2845    8.7111 H   0  0  0  0  0  0  0  0  0  0  0  0
   19.7359   18.9616    7.1643 H   0  0  0  0  0  0  0  0  0  0  0  0
   17.9682   19.2812    7.1643 H   0  0  0  0  0  0  0  0  0  0  0  0
   17.9570   17.1710    8.8078 H   0  0  0  0  0  0  0  0  0  0  0  0
   17.9629   16.9899    7.0003 H   0  0  0  0  0  0  0  0  0  0  0  0
   20.0898   16.0458   10.1078 H   0  0  0  0  0  0  0  0  0  0  0  0
   19.7945   13.0831   14.2126 H   0  0  0  0  0  0  0  0  0  0  0  0
   22.1491   14.3951   15.5282 H   0  0  0  0  0  0  0  0  0  0  0  0
   23.7343   17.5874   14.3631 H   0  0  0  0  0  0  0  0  0  0  0  0
   26.6390   17.5091   14.6291 H   0  0  0  0  0  0  0  0  0  0  0  0
   25.0106   18.1212   17.1333 H   0  0  0  0  0  0  0  0  0  0  0  0
   26.1369   16.7438   16.8896 H   0  0  0  0  0  0  0  0  0  0  0  0
   27.1821   18.6430   18.1380 H   0  0  0  0  0  0  0  0  0  0  0  0
   28.0061   18.2840   16.5664 H   0  0  0  0  0  0  0  0  0  0  0  0
   26.3803   21.2014   14.9387 H   0  0  0  0  0  0  0  0  0  0  0  0
   24.1369   15.3489   11.9117 H   0  0  0  0  0  0  0  0  0  0  0  0
   18.6762   11.3024   10.0478 H   0  0  0  0  0  0  0  0  0  0  0  0
   17.8297   12.9152   10.0027 H   0  0  0  0  0  0  0  0  0  0  0  0
   22.3073   15.1292    6.5302 H   0  0  0  0  0  0  0  0  0  0  0  0
  1  2  1  0
  2  3  1  0
  3  4  2  0
  4  5  1  0
  5  6  1  0
  6  7  2  0
  6  8  2  0
  6  9  1  0
  9 10  2  0
 10 11  1  0
 11 12  2  0
 12 13  1  0
 13 14  1  0
 14 15  2  0
 15 16  1  0
 16 17  2  0
 16 18  1  0
 18 19  1  0
 19 20  1  0
 20 21  1  0
 21 22  1  0
 22 23  2  0
 22 24  1  0
 24 25  1  0
 25 26  2  0
 15 27  1  0
 27 28  1  0
 11 29  1  0
 29 30  1  0
 30 31  1  0
  5 32  1  0
 32 33  2  0
 33  3  1  0
 28  9  1  0
 31 10  1  0
 28 13  2  0
 25 19  1  0
  1 34  1  0
  1 35  1  0
  1 36  1  0
  2 37  1  0
  2 38  1  0
  4 39  1  0
 12 40  1  0
 14 41  1  0
 18 42  1  0
 19 43  1  6
 20 44  1  0
 20 45  1  0
 21 46  1  0
 21 47  1  0
 24 48  1  0
 27 49  1  0
 30 50  1  0
 30 51  1  0
 32 52  1  0
M  END
>  <meeko>  (365) 
{"is_sidechain": [true], "free_energy": -10.9, "intermolecular_energy": 0.0, "internal_energy": -10.9, "cluster_size": 15, "cluster_id": 1, "rank_in_cluster": 1}

>  <_RMSD_MCS_to_ref>  (365) 
0.5434842454018327

$$$$
ligand
     RDKit          3D

 46 49  0  0  0  0  0  0  0  0999 V2000
   18.9090   19.1540    7.5370 C   0  0  0  0  0  0  0  0  0  0  0  0
   18.7730   17.6460    7.6780 C   0  0  0  0  0  0  0  0  0  0  0  0
   20.0510   16.9370    7.3920 C   0  0  0  0  0  0  0  0  0  0  0  0
   21.0950   16.6480    8.2470 C   0  0  0  0  0  0  0  0  0  0  0  0
   21.9820   15.9570    7.4710 N   0  0  0  0  0  0  0  0  0  0  0  0
   23.5620   15.5610    7.9010 S   0  0  0  0  0  6  0  0  0  0  0  0
   24.0360   14.7030    6.8330 O   0  0  0  0  0  0  0  0  0  0  0  0
   24.1960   16.8310    8.1980 O   0  0  0  0  0  0  0  0  0  0  0  0
   23.4510   14.6890    9.2750 O   0  0  0  0  0  0  0  0  0  0  0  0
   23.3070   15.2800   10.5020 C   0  0  0  0  0  0  0  0  0  0  0  0
   22.2720   15.0410   11.4180 C   0  0  0  0  0  0  0  0  0  0  0  0
   22.1660   15.6510   12.6260 N   0  0  0  0  0  0  0  0  0  0  0  0
   23.1430   16.5310   12.8920 C   0  0  0  0  0  0  0  0  0  0  0  0
   24.2110   16.8370   12.0660 C   0  0  0  0  0  0  0  0  0  0  0  0
   24.3030   16.2050   10.8410 C   0  0  0  0  0  0  0  0  0  0  0  0
   25.0960   17.8470   12.7110 C   0  0  0  0  0  0  0  0  0  0  0  0
   24.4120   18.1140   13.9690 N   0  0  0  0  0  0  0  0  0  0  0  0
   24.9830   18.8900   15.0680 C   0  0  1  0  0  0  0  0  0  0  0  0
   25.9930   18.0540   15.8570 C   0  0  0  0  0  0  0  0  0  0  0  0
   26.4720   18.8360   17.0700 C   0  0  0  0  0  0  0  0  0  0  0  0
   27.0510   20.1700   16.6650 C   0  0  0  0  0  0  0  0  0  0  0  0
   27.9890   20.6890   17.2610 O   0  0  0  0  0  0  0  0  0  0  0  0
   26.4580   20.7970   15.5990 N   0  0  0  0  0  0  0  0  0  0  0  0
   25.6400   20.2180   14.6550 C   0  0  0  0  0  0  0  0  0  0  0  0
   25.4600   20.7730   13.5740 O   0  0  0  0  0  0  0  0  0  0  0  0
   23.2810   17.3180   14.1330 C   0  0  0  0  0  0  0  0  0  0  0  0
   22.5740   17.2620   15.1220 O   0  0  0  0  0  0  0  0  0  0  0  0
   21.5180   15.9160    6.1960 C   0  0  0  0  0  0  0  0  0  0  0  0
   20.3330   16.4840    6.1180 N   0  0  0  0  0  0  0  0  0  0  0  0
   18.9504   19.6134    8.5356 H   0  0  0  0  0  0  0  0  0  0  0  0
   19.8320   19.3891    6.9867 H   0  0  0  0  0  0  0  0  0  0  0  0
   18.0430   19.5504    6.9867 H   0  0  0  0  0  0  0  0  0  0  0  0
   18.4612   17.4130    8.7068 H   0  0  0  0  0  0  0  0  0  0  0  0
   18.0261   17.3043    6.9463 H   0  0  0  0  0  0  0  0  0  0  0  0
   21.1910   16.9133    9.3102 H   0  0  0  0  0  0  0  0  0  0  0  0
   21.4964   14.3124   11.1395 H   0  0  0  0  0  0  0  0  0  0  0  0
   25.1332   16.4215   10.1526 H   0  0  0  0  0  0  0  0  0  0  0  0
   26.1025   17.4390   12.8854 H   0  0  0  0  0  0  0  0  0  0  0  0
   25.2506   18.7473   12.0981 H   0  0  0  0  0  0  0  0  0  0  0  0
   24.1187   19.1554   15.6945 H   0  0  0  0  0  0  0  0  0  0  0  0
   25.5145   17.1210   16.1895 H   0  0  0  0  0  0  0  0  0  0  0  0
   26.8532   17.8198   15.2126 H   0  0  0  0  0  0  0  0  0  0  0  0
   25.6216   19.0045   17.7471 H   0  0  0  0  0  0  0  0  0  0  0  0
   27.2579   18.2530   17.5725 H   0  0  0  0  0  0  0  0  0  0  0  0
   26.6437   21.8046   15.4939 H   0  0  0  0  0  0  0  0  0  0  0  0
   22.0568   15.4705    5.3468 H   0  0  0  0  0  0  0  0  0  0  0  0
  1  2  1  0
  2  3  1  0
  3  4  2  0
  4  5  1  0
  5  6  1  0
  6  7  2  0
  6  8  2  0
  6  9  1  0
  9 10  1  0
 10 11  2  0
 11 12  1  0
 12 13  2  0
 13 14  1  0
 14 15  2  0
 14 16  1  0
 16 17  1  0
 17 18  1  0
 18 19  1  0
 19 20  1  0
 20 21  1  0
 21 22  2  0
 21 23  1  0
 23 24  1  0
 24 25  2  0
 17 26  1  0
 26 27  2  0
  5 28  1  0
 28 29  2  0
 29  3  1  0
 15 10  1  0
 24 18  1  0
 26 13  1  0
  1 30  1  0
  1 31  1  0
  1 32  1  0
  2 33  1  0
  2 34  1  0
  4 35  1  0
 11 36  1  0
 15 37  1  0
 16 38  1  0
 16 39  1  0
 18 40  1  1
 19 41  1  0
 19 42  1  0
 20 43  1  0
 20 44  1  0
 23 45  1  0
 28 46  1  0
M  END
>  <meeko>  (366) 
{"is_sidechain": [true], "free_energy": -10.9, "intermolecular_energy": 0.0, "internal_energy": -10.9, "cluster_size": 20, "cluster_id": 1, "rank_in_cluster": 1}

>  <_RMSD_MCS_to_ref>  (366) 
1.8339244804516892

$$$$
ligand
     RDKit          3D

 47 50  0  0  0  0  0  0  0  0999 V2000
   18.9090   19.1540    7.5370 C   0  0  0  0  0  0  0  0  0  0  0  0
   18.7730   17.6460    7.6780 C   0  0  0  0  0  0  0  0  0  0  0  0
   20.0950   16.9620    7.6920 C   0  0  0  0  0  0  0  0  0  0  0  0
   20.8300   16.5150    8.7720 C   0  0  0  0  0  0  0  0  0  0  0  0
   21.9420   15.9550    8.2120 N   0  0  0  0  0  0  0  0  0  0  0  0
   23.2920   15.4100    9.0380 S   0  0  0  0  0  6  0  0  0  0  0  0
   24.2960   16.4490    8.9020 O   0  0  0  0  0  0  0  0  0  0  0  0
   23.5160   14.0480    8.5920 O   0  0  0  0  0  0  0  0  0  0  0  0
   22.9090   15.3110   10.7770 C   0  0  0  0  0  0  0  0  0  0  0  0
   23.9370   15.8390   11.7150 C   0  0  0  0  0  0  0  0  0  0  0  0
   23.6700   15.7770   13.0280 C   0  0  0  0  0  0  0  0  0  0  0  0
   24.6970   16.3080   13.9750 C   0  0  0  0  0  0  0  0  0  0  0  0
   25.3230   15.5600   14.7220 O   0  0  0  0  0  0  0  0  0  0  0  0
   24.8950   17.6620   13.9490 N   0  0  0  0  0  0  0  0  0  0  0  0
   25.9060   18.3170   14.7630 C   0  0  2  0  0  0  0  0  0  0  0  0
   25.7040   18.0280   16.2480 C   0  0  0  0  0  0  0  0  0  0  0  0
   26.7780   18.7390   17.0550 C   0  0  0  0  0  0  0  0  0  0  0  0
   26.7880   20.2210   16.7700 C   0  0  0  0  0  0  0  0  0  0  0  0
   27.0830   21.0540   17.6230 O   0  0  0  0  0  0  0  0  0  0  0  0
   26.4800   20.6020   15.4890 N   0  0  0  0  0  0  0  0  0  0  0  0
   25.8600   19.8320   14.5340 C   0  0  0  0  0  0  0  0  0  0  0  0
   25.3310   20.3540   13.5550 O   0  0  0  0  0  0  0  0  0  0  0  0
   22.4410   15.2190   13.4560 C   0  0  0  0  0  0  0  0  0  0  0  0
   21.9310   15.0280   14.6590 N   0  0  0  0  0  0  0  0  0  0  0  0
   20.7040   14.4520   14.4450 C   0  0  0  0  0  0  0  0  0  0  0  0
   20.4700   14.2840   13.1020 C   0  0  0  0  0  0  0  0  0  0  0  0
   21.5790   14.7720   12.4710 N   0  0  0  0  0  0  0  0  0  0  0  0
   21.7660   14.7950   11.1270 N   0  0  0  0  0  0  0  0  0  0  0  0
   21.8900   16.1160    6.8640 C   0  0  0  0  0  0  0  0  0  0  0  0
   20.7680   16.7080    6.5130 N   0  0  0  0  0  0  0  0  0  0  0  0
   18.9504   19.6134    8.5356 H   0  0  0  0  0  0  0  0  0  0  0  0
   19.8320   19.3891    6.9867 H   0  0  0  0  0  0  0  0  0  0  0  0
   18.0430   19.5504    6.9867 H   0  0  0  0  0  0  0  0  0  0  0  0
   18.2490   17.4239    8.6193 H   0  0  0  0  0  0  0  0  0  0  0  0
   18.2094   17.2747    6.8094 H   0  0  0  0  0  0  0  0  0  0  0  0
   20.5773   16.5924    9.8398 H   0  0  0  0  0  0  0  0  0  0  0  0
   24.8814   16.2646   11.3449 H   0  0  0  0  0  0  0  0  0  0  0  0
   24.3064   18.2379   13.3303 H   0  0  0  0  0  0  0  0  0  0  0  0
   26.8861   17.9188   14.4617 H   0  0  0  0  0  0  0  0  0  0  0  0
   24.7126   18.3884   16.5598 H   0  0  0  0  0  0  0  0  0  0  0  0
   25.7726   16.9441   16.4225 H   0  0  0  0  0  0  0  0  0  0  0  0
   26.5842   18.5816   18.1263 H   0  0  0  0  0  0  0  0  0  0  0  0
   27.7566   18.3245   16.7712 H   0  0  0  0  0  0  0  0  0  0  0  0
   26.7391   21.5606   15.2153 H   0  0  0  0  0  0  0  0  0  0  0  0
   20.0024   14.1637   15.2416 H   0  0  0  0  0  0  0  0  0  0  0  0
   19.5761   13.8476   12.6325 H   0  0  0  0  0  0  0  0  0  0  0  0
   22.6758   15.7963    6.1637 H   0  0  0  0  0  0  0  0  0  0  0  0
  1  2  1  0
  2  3  1  0
  3  4  2  0
  4  5  1  0
  5  6  1  0
  6  7  2  0
  6  8  2  0
  6  9  1  0
  9 10  1  0
 10 11  2  0
 11 12  1  0
 12 13  2  0
 12 14  1  0
 14 15  1  0
 15 16  1  0
 16 17  1  0
 17 18  1  0
 18 19  2  0
 18 20  1  0
 20 21  1  0
 21 22  2  0
 11 23  1  0
 23 24  2  0
 24 25  1  0
 25 26  2  0
 26 27  1  0
 27 28  1  0
  5 29  1  0
 29 30  2  0
 30  3  1  0
 28  9  2  0
 21 15  1  0
 27 23  1  0
  1 31  1  0
  1 32  1  0
  1 33  1  0
  2 34  1  0
  2 35  1  0
  4 36  1  0
 10 37  1  0
 14 38  1  0
 15 39  1  6
 16 40  1  0
 16 41  1  0
 17 42  1  0
 17 43  1  0
 20 44  1  0
 25 45  1  0
 26 46  1  0
 29 47  1  0
M  END
>  <meeko>  (367) 
{"is_sidechain": [true], "free_energy": -10.9, "intermolecular_energy": 0.0, "internal_energy": -10.9, "cluster_size": 20, "cluster_id": 1, "rank_in_cluster": 1}

>  <_RMSD_MCS_to_ref>  (367) 
0.6838054466651231

$$$$
ligand
     RDKit          3D

 49 52  0  0  0  0  0  0  0  0999 V2000
   18.9090   19.1540    7.5370 C   0  0  0  0  0  0  0  0  0  0  0  0
   18.7730   17.6460    7.6780 C   0  0  0  0  0  0  0  0  0  0  0  0
   19.9960   16.9270    7.2260 C   0  0  0  0  0  0  0  0  0  0  0  0
   20.6430   15.8580    7.8130 C   0  0  0  0  0  0  0  0  0  0  0  0
   21.6940   15.6070    6.9800 N   0  0  0  0  0  0  0  0  0  0  0  0
   22.7540   14.3090    7.1100 S   0  0  0  0  0  6  0  0  0  0  0  0
   23.2140   14.0790    5.7540 O   0  0  0  0  0  0  0  0  0  0  0  0
   22.0690   13.2830    7.8680 O   0  0  0  0  0  0  0  0  0  0  0  0
   24.0940   14.9370    8.0670 C   0  0  0  0  0  0  0  0  0  0  0  0
   25.3420   14.9350    7.4600 C   0  0  0  0  0  0  0  0  0  0  0  0
   26.4450   15.4290    8.0480 N   0  0  0  0  0  0  0  0  0  0  0  0
   26.2900   15.9320    9.2980 C   0  0  0  0  0  0  0  0  0  0  0  0
   25.1050   15.9750   10.0150 C   0  0  0  0  0  0  0  0  0  0  0  0
   25.1060   16.5040   11.2540 N   0  0  0  0  0  0  0  0  0  0  0  0
   23.9350   16.5250   11.9400 C   0  0  0  0  0  0  0  0  0  0  0  0
   23.9780   17.1250   13.3130 C   0  0  0  0  0  0  0  0  0  0  0  0
   23.0800   16.9410   14.1250 O   0  0  0  0  0  0  0  0  0  0  0  0
   25.0890   17.8970   13.5650 N   0  0  0  0  0  0  0  0  0  0  0  0
   25.2280   18.6970   14.7680 C   0  0  1  0  0  0  0  0  0  0  0  0
   26.1240   18.0240   15.8030 C   0  0  0  0  0  0  0  0  0  0  0  0
   26.2500   18.9200   17.0250 C   0  0  0  0  0  0  0  0  0  0  0  0
   26.7570   20.2920   16.6500 C   0  0  0  0  0  0  0  0  0  0  0  0
   27.4760   20.9550   17.3920 O   0  0  0  0  0  0  0  0  0  0  0  0
   26.3480   20.7880   15.4380 N   0  0  0  0  0  0  0  0  0  0  0  0
   25.8260   20.0590   14.3980 C   0  0  0  0  0  0  0  0  0  0  0  0
   25.8340   20.5010   13.2500 O   0  0  0  0  0  0  0  0  0  0  0  0
   22.7490   16.0310   11.4360 C   0  0  0  0  0  0  0  0  0  0  0  0
   22.7620   15.4890   10.1530 C   0  0  0  0  0  0  0  0  0  0  0  0
   23.9540   15.4500    9.3860 C   0  0  0  0  0  0  0  0  0  0  0  0
   21.6750   16.4940    5.9530 C   0  0  0  0  0  0  0  0  0  0  0  0
   20.6430   17.3030    6.0650 N   0  0  0  0  0  0  0  0  0  0  0  0
   18.9504   19.6134    8.5356 H   0  0  0  0  0  0  0  0  0  0  0  0
   19.8320   19.3891    6.9867 H   0  0  0  0  0  0  0  0  0  0  0  0
   18.0430   19.5504    6.9867 H   0  0  0  0  0  0  0  0  0  0  0  0
   18.5901   17.4040    8.7353 H   0  0  0  0  0  0  0  0  0  0  0  0
   17.9358   17.3213    7.0427 H   0  0  0  0  0  0  0  0  0  0  0  0
   20.3732   15.3299    8.7395 H   0  0  0  0  0  0  0  0  0  0  0  0
   25.4327   14.5090    6.4499 H   0  0  0  0  0  0  0  0  0  0  0  0
   27.1857   16.3429    9.7867 H   0  0  0  0  0  0  0  0  0  0  0  0
   25.8517   17.9075   12.8728 H   0  0  0  0  0  0  0  0  0  0  0  0
   24.2285   18.8147   15.2121 H   0  0  0  0  0  0  0  0  0  0  0  0
   25.6828   17.0607   16.0988 H   0  0  0  0  0  0  0  0  0  0  0  0
   27.1205   17.8537   15.3694 H   0  0  0  0  0  0  0  0  0  0  0  0
   25.2625   19.0202   17.4991 H   0  0  0  0  0  0  0  0  0  0  0  0
   26.9702   18.4616   17.7186 H   0  0  0  0  0  0  0  0  0  0  0  0
   26.4414   21.8037   15.2946 H   0  0  0  0  0  0  0  0  0  0  0  0
   21.8229   16.0642   12.0287 H   0  0  0  0  0  0  0  0  0  0  0  0
   21.8318   15.0844    9.7275 H   0  0  0  0  0  0  0  0  0  0  0  0
   22.4171   16.5315    5.1419 H   0  0  0  0  0  0  0  0  0  0  0  0
  1  2  1  0
  2  3  1  0
  3  4  2  0
  4  5  1  0
  5  6  1  0
  6  7  2  0
  6  8  2  0
  6  9  1  0
  9 10  2  0
 10 11  1  0
 11 12  2  0
 12 13  1  0
 13 14  2  0
 14 15  1  0
 15 16  1  0
 16 17  2  0
 16 18  1  0
 18 19  1  0
 19 20  1  0
 20 21  1  0
 21 22  1  0
 22 23  2  0
 22 24  1  0
 24 25  1  0
 25 26  2  0
 15 27  2  0
 27 28  1  0
 28 29  2  0
  5 30  1  0
 30 31  2  0
 31  3  1  0
 29  9  1  0
 29 13  1  0
 25 19  1  0
  1 32  1  0
  1 33  1  0
  1 34  1  0
  2 35  1  0
  2 36  1  0
  4 37  1  0
 10 38  1  0
 12 39  1  0
 18 40  1  0
 19 41  1  1
 20 42  1  0
 20 43  1  0
 21 44  1  0
 21 45  1  0
 24 46  1  0
 27 47  1  0
 28 48  1  0
 30 49  1  0
M  END
>  <meeko>  (368) 
{"is_sidechain": [true], "free_energy": -10.9, "intermolecular_energy": 0.0, "internal_energy": -10.9, "cluster_size": 17, "cluster_id": 1, "rank_in_cluster": 1}

>  <_RMSD_MCS_to_ref>  (368) 
0.6306893054428622

$$$$
ligand
     RDKit          3D

 49 52  0  0  0  0  0  0  0  0999 V2000
   18.9090   19.1540    7.5370 C   0  0  0  0  0  0  0  0  0  0  0  0
   18.7730   17.6460    7.6780 C   0  0  0  0  0  0  0  0  0  0  0  0
   20.0710   16.9440    7.4870 C   0  0  0  0  0  0  0  0  0  0  0  0
   20.8410   16.2720    8.4170 C   0  0  0  0  0  0  0  0  0  0  0  0
   21.9030   15.8050    7.6970 N   0  0  0  0  0  0  0  0  0  0  0  0
   23.2910   15.1060    8.3360 S   0  0  0  0  0  6  0  0  0  0  0  0
   23.1390   13.6770    8.1480 O   0  0  0  0  0  0  0  0  0  0  0  0
   24.4020   15.8500    7.7770 O   0  0  0  0  0  0  0  0  0  0  0  0
   23.1820   15.4570   10.0500 C   0  0  0  0  0  0  0  0  0  0  0  0
   24.0080   16.4050   10.6040 C   0  0  0  0  0  0  0  0  0  0  0  0
   23.9710   16.7130   11.9200 N   0  0  0  0  0  0  0  0  0  0  0  0
   23.0750   16.0740   12.7280 C   0  0  0  0  0  0  0  0  0  0  0  0
   22.9690   16.3160   14.1060 C   0  0  0  0  0  0  0  0  0  0  0  0
   23.8360   17.2980   14.8260 C   0  0  0  0  0  0  0  0  0  0  0  0
   23.3810   17.9470   15.7640 O   0  0  0  0  0  0  0  0  0  0  0  0
   25.1350   17.4360   14.4070 N   0  0  0  0  0  0  0  0  0  0  0  0
   26.1060   18.2520   15.1170 C   0  0  2  0  0  0  0  0  0  0  0  0
   26.0210   18.0550   16.6270 C   0  0  0  0  0  0  0  0  0  0  0  0
   27.0460   18.9430   17.3130 C   0  0  0  0  0  0  0  0  0  0  0  0
   26.8630   20.3910   16.9260 C   0  0  0  0  0  0  0  0  0  0  0  0
   27.0970   21.3150   17.7000 O   0  0  0  0  0  0  0  0  0  0  0  0
   26.4490   20.6360   15.6410 N   0  0  0  0  0  0  0  0  0  0  0  0
   25.8610   19.7300   14.7920 C   0  0  0  0  0  0  0  0  0  0  0  0
   25.1980   20.1120   13.8260 O   0  0  0  0  0  0  0  0  0  0  0  0
   22.0290   15.6270   14.8860 C   0  0  0  0  0  0  0  0  0  0  0  0
   21.2140   14.7090   14.2670 C   0  0  0  0  0  0  0  0  0  0  0  0
   21.2790   14.4390   12.9520 N   0  0  0  0  0  0  0  0  0  0  0  0
   22.1840   15.1040   12.2150 C   0  0  0  0  0  0  0  0  0  0  0  0
   22.2530   14.8140   10.8630 C   0  0  0  0  0  0  0  0  0  0  0  0
   21.7890   16.2250    6.4110 C   0  0  0  0  0  0  0  0  0  0  0  0
   20.6800   16.9140    6.2480 N   0  0  0  0  0  0  0  0  0  0  0  0
   18.9504   19.6134    8.5356 H   0  0  0  0  0  0  0  0  0  0  0  0
   19.8320   19.3891    6.9867 H   0  0  0  0  0  0  0  0  0  0  0  0
   18.0430   19.5504    6.9867 H   0  0  0  0  0  0  0  0  0  0  0  0
   18.3913   17.4173    8.6840 H   0  0  0  0  0  0  0  0  0  0  0  0
   18.0814   17.2950    6.8979 H   0  0  0  0  0  0  0  0  0  0  0  0
   20.6436   16.1428    9.4914 H   0  0  0  0  0  0  0  0  0  0  0  0
   24.7235   16.9311    9.9550 H   0  0  0  0  0  0  0  0  0  0  0  0
   25.4344   16.9413   13.5546 H   0  0  0  0  0  0  0  0  0  0  0  0
   27.1088   17.9415   14.7883 H   0  0  0  0  0  0  0  0  0  0  0  0
   25.0125   18.3226   16.9754 H   0  0  0  0  0  0  0  0  0  0  0  0
   26.2263   17.0023   16.8712 H   0  0  0  0  0  0  0  0  0  0  0  0
   26.9321   18.8461   18.4028 H   0  0  0  0  0  0  0  0  0  0  0  0
   28.0499   18.6231   16.9970 H   0  0  0  0  0  0  0  0  0  0  0  0
   26.5927   21.5894   15.2786 H   0  0  0  0  0  0  0  0  0  0  0  0
   21.9458   15.8164   15.9664 H   0  0  0  0  0  0  0  0  0  0  0  0
   20.4738   14.1701   14.8767 H   0  0  0  0  0  0  0  0  0  0  0  0
   21.5689   14.0703   10.4283 H   0  0  0  0  0  0  0  0  0  0  0  0
   22.5212   16.0182    5.6166 H   0  0  0  0  0  0  0  0  0  0  0  0
  1  2  1  0
  2  3  1  0
  3  4  2  0
  4  5  1  0
  5  6  1  0
  6  7  2  0
  6  8  2  0
  6  9  1  0
  9 10  2  0
 10 11  1  0
 11 12  2  0
 12 13  1  0
 13 14  1  0
 14 15  2  0
 14 16  1  0
 16 17  1  0
 17 18  1  0
 18 19  1  0
 19 20  1  0
 20 21  2  0
 20 22  1  0
 22 23  1  0
 23 24  2  0
 13 25  2  0
 25 26  1  0
 26 27  2  0
 27 28  1  0
 28 29  2  0
  5 30  1  0
 30 31  2  0
 31  3  1  0
 29  9  1  0
 28 12  1  0
 23 17  1  0
  1 32  1  0
  1 33  1  0
  1 34  1  0
  2 35  1  0
  2 36  1  0
  4 37  1  0
 10 38  1  0
 16 39  1  0
 17 40  1  6
 18 41  1  0
 18 42  1  0
 19 43  1  0
 19 44  1  0
 22 45  1  0
 25 46  1  0
 26 47  1  0
 29 48  1  0
 30 49  1  0
M  END
>  <meeko>  (369) 
{"is_sidechain": [true], "free_energy": -10.9, "intermolecular_energy": 0.0, "internal_energy": -10.9, "cluster_size": 20, "cluster_id": 1, "rank_in_cluster": 1}

>  <_RMSD_MCS_to_ref>  (369) 
0.9121893078376514

$$$$
ligand
     RDKit          3D

 48 51  0  0  0  0  0  0  0  0999 V2000
   18.9090   19.1540    7.5370 C   0  0  0  0  0  0  0  0  0  0  0  0
   18.7730   17.6460    7.6780 C   0  0  0  0  0  0  0  0  0  0  0  0
   20.0770   16.9470    7.5210 C   0  0  0  0  0  0  0  0  0  0  0  0
   20.6130   15.9260    8.2820 C   0  0  0  0  0  0  0  0  0  0  0  0
   21.8140   15.6600    7.6870 N   0  0  0  0  0  0  0  0  0  0  0  0
   22.9900   14.6200    8.2840 S   0  0  0  0  0  6  0  0  0  0  0  0
   24.1640   14.8000    7.4530 O   0  0  0  0  0  0  0  0  0  0  0  0
   22.3240   13.3370    8.4050 O   0  0  0  0  0  0  0  0  0  0  0  0
   23.3250   15.2510    9.9170 C   0  0  0  0  0  0  0  0  0  0  0  0
   24.4360   16.0950   10.0590 C   0  0  0  0  0  0  0  0  0  0  0  0
   24.7730   16.5960   11.3060 C   0  0  0  0  0  0  0  0  0  0  0  0
   24.0230   16.2710   12.4460 C   0  0  0  0  0  0  0  0  0  0  0  0
   24.4850   16.8470   13.7370 C   0  0  0  0  0  0  0  0  0  0  0  0
   24.4450   16.1700   14.7590 O   0  0  0  0  0  0  0  0  0  0  0  0
   24.8870   18.1590   13.7380 N   0  0  0  0  0  0  0  0  0  0  0  0
   25.2390   18.8590   14.9630 C   0  0  1  0  0  0  0  0  0  0  0  0
   26.3070   18.1180   15.7620 C   0  0  0  0  0  0  0  0  0  0  0  0
   26.6520   18.9150   17.0100 C   0  0  0  0  0  0  0  0  0  0  0  0
   27.0820   20.3210   16.6610 C   0  0  0  0  0  0  0  0  0  0  0  0
   27.9300   20.9290   17.3070 O   0  0  0  0  0  0  0  0  0  0  0  0
   26.4520   20.9100   15.5940 N   0  0  0  0  0  0  0  0  0  0  0  0
   25.7660   20.2520   14.6030 C   0  0  0  0  0  0  0  0  0  0  0  0
   25.5860   20.7710   13.5020 O   0  0  0  0  0  0  0  0  0  0  0  0
   22.8750   15.4480   12.2970 C   0  0  0  0  0  0  0  0  0  0  0  0
   21.7380   14.9550   13.5120 S   0  0  0  0  0  0  0  0  0  0  0  0
   20.7980   14.0740   12.4160 C   0  0  0  0  0  0  0  0  0  0  0  0
   21.3000   14.1440   11.1420 C   0  0  0  0  0  0  0  0  0  0  0  0
   22.5060   14.9300   11.0380 C   0  0  0  0  0  0  0  0  0  0  0  0
   21.9860   16.5000    6.6350 C   0  0  0  0  0  0  0  0  0  0  0  0
   20.9470   17.3000    6.5080 N   0  0  0  0  0  0  0  0  0  0  0  0
   18.9504   19.6134    8.5356 H   0  0  0  0  0  0  0  0  0  0  0  0
   19.8320   19.3891    6.9867 H   0  0  0  0  0  0  0  0  0  0  0  0
   18.0430   19.5504    6.9867 H   0  0  0  0  0  0  0  0  0  0  0  0
   18.3669   17.4186    8.6747 H   0  0  0  0  0  0  0  0  0  0  0  0
   18.1018   17.2915    6.8818 H   0  0  0  0  0  0  0  0  0  0  0  0
   20.1735   15.4387    9.1648 H   0  0  0  0  0  0  0  0  0  0  0  0
   25.0407   16.3596    9.1791 H   0  0  0  0  0  0  0  0  0  0  0  0
   25.6442   17.2604   11.4038 H   0  0  0  0  0  0  0  0  0  0  0  0
   24.9412   18.6643   12.8421 H   0  0  0  0  0  0  0  0  0  0  0  0
   24.3354   18.9242   15.5870 H   0  0  0  0  0  0  0  0  0  0  0  0
   25.9259   17.1280   16.0531 H   0  0  0  0  0  0  0  0  0  0  0  0
   27.2088   17.9971   15.1438 H   0  0  0  0  0  0  0  0  0  0  0  0
   25.7668   18.9621   17.6614 H   0  0  0  0  0  0  0  0  0  0  0  0
   27.4859   18.4137   17.5231 H   0  0  0  0  0  0  0  0  0  0  0  0
   26.4976   21.9370   15.5307 H   0  0  0  0  0  0  0  0  0  0  0  0
   19.8932   13.5127   12.6920 H   0  0  0  0  0  0  0  0  0  0  0  0
   20.8283   13.6481   10.2808 H   0  0  0  0  0  0  0  0  0  0  0  0
   22.8696   16.5113    5.9799 H   0  0  0  0  0  0  0  0  0  0  0  0
  1  2  1  0
  2  3  1  0
  3  4  2  0
  4  5  1  0
  5  6  1  0
  6  7  2  0
  6  8  2  0
  6  9  1  0
  9 10  2  0
 10 11  1  0
 11 12  2  0
 12 13  1  0
 13 14  2  0
 13 15  1  0
 15 16  1  0
 16 17  1  0
 17 18  1  0
 18 19  1  0
 19 20  2  0
 19 21  1  0
 21 22  1  0
 22 23  2  0
 12 24  1  0
 24 25  1  0
 25 26  1  0
 26 27  2  0
 27 28  1  0
  5 29  1  0
 29 30  2  0
 30  3  1  0
 28  9  1  0
 22 16  1  0
 28 24  2  0
  1 31  1  0
  1 32  1  0
  1 33  1  0
  2 34  1  0
  2 35  1  0
  4 36  1  0
 10 37  1  0
 11 38  1  0
 15 39  1  0
 16 40  1  1
 17 41  1  0
 17 42  1  0
 18 43  1  0
 18 44  1  0
 21 45  1  0
 26 46  1  0
 27 47  1  0
 29 48  1  0
M  END
>  <meeko>  (370) 
{"is_sidechain": [true], "free_energy": -10.9, "intermolecular_energy": 0.0, "internal_energy": -10.9, "cluster_size": 18, "cluster_id": 1, "rank_in_cluster": 1}

>  <_RMSD_MCS_to_ref>  (370) 
0.7357170349771406

$$$$
ligand
     RDKit          3D

 55 59  0  0  0  0  0  0  0  0999 V2000
   18.9090   19.1540    7.5370 C   0  0  0  0  0  0  0  0  0  0  0  0
   18.7730   17.6460    7.6780 C   0  0  0  0  0  0  0  0  0  0  0  0
   20.0870   16.9530    7.5870 C   0  0  0  0  0  0  0  0  0  0  0  0
   21.0110   16.7090    8.5840 C   0  0  0  0  0  0  0  0  0  0  0  0
   22.0130   16.0260    7.9520 N   0  0  0  0  0  0  0  0  0  0  0  0
   23.4840   15.5960    8.6410 S   0  0  0  0  0  6  0  0  0  0  0  0
   23.7140   14.2240    8.2270 O   0  0  0  0  0  0  0  0  0  0  0  0
   24.4200   16.6570    8.3140 O   0  0  0  0  0  0  0  0  0  0  0  0
   23.1690   15.6200   10.3730 C   0  0  0  0  0  0  0  0  0  0  0  0
   23.9190   16.4570   11.2080 C   0  0  0  0  0  0  0  0  0  0  0  0
   23.6940   16.4600   12.5970 C   0  0  0  0  0  0  0  0  0  0  0  0
   24.5260   17.3620   13.4420 C   0  0  0  0  0  0  0  0  0  0  0  0
   25.7290   17.4650   13.2330 O   0  0  0  0  0  0  0  0  0  0  0  0
   23.8840   18.0260   14.4620 N   0  0  0  0  0  0  0  0  0  0  0  0
   24.6350   18.8070   15.4370 C   0  0  1  0  0  0  0  0  0  0  0  0
   25.7200   17.9840   16.1250 C   0  0  0  0  0  0  0  0  0  0  0  0
   26.4920   18.8700   17.0920 C   0  0  0  0  0  0  0  0  0  0  0  0
   27.0620   20.0800   16.3900 C   0  0  0  0  0  0  0  0  0  0  0  0
   28.1350   20.5820   16.7080 O   0  0  0  0  0  0  0  0  0  0  0  0
   26.3030   20.6220   15.3840 N   0  0  0  0  0  0  0  0  0  0  0  0
   25.2900   19.9860   14.7100 C   0  0  0  0  0  0  0  0  0  0  0  0
   24.9310   20.3590   13.5930 O   0  0  0  0  0  0  0  0  0  0  0  0
   22.6950   15.6430   13.1480 C   0  0  0  0  0  0  0  0  0  0  0  0
   21.9470   14.8240   12.3080 C   0  0  0  0  0  0  0  0  0  0  0  0
   22.1760   14.8240   10.9230 C   0  0  0  0  0  0  0  0  0  0  0  0
   21.3500   13.8900   10.2400 N   0  0  0  0  0  0  0  0  0  0  0  0
   20.3630   13.3950   11.2300 C   0  0  0  0  0  0  0  0  0  0  0  0
   20.8360   13.8840   12.5920 C   0  0  0  0  0  0  0  0  0  0  0  0
   20.8510   12.9530   13.7810 C   0  0  0  0  0  0  0  0  0  0  0  0
   19.8540   14.0780   13.7190 C   0  0  0  0  0  0  0  0  0  0  0  0
   21.7150   15.9220    6.6320 C   0  0  0  0  0  0  0  0  0  0  0  0
   20.5390   16.4600    6.3800 N   0  0  0  0  0  0  0  0  0  0  0  0
   18.9504   19.6134    8.5356 H   0  0  0  0  0  0  0  0  0  0  0  0
   19.8320   19.3891    6.9867 H   0  0  0  0  0  0  0  0  0  0  0  0
   18.0430   19.5504    6.9867 H   0  0  0  0  0  0  0  0  0  0  0  0
   18.3204   17.4208    8.6550 H   0  0  0  0  0  0  0  0  0  0  0  0
   18.1423   17.2847    6.8523 H   0  0  0  0  0  0  0  0  0  0  0  0
   20.9540   16.9979    9.6438 H   0  0  0  0  0  0  0  0  0  0  0  0
   24.6875   17.1151   10.7763 H   0  0  0  0  0  0  0  0  0  0  0  0
   22.8583   17.9704   14.5376 H   0  0  0  0  0  0  0  0  0  0  0  0
   23.9357   19.1500   16.2138 H   0  0  0  0  0  0  0  0  0  0  0  0
   25.2555   17.1546   16.6786 H   0  0  0  0  0  0  0  0  0  0  0  0
   26.4087   17.5796   15.3685 H   0  0  0  0  0  0  0  0  0  0  0  0
   25.8139   19.2052   17.8906 H   0  0  0  0  0  0  0  0  0  0  0  0
   27.3252   18.2856   17.5096 H   0  0  0  0  0  0  0  0  0  0  0  0
   26.5117   21.5927   15.1099 H   0  0  0  0  0  0  0  0  0  0  0  0
   22.5054   15.6500   14.2315 H   0  0  0  0  0  0  0  0  0  0  0  0
   21.4228   13.6116    9.2510 H   0  0  0  0  0  0  0  0  0  0  0  0
   19.3647   13.7994   11.0065 H   0  0  0  0  0  0  0  0  0  0  0  0
   20.2893   12.2978   11.2044 H   0  0  0  0  0  0  0  0  0  0  0  0
   20.5134   11.9121   13.6688 H   0  0  0  0  0  0  0  0  0  0  0  0
   21.6129   12.6279   14.5048 H   0  0  0  0  0  0  0  0  0  0  0  0
   18.7875   13.8590   13.5623 H   0  0  0  0  0  0  0  0  0  0  0  0
   19.5857   14.9154   14.3799 H   0  0  0  0  0  0  0  0  0  0  0  0
   22.3646   15.4539    5.8778 H   0  0  0  0  0  0  0  0  0  0  0  0
  1  2  1  0
  2  3  1  0
  3  4  2  0
  4  5  1  0
  5  6  1  0
  6  7  2  0
  6  8  2  0
  6  9  1  0
  9 10  2  0
 10 11  1  0
 11 12  1  0
 12 13  2  0
 12 14  1  0
 14 15  1  0
 15 16  1  0
 16 17  1  0
 17 18  1  0
 18 19  2  0
 18 20  1  0
 20 21  1  0
 21 22  2  0
 11 23  2  0
 23 24  1  0
 24 25  2  0
 25 26  1  0
 26 27  1  0
 27 28  1  0
 28 29  1  0
 29 30  1  0
  5 31  1  0
 31 32  2  0
 32  3  1  0
 25  9  1  0
 30 28  1  0
 21 15  1  0
 28 24  1  0
  1 33  1  0
  1 34  1  0
  1 35  1  0
  2 36  1  0
  2 37  1  0
  4 38  1  0
 10 39  1  0
 14 40  1  0
 15 41  1  1
 16 42  1  0
 16 43  1  0
 17 44  1  0
 17 45  1  0
 20 46  1  0
 23 47  1  0
 26 48  1  0
 27 49  1  0
 27 50  1  0
 29 51  1  0
 29 52  1  0
 30 53  1  0
 30 54  1  0
 31 55  1  0
M  END
>  <meeko>  (371) 
{"is_sidechain": [true], "free_energy": -10.9, "intermolecular_energy": 0.0, "internal_energy": -10.9, "cluster_size": 20, "cluster_id": 1, "rank_in_cluster": 1}

>  <_RMSD_MCS_to_ref>  (371) 
0.587614988746884

$$$$
ligand
     RDKit          3D

 45 48  0  0  0  0  0  0  0  0999 V2000
   18.9090   19.1540    7.5370 C   0  0  0  0  0  0  0  0  0  0  0  0
   18.7730   17.6460    7.6780 C   0  0  0  0  0  0  0  0  0  0  0  0
   20.0470   16.9370    7.3790 C   0  0  0  0  0  0  0  0  0  0  0  0
   21.1770   16.8120    8.1640 C   0  0  0  0  0  0  0  0  0  0  0  0
   22.0450   16.0970    7.3880 N   0  0  0  0  0  0  0  0  0  0  0  0
   23.5090   15.4360    7.9020 S   0  0  0  0  0  6  0  0  0  0  0  0
   23.7090   14.2800    7.0470 O   0  0  0  0  0  0  0  0  0  0  0  0
   24.4370   16.5520    7.8970 O   0  0  0  0  0  0  0  0  0  0  0  0
   23.2620   14.9410    9.4340 O   0  0  0  0  0  0  0  0  0  0  0  0
   23.7050   15.6480   10.5250 C   0  0  0  0  0  0  0  0  0  0  0  0
   24.9930   16.1660   10.6810 C   0  0  0  0  0  0  0  0  0  0  0  0
   25.3580   16.8790   11.8340 C   0  0  0  0  0  0  0  0  0  0  0  0
   24.3790   17.0540   12.8180 C   0  0  0  0  0  0  0  0  0  0  0  0
   23.0900   16.5440   12.6850 C   0  0  0  0  0  0  0  0  0  0  0  0
   22.7440   15.8340   11.5260 C   0  0  0  0  0  0  0  0  0  0  0  0
   22.3280   16.8330   13.7860 N   0  0  0  0  0  0  0  0  0  0  0  0
   23.1160   17.5180   14.5820 C   0  0  0  0  0  0  0  0  0  0  0  0
   24.3660   17.6760   14.0470 N   0  0  0  0  0  0  0  0  0  0  0  0
   25.5140   18.2970   14.7040 C   0  0  2  0  0  0  0  0  0  0  0  0
   25.4430   18.0860   16.2180 C   0  0  0  0  0  0  0  0  0  0  0  0
   26.6660   18.6980   16.8810 C   0  0  0  0  0  0  0  0  0  0  0  0
   26.7960   20.1630   16.5410 C   0  0  0  0  0  0  0  0  0  0  0  0
   27.3900   20.9550   17.2630 O   0  0  0  0  0  0  0  0  0  0  0  0
   26.2700   20.5560   15.3360 N   0  0  0  0  0  0  0  0  0  0  0  0
   25.6610   19.7780   14.3770 C   0  0  0  0  0  0  0  0  0  0  0  0
   25.3240   20.2810   13.3080 O   0  0  0  0  0  0  0  0  0  0  0  0
   21.4230   15.7430    6.2350 C   0  0  0  0  0  0  0  0  0  0  0  0
   20.2140   16.2630    6.1850 N   0  0  0  0  0  0  0  0  0  0  0  0
   18.9504   19.6134    8.5356 H   0  0  0  0  0  0  0  0  0  0  0  0
   19.8320   19.3891    6.9867 H   0  0  0  0  0  0  0  0  0  0  0  0
   18.0430   19.5504    6.9867 H   0  0  0  0  0  0  0  0  0  0  0  0
   18.4710   17.4123    8.7096 H   0  0  0  0  0  0  0  0  0  0  0  0
   18.0185   17.3054    6.9536 H   0  0  0  0  0  0  0  0  0  0  0  0
   21.3404   17.1993    9.1805 H   0  0  0  0  0  0  0  0  0  0  0  0
   25.7360   16.0122    9.8846 H   0  0  0  0  0  0  0  0  0  0  0  0
   26.3731   17.2839   11.9587 H   0  0  0  0  0  0  0  0  0  0  0  0
   21.7289   15.4278   11.4048 H   0  0  0  0  0  0  0  0  0  0  0  0
   22.8089   17.9166   15.5602 H   0  0  0  0  0  0  0  0  0  0  0  0
   26.4108   17.7983   14.3076 H   0  0  0  0  0  0  0  0  0  0  0  0
   24.5353   18.5668   16.6115 H   0  0  0  0  0  0  0  0  0  0  0  0
   25.4144   17.0077   16.4335 H   0  0  0  0  0  0  0  0  0  0  0  0
   26.5747   18.5896   17.9718 H   0  0  0  0  0  0  0  0  0  0  0  0
   27.5605   18.1744   16.5126 H   0  0  0  0  0  0  0  0  0  0  0  0
   26.3396   21.5610   15.1216 H   0  0  0  0  0  0  0  0  0  0  0  0
   21.8664   15.1104    5.4519 H   0  0  0  0  0  0  0  0  0  0  0  0
  1  2  1  0
  2  3  1  0
  3  4  2  0
  4  5  1  0
  5  6  1  0
  6  7  2  0
  6  8  2  0
  6  9  1  0
  9 10  1  0
 10 11  2  0
 11 12  1  0
 12 13  2  0
 13 14  1  0
 14 15  2  0
 14 16  1  0
 16 17  2  0
 17 18  1  0
 18 19  1  0
 19 20  1  0
 20 21  1  0
 21 22  1  0
 22 23  2  0
 22 24  1  0
 24 25  1  0
 25 26  2  0
  5 27  1  0
 27 28  2  0
 28  3  1  0
 15 10  1  0
 25 19  1  0
 18 13  1  0
  1 29  1  0
  1 30  1  0
  1 31  1  0
  2 32  1  0
  2 33  1  0
  4 34  1  0
 11 35  1  0
 12 36  1  0
 15 37  1  0
 17 38  1  0
 19 39  1  6
 20 40  1  0
 20 41  1  0
 21 42  1  0
 21 43  1  0
 24 44  1  0
 27 45  1  0
M  END
>  <meeko>  (372) 
{"is_sidechain": [true], "free_energy": -10.9, "intermolecular_energy": 0.0, "internal_energy": -10.9, "cluster_size": 20, "cluster_id": 1, "rank_in_cluster": 1}

>  <_RMSD_MCS_to_ref>  (372) 
0.553730981614719

$$$$
ligand
     RDKit          3D

 44 47  0  0  0  0  0  0  0  0999 V2000
   18.9090   19.1540    7.5370 C   0  0  0  0  0  0  0  0  0  0  0  0
   18.7730   17.6460    7.6780 C   0  0  0  0  0  0  0  0  0  0  0  0
   20.0830   16.9850    7.9240 C   0  0  0  0  0  0  0  0  0  0  0  0
   20.6210   16.5390    9.1150 C   0  0  0  0  0  0  0  0  0  0  0  0
   21.8440   16.0400    8.7650 N   0  0  0  0  0  0  0  0  0  0  0  0
   22.9190   15.2520    9.7780 S   0  0  0  0  0  6  0  0  0  0  0  0
   22.6410   15.7330   11.1190 O   0  0  0  0  0  0  0  0  0  0  0  0
   22.8540   13.8460    9.4240 O   0  0  0  0  0  0  0  0  0  0  0  0
   24.5370   15.7610    9.4230 C   0  0  0  0  0  0  0  0  0  0  0  0
   25.0750   15.6270    8.1920 N   0  0  0  0  0  0  0  0  0  0  0  0
   26.3250   16.0980    8.3330 N   0  0  0  0  0  0  0  0  0  0  0  0
   26.6040   16.5200    9.5960 C   0  0  0  0  0  0  0  0  0  0  0  0
   25.4560   16.3320   10.3360 C   0  0  0  0  0  0  0  0  0  0  0  0
   25.2950   16.6490   11.7450 C   0  0  0  0  0  0  0  0  0  0  0  0
   25.6340   17.7650   12.4700 C   0  0  0  0  0  0  0  0  0  0  0  0
   25.2430   17.4620   13.7440 N   0  0  0  0  0  0  0  0  0  0  0  0
   25.3040   18.3130   14.9180 C   0  0  1  0  0  0  0  0  0  0  0  0
   26.2820   17.7800   15.9680 C   0  0  0  0  0  0  0  0  0  0  0  0
   26.3350   18.7300   17.1530 C   0  0  0  0  0  0  0  0  0  0  0  0
   26.7170   20.1230   16.7120 C   0  0  0  0  0  0  0  0  0  0  0  0
   27.1950   20.9480   17.4840 O   0  0  0  0  0  0  0  0  0  0  0  0
   26.4160   20.4550   15.4140 N   0  0  0  0  0  0  0  0  0  0  0  0
   25.6410   19.7420   14.5280 C   0  0  0  0  0  0  0  0  0  0  0  0
   25.1830   20.2990   13.5320 O   0  0  0  0  0  0  0  0  0  0  0  0
   24.6940   16.2360   13.8080 N   0  0  0  0  0  0  0  0  0  0  0  0
   24.7320   15.7220   12.5850 N   0  0  0  0  0  0  0  0  0  0  0  0
   21.9900   16.1300    7.4180 C   0  0  0  0  0  0  0  0  0  0  0  0
   20.9480   16.7270    6.8780 N   0  0  0  0  0  0  0  0  0  0  0  0
   18.9504   19.6134    8.5356 H   0  0  0  0  0  0  0  0  0  0  0  0
   19.8320   19.3891    6.9867 H   0  0  0  0  0  0  0  0  0  0  0  0
   18.0430   19.5504    6.9867 H   0  0  0  0  0  0  0  0  0  0  0  0
   18.1020   17.4280    8.5220 H   0  0  0  0  0  0  0  0  0  0  0  0
   18.3682   17.2533    6.7336 H   0  0  0  0  0  0  0  0  0  0  0  0
   20.1684   16.5768   10.1168 H   0  0  0  0  0  0  0  0  0  0  0  0
   27.0055   16.1360    7.5608 H   0  0  0  0  0  0  0  0  0  0  0  0
   27.5587   16.9308    9.9562 H   0  0  0  0  0  0  0  0  0  0  0  0
   26.1099   18.6887   12.1090 H   0  0  0  0  0  0  0  0  0  0  0  0
   24.3061   18.3056   15.3808 H   0  0  0  0  0  0  0  0  0  0  0  0
   25.9471   16.7893   16.3091 H   0  0  0  0  0  0  0  0  0  0  0  0
   27.2845   17.6998   15.5223 H   0  0  0  0  0  0  0  0  0  0  0  0
   25.3455   18.7629   17.6324 H   0  0  0  0  0  0  0  0  0  0  0  0
   27.0938   18.3657   17.8611 H   0  0  0  0  0  0  0  0  0  0  0  0
   26.8154   21.3375   15.0639 H   0  0  0  0  0  0  0  0  0  0  0  0
   22.8584   15.7560    6.8558 H   0  0  0  0  0  0  0  0  0  0  0  0
  1  2  1  0
  2  3  1  0
  3  4  2  0
  4  5  1  0
  5  6  1  0
  6  7  2  0
  6  8  2  0
  6  9  1  0
  9 10  2  0
 10 11  1  0
 11 12  1  0
 12 13  2  0
 13 14  1  0
 14 15  2  0
 15 16  1  0
 16 17  1  0
 17 18  1  0
 18 19  1  0
 19 20  1  0
 20 21  2  0
 20 22  1  0
 22 23  1  0
 23 24  2  0
 16 25  1  0
 25 26  2  0
  5 27  1  0
 27 28  2  0
 28  3  1  0
 13  9  1  0
 26 14  1  0
 23 17  1  0
  1 29  1  0
  1 30  1  0
  1 31  1  0
  2 32  1  0
  2 33  1  0
  4 34  1  0
 11 35  1  0
 12 36  1  0
 15 37  1  0
 17 38  1  1
 18 39  1  0
 18 40  1  0
 19 41  1  0
 19 42  1  0
 22 43  1  0
 27 44  1  0
M  END
>  <meeko>  (373) 
{"is_sidechain": [true], "free_energy": -10.9, "intermolecular_energy": 0.0, "internal_energy": -10.9, "cluster_size": 10, "cluster_id": 1, "rank_in_cluster": 1}

>  <_RMSD_MCS_to_ref>  (373) 
0.469875160725342

$$$$
ligand
     RDKit          3D

 50 53  0  0  0  0  0  0  0  0999 V2000
   18.7970   18.8170    7.7190 C   0  0  0  0  0  0  0  0  0  0  0  0
   18.5280   17.3290    7.8810 C   0  0  0  0  0  0  0  0  0  0  0  0
   19.7090   16.5010    7.5180 C   0  0  0  0  0  0  0  0  0  0  0  0
   20.8140   16.1800    8.2840 C   0  0  0  0  0  0  0  0  0  0  0  0
   21.5650   15.3830    7.4690 N   0  0  0  0  0  0  0  0  0  0  0  0
   23.1290   14.8530    7.7770 S   0  0  0  0  0  6  0  0  0  0  0  0
   23.1580   13.4520    7.4030 O   0  0  0  0  0  0  0  0  0  0  0  0
   24.0060   15.8380    7.1720 O   0  0  0  0  0  0  0  0  0  0  0  0
   23.2730   14.9720    9.5390 C   0  0  0  0  0  0  0  0  0  0  0  0
   24.3750   15.6170   10.0960 C   0  0  0  0  0  0  0  0  0  0  0  0
   24.4840   15.7140   11.4850 C   0  0  0  0  0  0  0  0  0  0  0  0
   23.4970   15.1750   12.3490 C   0  0  0  0  0  0  0  0  0  0  0  0
   23.5390   15.2400   13.7620 C   0  0  0  0  0  0  0  0  0  0  0  0
   24.6630   15.8540   14.5050 C   0  0  0  0  0  0  0  0  0  0  0  0
   25.5440   15.1620   15.0020 O   0  0  0  0  0  0  0  0  0  0  0  0
   24.6530   17.2290   14.5790 N   0  0  0  0  0  0  0  0  0  0  0  0
   25.7750   17.9610   15.1530 C   0  0  2  0  0  0  0  0  0  0  0  0
   25.8060   17.8700   16.6740 C   0  0  0  0  0  0  0  0  0  0  0  0
   26.9760   18.6840   17.2060 C   0  0  0  0  0  0  0  0  0  0  0  0
   26.9090   20.1160   16.7300 C   0  0  0  0  0  0  0  0  0  0  0  0
   27.3000   21.0570   17.4140 O   0  0  0  0  0  0  0  0  0  0  0  0
   26.4130   20.3210   15.4670 N   0  0  0  0  0  0  0  0  0  0  0  0
   25.6580   19.4320   14.7440 C   0  0  0  0  0  0  0  0  0  0  0  0
   24.9430   19.8090   13.8150 O   0  0  0  0  0  0  0  0  0  0  0  0
   22.5010   14.6760   14.4970 C   0  0  0  0  0  0  0  0  0  0  0  0
   21.4220   14.0800   13.9460 N   0  0  0  0  0  0  0  0  0  0  0  0
   21.3870   14.0280   12.5960 C   0  0  0  0  0  0  0  0  0  0  0  0
   22.3770   14.5450   11.7540 C   0  0  0  0  0  0  0  0  0  0  0  0
   22.2700   14.4480   10.3560 C   0  0  0  0  0  0  0  0  0  0  0  0
   20.9550   15.2790    6.2600 C   0  0  0  0  0  0  0  0  0  0  0  0
   19.8160   15.9400    6.2610 N   0  0  0  0  0  0  0  0  0  0  0  0
   18.8815   19.2845    8.7111 H   0  0  0  0  0  0  0  0  0  0  0  0
   19.7359   18.9616    7.1643 H   0  0  0  0  0  0  0  0  0  0  0  0
   17.9682   19.2812    7.1643 H   0  0  0  0  0  0  0  0  0  0  0  0
   18.2643   17.1290    8.9300 H   0  0  0  0  0  0  0  0  0  0  0  0
   17.7053   17.0591    7.2025 H   0  0  0  0  0  0  0  0  0  0  0  0
   21.0370   16.4947    9.3142 H   0  0  0  0  0  0  0  0  0  0  0  0
   25.1528   16.0463    9.4473 H   0  0  0  0  0  0  0  0  0  0  0  0
   25.3577   16.2214   11.9199 H   0  0  0  0  0  0  0  0  0  0  0  0
   23.8386   17.7491   14.2226 H   0  0  0  0  0  0  0  0  0  0  0  0
   26.7048   17.5122   14.7735 H   0  0  0  0  0  0  0  0  0  0  0  0
   24.8660   18.2672   17.0845 H   0  0  0  0  0  0  0  0  0  0  0  0
   25.9224   16.8189   16.9766 H   0  0  0  0  0  0  0  0  0  0  0  0
   26.9516   18.6703   18.3056 H   0  0  0  0  0  0  0  0  0  0  0  0
   27.9089   18.2369   16.8321 H   0  0  0  0  0  0  0  0  0  0  0  0
   26.6269   21.2245   15.0211 H   0  0  0  0  0  0  0  0  0  0  0  0
   22.5632   14.7182   15.5944 H   0  0  0  0  0  0  0  0  0  0  0  0
   20.5179   13.5446   12.1258 H   0  0  0  0  0  0  0  0  0  0  0  0
   21.3943   13.9583    9.9050 H   0  0  0  0  0  0  0  0  0  0  0  0
   21.3559   14.7212    5.4009 H   0  0  0  0  0  0  0  0  0  0  0  0
  1  2  1  0
  2  3  1  0
  3  4  2  0
  4  5  1  0
  5  6  1  0
  6  7  2  0
  6  8  2  0
  6  9  1  0
  9 10  2  0
 10 11  1  0
 11 12  2  0
 12 13  1  0
 13 14  1  0
 14 15  2  0
 14 16  1  0
 16 17  1  0
 17 18  1  0
 18 19  1  0
 19 20  1  0
 20 21  2  0
 20 22  1  0
 22 23  1  0
 23 24  2  0
 13 25  2  0
 25 26  1  0
 26 27  2  0
 27 28  1  0
 28 29  2  0
  5 30  1  0
 30 31  2  0
 31  3  1  0
 29  9  1  0
 28 12  1  0
 23 17  1  0
  1 32  1  0
  1 33  1  0
  1 34  1  0
  2 35  1  0
  2 36  1  0
  4 37  1  0
 10 38  1  0
 11 39  1  0
 16 40  1  0
 17 41  1  6
 18 42  1  0
 18 43  1  0
 19 44  1  0
 19 45  1  0
 22 46  1  0
 25 47  1  0
 27 48  1  0
 29 49  1  0
 30 50  1  0
M  END
>  <meeko>  (374) 
{"is_sidechain": [true], "free_energy": -10.89, "intermolecular_energy": 0.0, "internal_energy": -10.89, "cluster_size": 14, "cluster_id": 1, "rank_in_cluster": 1}

>  <_RMSD_MCS_to_ref>  (374) 
0.564627015530311

$$$$
ligand
     RDKit          3D

 50 53  0  0  0  0  0  0  0  0999 V2000
   18.7970   18.8170    7.7190 C   0  0  0  0  0  0  0  0  0  0  0  0
   18.5280   17.3290    7.8810 C   0  0  0  0  0  0  0  0  0  0  0  0
   19.7690   16.5160    7.7640 C   0  0  0  0  0  0  0  0  0  0  0  0
   20.2430   15.5260    8.6030 C   0  0  0  0  0  0  0  0  0  0  0  0
   21.4100   15.1260    8.0180 N   0  0  0  0  0  0  0  0  0  0  0  0
   22.4690   13.9780    8.6340 S   0  0  0  0  0  6  0  0  0  0  0  0
   21.6620   12.7810    8.7640 O   0  0  0  0  0  0  0  0  0  0  0  0
   23.6560   14.0090    7.8030 O   0  0  0  0  0  0  0  0  0  0  0  0
   22.8800   14.5670   10.2490 C   0  0  0  0  0  0  0  0  0  0  0  0
   24.0390   15.3200   10.3420 C   0  0  0  0  0  0  0  0  0  0  0  0
   24.5250   15.7900   11.5030 N   0  0  0  0  0  0  0  0  0  0  0  0
   23.8250   15.5060   12.6430 C   0  0  0  0  0  0  0  0  0  0  0  0
   24.5020   16.0730   13.8810 C   0  0  0  0  0  0  0  0  0  0  0  0
   24.4030   15.5990   15.0040 O   0  0  0  0  0  0  0  0  0  0  0  0
   25.2840   17.1840   13.6260 N   0  0  0  0  0  0  0  0  0  0  0  0
   26.1560   17.7740   14.6240 C   0  0  2  0  0  0  0  0  0  0  0  0
   25.4790   17.8750   15.9860 C   0  0  0  0  0  0  0  0  0  0  0  0
   26.4310   18.5170   16.9820 C   0  0  0  0  0  0  0  0  0  0  0  0
   26.9080   19.8640   16.4930 C   0  0  0  0  0  0  0  0  0  0  0  0
   27.1620   20.7910   17.2570 O   0  0  0  0  0  0  0  0  0  0  0  0
   27.0820   20.0000   15.1390 N   0  0  0  0  0  0  0  0  0  0  0  0
   26.5710   19.1770   14.1650 C   0  0  0  0  0  0  0  0  0  0  0  0
   26.4840   19.5580   12.9980 O   0  0  0  0  0  0  0  0  0  0  0  0
   22.6150   14.7670   12.6660 C   0  0  0  0  0  0  0  0  0  0  0  0
   21.8650   14.4770   13.8370 C   0  0  0  0  0  0  0  0  0  0  0  0
   20.6750   13.7550   13.8010 C   0  0  0  0  0  0  0  0  0  0  0  0
   20.1850   13.3090   12.5890 C   0  0  0  0  0  0  0  0  0  0  0  0
   20.8930   13.5770   11.4180 C   0  0  0  0  0  0  0  0  0  0  0  0
   22.1210   14.2910   11.4160 C   0  0  0  0  0  0  0  0  0  0  0  0
   21.6020   15.8280    6.8730 C   0  0  0  0  0  0  0  0  0  0  0  0
   20.6300   16.6980    6.6990 N   0  0  0  0  0  0  0  0  0  0  0  0
   18.8815   19.2845    8.7111 H   0  0  0  0  0  0  0  0  0  0  0  0
   19.7359   18.9616    7.1643 H   0  0  0  0  0  0  0  0  0  0  0  0
   17.9682   19.2812    7.1643 H   0  0  0  0  0  0  0  0  0  0  0  0
   18.0833   17.1555    8.8720 H   0  0  0  0  0  0  0  0  0  0  0  0
   17.8455   17.0202    7.0755 H   0  0  0  0  0  0  0  0  0  0  0  0
   19.7856   15.1473    9.5289 H   0  0  0  0  0  0  0  0  0  0  0  0
   24.5902   15.5449    9.4170 H   0  0  0  0  0  0  0  0  0  0  0  0
   25.2460   17.6103   12.6891 H   0  0  0  0  0  0  0  0  0  0  0  0
   27.0354   17.1218   14.7305 H   0  0  0  0  0  0  0  0  0  0  0  0
   24.5710   18.4898   15.8988 H   0  0  0  0  0  0  0  0  0  0  0  0
   25.2092   16.8675   16.3356 H   0  0  0  0  0  0  0  0  0  0  0  0
   25.9107   18.6478   17.9423 H   0  0  0  0  0  0  0  0  0  0  0  0
   27.3055   17.8603   17.1003 H   0  0  0  0  0  0  0  0  0  0  0  0
   27.6516   20.7973   14.8216 H   0  0  0  0  0  0  0  0  0  0  0  0
   22.2379   14.8359   14.8076 H   0  0  0  0  0  0  0  0  0  0  0  0
   20.1287   13.5412   14.7315 H   0  0  0  0  0  0  0  0  0  0  0  0
   19.2413   12.7454   12.5478 H   0  0  0  0  0  0  0  0  0  0  0  0
   20.4853   13.2222   10.4599 H   0  0  0  0  0  0  0  0  0  0  0  0
   22.4505   15.6895    6.1868 H   0  0  0  0  0  0  0  0  0  0  0  0
  1  2  1  0
  2  3  1  0
  3  4  2  0
  4  5  1  0
  5  6  1  0
  6  7  2  0
  6  8  2  0
  6  9  1  0
  9 10  2  0
 10 11  1  0
 11 12  2  0
 12 13  1  0
 13 14  2  0
 13 15  1  0
 15 16  1  0
 16 17  1  0
 17 18  1  0
 18 19  1  0
 19 20  2  0
 19 21  1  0
 21 22  1  0
 22 23  2  0
 12 24  1  0
 24 25  2  0
 25 26  1  0
 26 27  2  0
 27 28  1  0
 28 29  2  0
  5 30  1  0
 30 31  2  0
 31  3  1  0
 29  9  1  0
 22 16  1  0
 29 24  1  0
  1 32  1  0
  1 33  1  0
  1 34  1  0
  2 35  1  0
  2 36  1  0
  4 37  1  0
 10 38  1  0
 15 39  1  0
 16 40  1  1
 17 41  1  0
 17 42  1  0
 18 43  1  0
 18 44  1  0
 21 45  1  0
 25 46  1  0
 26 47  1  0
 27 48  1  0
 28 49  1  0
 30 50  1  0
M  END
>  <meeko>  (375) 
{"is_sidechain": [true], "free_energy": -10.89, "intermolecular_energy": 0.0, "internal_energy": -10.89, "cluster_size": 18, "cluster_id": 1, "rank_in_cluster": 1}

>  <_RMSD_MCS_to_ref>  (375) 
0.9816154485789684

$$$$
ligand
     RDKit          3D

 48 51  0  0  0  0  0  0  0  0999 V2000
   18.9090   19.1540    7.5370 C   0  0  0  0  0  0  0  0  0  0  0  0
   18.7730   17.6460    7.6780 C   0  0  0  0  0  0  0  0  0  0  0  0
   20.0920   16.9570    7.6340 C   0  0  0  0  0  0  0  0  0  0  0  0
   21.0390   16.8300    8.6290 C   0  0  0  0  0  0  0  0  0  0  0  0
   22.0500   16.1240    8.0410 N   0  0  0  0  0  0  0  0  0  0  0  0
   23.3770   15.4630    8.8310 S   0  0  0  0  0  6  0  0  0  0  0  0
   23.5660   14.1470    8.2540 O   0  0  0  0  0  0  0  0  0  0  0  0
   24.4080   16.4810    8.8060 O   0  0  0  0  0  0  0  0  0  0  0  0
   22.8140   15.2690   10.5040 C   0  0  0  0  0  0  0  0  0  0  0  0
   23.4540   15.9780   11.5300 C   0  0  0  0  0  0  0  0  0  0  0  0
   23.0240   15.8450   12.8610 C   0  0  0  0  0  0  0  0  0  0  0  0
   23.6430   16.5530   14.0140 C   0  0  0  0  0  0  0  0  0  0  0  0
   23.6200   16.0340   15.1250 O   0  0  0  0  0  0  0  0  0  0  0  0
   24.1880   17.7920   13.7760 N   0  0  0  0  0  0  0  0  0  0  0  0
   24.6890   18.6140   14.8730 C   0  0  1  0  0  0  0  0  0  0  0  0
   25.7280   17.8830   15.7160 C   0  0  0  0  0  0  0  0  0  0  0  0
   26.2380   18.8090   16.8090 C   0  0  0  0  0  0  0  0  0  0  0  0
   26.7840   20.0940   16.2310 C   0  0  0  0  0  0  0  0  0  0  0  0
   27.7270   20.6950   16.7350 O   0  0  0  0  0  0  0  0  0  0  0  0
   26.1500   20.5850   15.1170 N   0  0  0  0  0  0  0  0  0  0  0  0
   25.3240   19.8750   14.2820 C   0  0  0  0  0  0  0  0  0  0  0  0
   25.1020   20.2500   13.1300 O   0  0  0  0  0  0  0  0  0  0  0  0
   21.9570   14.9630   13.0920 C   0  0  0  0  0  0  0  0  0  0  0  0
   21.3320   14.5890   14.2570 N   0  0  0  0  0  0  0  0  0  0  0  0
   20.3160   13.7270   14.0780 N   0  0  0  0  0  0  0  0  0  0  0  0
   20.2990   13.5320   12.7570 C   0  0  0  0  0  0  0  0  0  0  0  0
   21.3020   14.2660   12.0840 C   0  0  0  0  0  0  0  0  0  0  0  0
   21.7220   14.4220   10.7540 C   0  0  0  0  0  0  0  0  0  0  0  0
   21.6940   15.8120    6.7700 C   0  0  0  0  0  0  0  0  0  0  0  0
   20.5100   16.3110    6.4860 N   0  0  0  0  0  0  0  0  0  0  0  0
   18.9504   19.6134    8.5356 H   0  0  0  0  0  0  0  0  0  0  0  0
   19.8320   19.3891    6.9867 H   0  0  0  0  0  0  0  0  0  0  0  0
   18.0430   19.5504    6.9867 H   0  0  0  0  0  0  0  0  0  0  0  0
   18.2881   17.4222    8.6397 H   0  0  0  0  0  0  0  0  0  0  0  0
   18.1719   17.2801    6.8325 H   0  0  0  0  0  0  0  0  0  0  0  0
   20.9911   17.2102    9.6601 H   0  0  0  0  0  0  0  0  0  0  0  0
   24.2977   16.6423   11.2917 H   0  0  0  0  0  0  0  0  0  0  0  0
   24.2437   18.1453   12.8101 H   0  0  0  0  0  0  0  0  0  0  0  0
   23.8422   18.8600   15.5306 H   0  0  0  0  0  0  0  0  0  0  0  0
   25.2692   16.9940   16.1734 H   0  0  0  0  0  0  0  0  0  0  0  0
   26.5678   17.5746   15.0759 H   0  0  0  0  0  0  0  0  0  0  0  0
   25.4093   19.0472   17.4920 H   0  0  0  0  0  0  0  0  0  0  0  0
   27.0506   18.2974   17.3456 H   0  0  0  0  0  0  0  0  0  0  0  0
   26.3086   21.5763   14.8868 H   0  0  0  0  0  0  0  0  0  0  0  0
   21.6162   14.9375   15.1837 H   0  0  0  0  0  0  0  0  0  0  0  0
   19.5819   12.8715   12.2477 H   0  0  0  0  0  0  0  0  0  0  0  0
   21.2118   13.8972    9.9329 H   0  0  0  0  0  0  0  0  0  0  0  0
   22.3094   15.2237    6.0735 H   0  0  0  0  0  0  0  0  0  0  0  0
  1  2  1  0
  2  3  1  0
  3  4  2  0
  4  5  1  0
  5  6  1  0
  6  7  2  0
  6  8  2  0
  6  9  1  0
  9 10  2  0
 10 11  1  0
 11 12  1  0
 12 13  2  0
 12 14  1  0
 14 15  1  0
 15 16  1  0
 16 17  1  0
 17 18  1  0
 18 19  2  0
 18 20  1  0
 20 21  1  0
 21 22  2  0
 11 23  2  0
 23 24  1  0
 24 25  1  0
 25 26  2  0
 26 27  1  0
 27 28  2  0
  5 29  1  0
 29 30  2  0
 30  3  1  0
 28  9  1  0
 21 15  1  0
 27 23  1  0
  1 31  1  0
  1 32  1  0
  1 33  1  0
  2 34  1  0
  2 35  1  0
  4 36  1  0
 10 37  1  0
 14 38  1  0
 15 39  1  1
 16 40  1  0
 16 41  1  0
 17 42  1  0
 17 43  1  0
 20 44  1  0
 24 45  1  0
 26 46  1  0
 28 47  1  0
 29 48  1  0
M  END
>  <meeko>  (376) 
{"is_sidechain": [true], "free_energy": -10.89, "intermolecular_energy": 0.0, "internal_energy": -10.89, "cluster_size": 19, "cluster_id": 1, "rank_in_cluster": 1}

>  <_RMSD_MCS_to_ref>  (376) 
0.4018696582503119

$$$$
ligand
     RDKit          3D

 47 50  0  0  0  0  0  0  0  0999 V2000
   18.9090   19.1540    7.5370 C   0  0  0  0  0  0  0  0  0  0  0  0
   18.7730   17.6460    7.6780 C   0  0  0  0  0  0  0  0  0  0  0  0
   20.0590   16.9400    7.4290 C   0  0  0  0  0  0  0  0  0  0  0  0
   20.9420   16.3930    8.3400 C   0  0  0  0  0  0  0  0  0  0  0  0
   21.9560   15.9000    7.5690 N   0  0  0  0  0  0  0  0  0  0  0  0
   23.2040   14.9110    8.1050 S   0  0  0  0  0  6  0  0  0  0  0  0
   24.2160   14.9450    7.0680 O   0  0  0  0  0  0  0  0  0  0  0  0
   22.5740   13.6790    8.5360 O   0  0  0  0  0  0  0  0  0  0  0  0
   23.8230   15.7590    9.5300 C   0  0  0  0  0  0  0  0  0  0  0  0
   25.0000   16.5190    9.4170 C   0  0  0  0  0  0  0  0  0  0  0  0
   25.5180   17.1950   10.5250 C   0  0  0  0  0  0  0  0  0  0  0  0
   24.8870   17.1450   11.7830 C   0  0  0  0  0  0  0  0  0  0  0  0
   25.4740   17.8760   12.9280 C   0  0  0  0  0  0  0  0  0  0  0  0
   26.6830   18.0810   12.9600 O   0  0  0  0  0  0  0  0  0  0  0  0
   24.6290   18.2880   13.9310 N   0  0  0  0  0  0  0  0  0  0  0  0
   25.1360   18.9190   15.1430 C   0  0  1  0  0  0  0  0  0  0  0  0
   26.2020   18.0670   15.8250 C   0  0  0  0  0  0  0  0  0  0  0  0
   26.7090   18.7870   17.0640 C   0  0  0  0  0  0  0  0  0  0  0  0
   27.2240   20.1670   16.7260 C   0  0  0  0  0  0  0  0  0  0  0  0
   28.1600   20.6860   17.3260 O   0  0  0  0  0  0  0  0  0  0  0  0
   26.5680   20.8390   15.7240 N   0  0  0  0  0  0  0  0  0  0  0  0
   25.7380   20.2810   14.7840 C   0  0  0  0  0  0  0  0  0  0  0  0
   25.4920   20.8640   13.7280 O   0  0  0  0  0  0  0  0  0  0  0  0
   23.7100   16.3980   11.8450 C   0  0  0  0  0  0  0  0  0  0  0  0
   22.9160   16.2160   12.9370 O   0  0  0  0  0  0  0  0  0  0  0  0
   21.8360   15.4220   12.6060 N   0  0  0  0  0  0  0  0  0  0  0  0
   21.9850   15.1400   11.3100 C   0  0  0  0  0  0  0  0  0  0  0  0
   23.1570   15.7160   10.7690 C   0  0  0  0  0  0  0  0  0  0  0  0
   21.6620   16.1070    6.2610 C   0  0  0  0  0  0  0  0  0  0  0  0
   20.5160   16.7440    6.1410 N   0  0  0  0  0  0  0  0  0  0  0  0
   18.9504   19.6134    8.5356 H   0  0  0  0  0  0  0  0  0  0  0  0
   19.8320   19.3891    6.9867 H   0  0  0  0  0  0  0  0  0  0  0  0
   18.0430   19.5504    6.9867 H   0  0  0  0  0  0  0  0  0  0  0  0
   18.4337   17.4148    8.6985 H   0  0  0  0  0  0  0  0  0  0  0  0
   18.0472   17.3007    6.9270 H   0  0  0  0  0  0  0  0  0  0  0  0
   20.8496   16.3617    9.4357 H   0  0  0  0  0  0  0  0  0  0  0  0
   25.5176   16.5822    8.4485 H   0  0  0  0  0  0  0  0  0  0  0  0
   26.4420   17.7810   10.4116 H   0  0  0  0  0  0  0  0  0  0  0  0
   23.6143   18.1475   13.8235 H   0  0  0  0  0  0  0  0  0  0  0  0
   24.2951   19.0346   15.8426 H   0  0  0  0  0  0  0  0  0  0  0  0
   25.7675   17.0990   16.1153 H   0  0  0  0  0  0  0  0  0  0  0  0
   27.0380   17.8996   15.1300 H   0  0  0  0  0  0  0  0  0  0  0  0
   25.8851   18.8793   17.7869 H   0  0  0  0  0  0  0  0  0  0  0  0
   27.5376   18.2024   17.4902 H   0  0  0  0  0  0  0  0  0  0  0  0
   26.7124   21.8576   15.6731 H   0  0  0  0  0  0  0  0  0  0  0  0
   21.2773   14.5297   10.7297 H   0  0  0  0  0  0  0  0  0  0  0  0
   22.2928   15.7874    5.4184 H   0  0  0  0  0  0  0  0  0  0  0  0
  1  2  1  0
  2  3  1  0
  3  4  2  0
  4  5  1  0
  5  6  1  0
  6  7  2  0
  6  8  2  0
  6  9  1  0
  9 10  2  0
 10 11  1  0
 11 12  2  0
 12 13  1  0
 13 14  2  0
 13 15  1  0
 15 16  1  0
 16 17  1  0
 17 18  1  0
 18 19  1  0
 19 20  2  0
 19 21  1  0
 21 22  1  0
 22 23  2  0
 12 24  1  0
 24 25  1  0
 25 26  1  0
 26 27  2  0
 27 28  1  0
  5 29  1  0
 29 30  2  0
 30  3  1  0
 28  9  1  0
 22 16  1  0
 28 24  2  0
  1 31  1  0
  1 32  1  0
  1 33  1  0
  2 34  1  0
  2 35  1  0
  4 36  1  0
 10 37  1  0
 11 38  1  0
 15 39  1  0
 16 40  1  1
 17 41  1  0
 17 42  1  0
 18 43  1  0
 18 44  1  0
 21 45  1  0
 27 46  1  0
 29 47  1  0
M  END
>  <meeko>  (377) 
{"is_sidechain": [true], "free_energy": -10.89, "intermolecular_energy": 0.0, "internal_energy": -10.89, "cluster_size": 13, "cluster_id": 1, "rank_in_cluster": 1}

>  <_RMSD_MCS_to_ref>  (377) 
0.8043632402231113

$$$$
ligand
     RDKit          3D

 44 47  0  0  0  0  0  0  0  0999 V2000
   18.9090   19.1540    7.5370 C   0  0  0  0  0  0  0  0  0  0  0  0
   18.7730   17.6460    7.6780 C   0  0  0  0  0  0  0  0  0  0  0  0
   20.0070   16.9300    7.2550 C   0  0  0  0  0  0  0  0  0  0  0  0
   20.6730   15.8980    7.8880 C   0  0  0  0  0  0  0  0  0  0  0  0
   21.7210   15.6180    7.0580 N   0  0  0  0  0  0  0  0  0  0  0  0
   23.0040   14.5940    7.4100 S   0  0  0  0  0  6  0  0  0  0  0  0
   22.4040   13.3710    7.9060 O   0  0  0  0  0  0  0  0  0  0  0  0
   23.8700   14.6190    6.2480 O   0  0  0  0  0  0  0  0  0  0  0  0
   23.8330   15.4070    8.7500 C   0  0  0  0  0  0  0  0  0  0  0  0
   25.1950   15.6900    8.6510 C   0  0  0  0  0  0  0  0  0  0  0  0
   25.8580   16.3340    9.7010 C   0  0  0  0  0  0  0  0  0  0  0  0
   25.1160   16.6860   10.8410 C   0  0  0  0  0  0  0  0  0  0  0  0
   25.6420   17.4760   12.2770 S   0  0  0  0  0  0  0  0  0  0  0  0
   24.0580   17.3730   12.9090 C   0  0  0  0  0  0  0  0  0  0  0  0
   23.6420   17.9850   14.4960 S   0  0  0  0  0  0  0  0  0  0  0  0
   25.2870   18.5200   15.0760 C   0  0  2  0  0  0  0  0  0  0  0  0
   25.3380   18.3680   16.5970 C   0  0  0  0  0  0  0  0  0  0  0  0
   26.7080   18.8000   17.1000 C   0  0  0  0  0  0  0  0  0  0  0  0
   27.0200   20.2150   16.6820 C   0  0  0  0  0  0  0  0  0  0  0  0
   27.7390   20.9540   17.3460 O   0  0  0  0  0  0  0  0  0  0  0  0
   26.4910   20.6260   15.4850 N   0  0  0  0  0  0  0  0  0  0  0  0
   25.5660   19.9740   14.6970 C   0  0  0  0  0  0  0  0  0  0  0  0
   25.0590   20.5690   13.7490 O   0  0  0  0  0  0  0  0  0  0  0  0
   23.1540   16.8290   12.1280 N   0  0  0  0  0  0  0  0  0  0  0  0
   23.7480   16.4190   10.9470 C   0  0  0  0  0  0  0  0  0  0  0  0
   23.0920   15.7750    9.8800 C   0  0  0  0  0  0  0  0  0  0  0  0
   21.6990   16.4760    6.0070 C   0  0  0  0  0  0  0  0  0  0  0  0
   20.6600   17.2810    6.0900 N   0  0  0  0  0  0  0  0  0  0  0  0
   18.9504   19.6134    8.5356 H   0  0  0  0  0  0  0  0  0  0  0  0
   19.8320   19.3891    6.9867 H   0  0  0  0  0  0  0  0  0  0  0  0
   18.0430   19.5504    6.9867 H   0  0  0  0  0  0  0  0  0  0  0  0
   18.5670   17.4055    8.7314 H   0  0  0  0  0  0  0  0  0  0  0  0
   17.9507   17.3178    7.0252 H   0  0  0  0  0  0  0  0  0  0  0  0
   20.4177   15.4131    8.8418 H   0  0  0  0  0  0  0  0  0  0  0  0
   25.7496   15.4059    7.7445 H   0  0  0  0  0  0  0  0  0  0  0  0
   26.9328   16.5591    9.6358 H   0  0  0  0  0  0  0  0  0  0  0  0
   26.0544   17.8947   14.5964 H   0  0  0  0  0  0  0  0  0  0  0  0
   24.5624   18.9990   17.0556 H   0  0  0  0  0  0  0  0  0  0  0  0
   25.1604   17.3169   16.8685 H   0  0  0  0  0  0  0  0  0  0  0  0
   26.7230   18.7385   18.1982 H   0  0  0  0  0  0  0  0  0  0  0  0
   27.4660   18.1324   16.6643 H   0  0  0  0  0  0  0  0  0  0  0  0
   26.8260   21.5335   15.1311 H   0  0  0  0  0  0  0  0  0  0  0  0
   22.0137   15.5642    9.9334 H   0  0  0  0  0  0  0  0  0  0  0  0
   22.4448   16.4963    5.1986 H   0  0  0  0  0  0  0  0  0  0  0  0
  1  2  1  0
  2  3  1  0
  3  4  2  0
  4  5  1  0
  5  6  1  0
  6  7  2  0
  6  8  2  0
  6  9  1  0
  9 10  2  0
 10 11  1  0
 11 12  2  0
 12 13  1  0
 13 14  1  0
 14 15  1  0
 15 16  1  0
 16 17  1  0
 17 18  1  0
 18 19  1  0
 19 20  2  0
 19 21  1  0
 21 22  1  0
 22 23  2  0
 14 24  2  0
 24 25  1  0
 25 26  2  0
  5 27  1  0
 27 28  2  0
 28  3  1  0
 26  9  1  0
 25 12  1  0
 22 16  1  0
  1 29  1  0
  1 30  1  0
  1 31  1  0
  2 32  1  0
  2 33  1  0
  4 34  1  0
 10 35  1  0
 11 36  1  0
 16 37  1  6
 17 38  1  0
 17 39  1  0
 18 40  1  0
 18 41  1  0
 21 42  1  0
 26 43  1  0
 27 44  1  0
M  END
>  <meeko>  (378) 
{"is_sidechain": [true], "free_energy": -10.89, "intermolecular_energy": 0.0, "internal_energy": -10.89, "cluster_size": 20, "cluster_id": 1, "rank_in_cluster": 1}

>  <_RMSD_MCS_to_ref>  (378) 
0.7061591534491356

$$$$
ligand
     RDKit          3D

 50 53  0  0  0  0  0  0  0  0999 V2000
   18.9090   19.1540    7.5370 C   0  0  0  0  0  0  0  0  0  0  0  0
   18.7730   17.6460    7.6780 C   0  0  0  0  0  0  0  0  0  0  0  0
   19.9900   16.9270    7.2120 C   0  0  0  0  0  0  0  0  0  0  0  0
   21.0690   16.4780    7.9470 C   0  0  0  0  0  0  0  0  0  0  0  0
   21.8920   15.9060    7.0180 N   0  0  0  0  0  0  0  0  0  0  0  0
   23.2700   15.0060    7.3450 S   0  0  0  0  0  6  0  0  0  0  0  0
   23.3520   14.0290    6.2770 O   0  0  0  0  0  0  0  0  0  0  0  0
   24.3140   15.9810    7.5910 O   0  0  0  0  0  0  0  0  0  0  0  0
   23.0050   14.1160    8.8620 C   0  0  0  0  0  0  0  0  0  0  0  0
   22.4610   12.8250    8.8420 C   0  0  0  0  0  0  0  0  0  0  0  0
   22.2620   12.1410   10.0390 C   0  0  0  0  0  0  0  0  0  0  0  0
   22.6040   12.7370   11.2500 C   0  0  0  0  0  0  0  0  0  0  0  0
   23.1510   14.0290   11.2910 C   0  0  0  0  0  0  0  0  0  0  0  0
   23.4870   14.6050   12.5210 C   0  0  0  0  0  0  0  0  0  0  0  0
   24.0260   15.8810   12.5350 C   0  0  0  0  0  0  0  0  0  0  0  0
   24.3930   16.5250   13.8370 C   0  0  0  0  0  0  0  0  0  0  0  0
   24.2650   15.9380   14.9060 O   0  0  0  0  0  0  0  0  0  0  0  0
   24.8650   17.8130   13.7270 N   0  0  0  0  0  0  0  0  0  0  0  0
   25.1250   18.6530   14.8800 C   0  0  1  0  0  0  0  0  0  0  0  0
   26.1020   17.9980   15.8520 C   0  0  0  0  0  0  0  0  0  0  0  0
   26.3460   18.9260   17.0310 C   0  0  0  0  0  0  0  0  0  0  0  0
   26.8370   20.2790   16.5720 C   0  0  0  0  0  0  0  0  0  0  0  0
   27.6180   20.9550   17.2340 O   0  0  0  0  0  0  0  0  0  0  0  0
   26.3360   20.7410   15.3810 N   0  0  0  0  0  0  0  0  0  0  0  0
   25.7040   19.9940   14.4160 C   0  0  0  0  0  0  0  0  0  0  0  0
   25.6050   20.4110   13.2630 O   0  0  0  0  0  0  0  0  0  0  0  0
   24.2500   16.6150   11.4180 N   0  0  0  0  0  0  0  0  0  0  0  0
   23.9170   16.0360   10.2390 C   0  0  0  0  0  0  0  0  0  0  0  0
   23.3630   14.7460   10.0900 C   0  0  0  0  0  0  0  0  0  0  0  0
   21.3130   15.9930    5.7940 C   0  0  0  0  0  0  0  0  0  0  0  0
   20.1480   16.6020    5.8780 N   0  0  0  0  0  0  0  0  0  0  0  0
   18.9504   19.6134    8.5356 H   0  0  0  0  0  0  0  0  0  0  0  0
   19.8320   19.3891    6.9867 H   0  0  0  0  0  0  0  0  0  0  0  0
   18.0430   19.5504    6.9867 H   0  0  0  0  0  0  0  0  0  0  0  0
   18.6014   17.4030    8.7370 H   0  0  0  0  0  0  0  0  0  0  0  0
   17.9285   17.3225    7.0518 H   0  0  0  0  0  0  0  0  0  0  0  0
   21.2295   16.5616    9.0320 H   0  0  0  0  0  0  0  0  0  0  0  0
   22.1922   12.3536    7.8852 H   0  0  0  0  0  0  0  0  0  0  0  0
   21.8338   11.1278   10.0275 H   0  0  0  0  0  0  0  0  0  0  0  0
   22.4431   12.1869   12.1889 H   0  0  0  0  0  0  0  0  0  0  0  0
   23.3261   14.0547   13.4597 H   0  0  0  0  0  0  0  0  0  0  0  0
   25.0408   18.1960   12.7872 H   0  0  0  0  0  0  0  0  0  0  0  0
   24.1702   18.8050   15.4047 H   0  0  0  0  0  0  0  0  0  0  0  0
   25.6782   17.0496   16.2139 H   0  0  0  0  0  0  0  0  0  0  0  0
   27.0543   17.8025   15.3372 H   0  0  0  0  0  0  0  0  0  0  0  0
   25.4050   19.0556   17.5858 H   0  0  0  0  0  0  0  0  0  0  0  0
   27.1175   18.4761   17.6731 H   0  0  0  0  0  0  0  0  0  0  0  0
   26.4444   21.7476   15.1914 H   0  0  0  0  0  0  0  0  0  0  0  0
   24.0927   16.6189    9.3228 H   0  0  0  0  0  0  0  0  0  0  0  0
   21.7544   15.6090    4.8625 H   0  0  0  0  0  0  0  0  0  0  0  0
  1  2  1  0
  2  3  1  0
  3  4  2  0
  4  5  1  0
  5  6  1  0
  6  7  2  0
  6  8  2  0
  6  9  1  0
  9 10  2  0
 10 11  1  0
 11 12  2  0
 12 13  1  0
 13 14  2  0
 14 15  1  0
 15 16  1  0
 16 17  2  0
 16 18  1  0
 18 19  1  0
 19 20  1  0
 20 21  1  0
 21 22  1  0
 22 23  2  0
 22 24  1  0
 24 25  1  0
 25 26  2  0
 15 27  2  0
 27 28  1  0
 28 29  2  0
  5 30  1  0
 30 31  2  0
 31  3  1  0
 29  9  1  0
 29 13  1  0
 25 19  1  0
  1 32  1  0
  1 33  1  0
  1 34  1  0
  2 35  1  0
  2 36  1  0
  4 37  1  0
 10 38  1  0
 11 39  1  0
 12 40  1  0
 14 41  1  0
 18 42  1  0
 19 43  1  1
 20 44  1  0
 20 45  1  0
 21 46  1  0
 21 47  1  0
 24 48  1  0
 28 49  1  0
 30 50  1  0
M  END
>  <meeko>  (379) 
{"is_sidechain": [true], "free_energy": -10.89, "intermolecular_energy": 0.0, "internal_energy": -10.89, "cluster_size": 20, "cluster_id": 1, "rank_in_cluster": 1}

>  <_RMSD_MCS_to_ref>  (379) 
0.534444779394674

$$$$
ligand
     RDKit          3D

 50 53  0  0  0  0  0  0  0  0999 V2000
   18.9090   19.1540    7.5370 C   0  0  0  0  0  0  0  0  0  0  0  0
   18.7730   17.6460    7.6780 C   0  0  0  0  0  0  0  0  0  0  0  0
   20.0480   16.9370    7.3810 C   0  0  0  0  0  0  0  0  0  0  0  0
   20.7610   16.0630    8.1780 C   0  0  0  0  0  0  0  0  0  0  0  0
   21.8390   15.7200    7.4130 N   0  0  0  0  0  0  0  0  0  0  0  0
   23.1110   14.7350    7.8980 S   0  0  0  0  0  6  0  0  0  0  0  0
   24.0980   14.7750    6.8370 O   0  0  0  0  0  0  0  0  0  0  0  0
   22.4720   13.4970    8.2980 O   0  0  0  0  0  0  0  0  0  0  0  0
   23.7670   15.5340    9.3270 C   0  0  0  0  0  0  0  0  0  0  0  0
   24.9070   16.2980    9.1300 C   0  0  0  0  0  0  0  0  0  0  0  0
   25.5630   16.9190   10.1260 N   0  0  0  0  0  0  0  0  0  0  0  0
   25.0590   16.7730   11.3720 C   0  0  0  0  0  0  0  0  0  0  0  0
   23.9010   16.0450   11.6990 C   0  0  0  0  0  0  0  0  0  0  0  0
   23.3920   15.9390   13.0230 C   0  0  0  0  0  0  0  0  0  0  0  0
   24.0930   16.5660   14.1720 C   0  0  0  0  0  0  0  0  0  0  0  0
   24.4580   15.8920   15.1260 O   0  0  0  0  0  0  0  0  0  0  0  0
   24.2950   17.9220   14.0770 N   0  0  0  0  0  0  0  0  0  0  0  0
   24.8620   18.6910   15.1740 C   0  0  1  0  0  0  0  0  0  0  0  0
   25.9770   17.9370   15.8900 C   0  0  0  0  0  0  0  0  0  0  0  0
   26.5450   18.8080   17.0000 C   0  0  0  0  0  0  0  0  0  0  0  0
   27.0140   20.1410   16.4650 C   0  0  0  0  0  0  0  0  0  0  0  0
   27.9870   20.7320   16.9260 O   0  0  0  0  0  0  0  0  0  0  0  0
   26.2800   20.6870   15.4430 N   0  0  0  0  0  0  0  0  0  0  0  0
   25.4260   20.0020   14.6160 C   0  0  0  0  0  0  0  0  0  0  0  0
   25.1380   20.4290   13.4980 O   0  0  0  0  0  0  0  0  0  0  0  0
   22.2260   15.2160   13.2940 C   0  0  0  0  0  0  0  0  0  0  0  0
   21.5400   14.6070   12.2560 C   0  0  0  0  0  0  0  0  0  0  0  0
   22.0230   14.7060   10.9500 C   0  0  0  0  0  0  0  0  0  0  0  0
   23.2150   15.4100   10.6310 C   0  0  0  0  0  0  0  0  0  0  0  0
   21.7530   16.3450    6.2120 C   0  0  0  0  0  0  0  0  0  0  0  0
   20.6820   17.1100    6.1660 N   0  0  0  0  0  0  0  0  0  0  0  0
   18.9504   19.6134    8.5356 H   0  0  0  0  0  0  0  0  0  0  0  0
   19.8320   19.3891    6.9867 H   0  0  0  0  0  0  0  0  0  0  0  0
   18.0430   19.5504    6.9867 H   0  0  0  0  0  0  0  0  0  0  0  0
   18.4695   17.4124    8.7092 H   0  0  0  0  0  0  0  0  0  0  0  0
   18.0197   17.3052    6.9525 H   0  0  0  0  0  0  0  0  0  0  0  0
   20.5168   15.7218    9.1948 H   0  0  0  0  0  0  0  0  0  0  0  0
   25.2949   16.4015    8.1059 H   0  0  0  0  0  0  0  0  0  0  0  0
   25.5980   17.2630   12.1963 H   0  0  0  0  0  0  0  0  0  0  0  0
   24.0380   18.4070   13.2054 H   0  0  0  0  0  0  0  0  0  0  0  0
   24.0621   18.8800   15.9051 H   0  0  0  0  0  0  0  0  0  0  0  0
   25.5739   17.0091   16.3217 H   0  0  0  0  0  0  0  0  0  0  0  0
   26.7735   17.6911   15.1723 H   0  0  0  0  0  0  0  0  0  0  0  0
   25.7645   18.9796   17.7559 H   0  0  0  0  0  0  0  0  0  0  0  0
   27.4074   18.2883   17.4428 H   0  0  0  0  0  0  0  0  0  0  0  0
   26.3785   21.6996   15.2824 H   0  0  0  0  0  0  0  0  0  0  0  0
   21.8555   15.1313   14.3262 H   0  0  0  0  0  0  0  0  0  0  0  0
   20.6160   14.0462   12.4605 H   0  0  0  0  0  0  0  0  0  0  0  0
   21.4603   14.2214   10.1385 H   0  0  0  0  0  0  0  0  0  0  0  0
   22.4765   16.2290    5.3915 H   0  0  0  0  0  0  0  0  0  0  0  0
  1  2  1  0
  2  3  1  0
  3  4  2  0
  4  5  1  0
  5  6  1  0
  6  7  2  0
  6  8  2  0
  6  9  1  0
  9 10  2  0
 10 11  1  0
 11 12  2  0
 12 13  1  0
 13 14  2  0
 14 15  1  0
 15 16  2  0
 15 17  1  0
 17 18  1  0
 18 19  1  0
 19 20  1  0
 20 21  1  0
 21 22  2  0
 21 23  1  0
 23 24  1  0
 24 25  2  0
 14 26  1  0
 26 27  2  0
 27 28  1  0
 28 29  2  0
  5 30  1  0
 30 31  2  0
 31  3  1  0
 29  9  1  0
 29 13  1  0
 24 18  1  0
  1 32  1  0
  1 33  1  0
  1 34  1  0
  2 35  1  0
  2 36  1  0
  4 37  1  0
 10 38  1  0
 12 39  1  0
 17 40  1  0
 18 41  1  1
 19 42  1  0
 19 43  1  0
 20 44  1  0
 20 45  1  0
 23 46  1  0
 26 47  1  0
 27 48  1  0
 28 49  1  0
 30 50  1  0
M  END
>  <meeko>  (380) 
{"is_sidechain": [true], "free_energy": -10.89, "intermolecular_energy": 0.0, "internal_energy": -10.89, "cluster_size": 14, "cluster_id": 1, "rank_in_cluster": 1}

>  <_RMSD_MCS_to_ref>  (380) 
0.5272639018766807

$$$$
ligand
     RDKit          3D

 45 48  0  0  0  0  0  0  0  0999 V2000
   18.9090   19.1540    7.5370 C   0  0  0  0  0  0  0  0  0  0  0  0
   18.7730   17.6460    7.6780 C   0  0  0  0  0  0  0  0  0  0  0  0
   20.0890   16.9550    7.6160 C   0  0  0  0  0  0  0  0  0  0  0  0
   20.6180   16.0150    8.4790 C   0  0  0  0  0  0  0  0  0  0  0  0
   21.8340   15.7110    7.9380 N   0  0  0  0  0  0  0  0  0  0  0  0
   23.0360   14.7930    8.6680 S   0  0  0  0  0  6  0  0  0  0  0  0
   24.2910   15.3020    8.1510 O   0  0  0  0  0  0  0  0  0  0  0  0
   22.6360   13.4080    8.5170 O   0  0  0  0  0  0  0  0  0  0  0  0
   22.9190   15.2210   10.3800 C   0  0  0  0  0  0  0  0  0  0  0  0
   21.9750   14.5900   11.1890 C   0  0  0  0  0  0  0  0  0  0  0  0
   21.9120   14.9680   12.5180 C   0  0  0  0  0  0  0  0  0  0  0  0
   22.7090   15.9100   13.0660 N   0  0  0  0  0  0  0  0  0  0  0  0
   23.6090   16.5150   12.2380 C   0  0  0  0  0  0  0  0  0  0  0  0
   24.4860   17.5520   12.8640 C   0  0  0  0  0  0  0  0  0  0  0  0
   25.3650   18.1220   12.2260 O   0  0  0  0  0  0  0  0  0  0  0  0
   24.2230   17.7920   14.1980 N   0  0  0  0  0  0  0  0  0  0  0  0
   25.1410   18.5830   15.0360 C   0  0  1  0  0  0  0  0  0  0  0  0
   24.8330   18.5210   16.5770 C   0  0  0  0  0  0  0  0  0  0  0  0
   26.3780   18.7160   16.7150 C   0  0  1  0  0  0  0  0  0  0  0  0
   26.4530   17.8150   15.4350 C   0  0  0  0  0  0  0  0  0  0  0  0
   26.8530   20.2050   16.4720 C   0  0  0  0  0  0  0  0  0  0  0  0
   27.7010   20.8170   17.1160 O   0  0  0  0  0  0  0  0  0  0  0  0
   26.2290   20.7910   15.3870 N   0  0  0  0  0  0  0  0  0  0  0  0
   25.4510   20.0720   14.4970 C   0  0  0  0  0  0  0  0  0  0  0  0
   25.1360   20.5630   13.4130 O   0  0  0  0  0  0  0  0  0  0  0  0
   23.7500   16.2110   10.8940 C   0  0  0  0  0  0  0  0  0  0  0  0
   22.0320   16.4710    6.8300 C   0  0  0  0  0  0  0  0  0  0  0  0
   20.9840   17.2330    6.6010 N   0  0  0  0  0  0  0  0  0  0  0  0
   18.9504   19.6134    8.5356 H   0  0  0  0  0  0  0  0  0  0  0  0
   19.8320   19.3891    6.9867 H   0  0  0  0  0  0  0  0  0  0  0  0
   18.0430   19.5504    6.9867 H   0  0  0  0  0  0  0  0  0  0  0  0
   18.3004   17.4218    8.6457 H   0  0  0  0  0  0  0  0  0  0  0  0
   18.1607   17.2822    6.8397 H   0  0  0  0  0  0  0  0  0  0  0  0
   20.1634   15.6052    9.3930 H   0  0  0  0  0  0  0  0  0  0  0  0
   21.3036   13.8183   10.7844 H   0  0  0  0  0  0  0  0  0  0  0  0
   21.1716   14.4738   13.1642 H   0  0  0  0  0  0  0  0  0  0  0  0
   23.3640   17.4087   14.6176 H   0  0  0  0  0  0  0  0  0  0  0  0
   24.2151   19.3419   16.9698 H   0  0  0  0  0  0  0  0  0  0  0  0
   24.2744   17.7038   17.0567 H   0  0  0  0  0  0  0  0  0  0  0  0
   26.9366   18.5051   17.6389 H   0  0  0  0  0  0  0  0  0  0  0  0
   27.3213   17.9897   14.7827 H   0  0  0  0  0  0  0  0  0  0  0  0
   26.5366   16.7185   15.4620 H   0  0  0  0  0  0  0  0  0  0  0  0
   26.3478   21.8028   15.2349 H   0  0  0  0  0  0  0  0  0  0  0  0
   24.4860   16.7291   10.2616 H   0  0  0  0  0  0  0  0  0  0  0  0
   22.9410   16.4522    6.2108 H   0  0  0  0  0  0  0  0  0  0  0  0
  1  2  1  0
  2  3  1  0
  3  4  2  0
  4  5  1  0
  5  6  1  0
  6  7  2  0
  6  8  2  0
  6  9  1  0
  9 10  2  0
 10 11  1  0
 11 12  2  0
 12 13  1  0
 13 14  1  0
 14 15  2  0
 14 16  1  0
 17 16  1  6
 17 18  1  0
 18 19  1  0
 19 20  1  0
 19 21  1  0
 21 22  2  0
 21 23  1  0
 23 24  1  0
 24 25  2  0
 13 26  2  0
  5 27  1  0
 27 28  2  0
 28  3  1  0
 26  9  1  0
 20 17  1  0
 24 17  1  0
  1 29  1  0
  1 30  1  0
  1 31  1  0
  2 32  1  0
  2 33  1  0
  4 34  1  0
 10 35  1  0
 11 36  1  0
 16 37  1  0
 18 38  1  0
 18 39  1  0
 19 40  1  1
 20 41  1  0
 20 42  1  0
 23 43  1  0
 26 44  1  0
 27 45  1  0
M  END
>  <meeko>  (381) 
{"is_sidechain": [true], "free_energy": -10.89, "intermolecular_energy": 0.0, "internal_energy": -10.89, "cluster_size": 20, "cluster_id": 1, "rank_in_cluster": 1}

>  <_RMSD_MCS_to_ref>  (381) 
0.7255072554963039

$$$$
ligand
     RDKit          3D

 51 54  0  0  0  0  0  0  0  0999 V2000
   18.7970   18.8170    7.7190 C   0  0  0  0  0  0  0  0  0  0  0  0
   18.5280   17.3290    7.8810 C   0  0  0  0  0  0  0  0  0  0  0  0
   19.7840   16.5330    7.9400 C   0  0  0  0  0  0  0  0  0  0  0  0
   20.2540   15.7250    8.9560 C   0  0  0  0  0  0  0  0  0  0  0  0
   21.4500   15.2590    8.4880 N   0  0  0  0  0  0  0  0  0  0  0  0
   22.3680   14.0360    9.1840 S   0  0  0  0  0  6  0  0  0  0  0  0
   21.4300   13.2100    9.9190 O   0  0  0  0  0  0  0  0  0  0  0  0
   23.2000   13.5060    8.1230 O   0  0  0  0  0  0  0  0  0  0  0  0
   23.4030   14.9040   10.3360 C   0  0  0  0  0  0  0  0  0  0  0  0
   24.5850   15.4650    9.8410 C   0  0  0  0  0  0  0  0  0  0  0  0
   25.4220   16.1840   10.6930 C   0  0  0  0  0  0  0  0  0  0  0  0
   25.1000   16.3500   12.0510 C   0  0  0  0  0  0  0  0  0  0  0  0
   26.0750   17.1440   12.8700 C   0  0  0  0  0  0  0  0  0  0  0  0
   27.0170   17.7130   12.3260 O   0  0  0  0  0  0  0  0  0  0  0  0
   25.8710   17.2080   14.2240 N   0  0  0  0  0  0  0  0  0  0  0  0
   26.6560   18.0730   15.0910 C   0  0  2  0  0  0  0  0  0  0  0  0
   26.3660   17.8220   16.5660 C   0  0  0  0  0  0  0  0  0  0  0  0
   27.1910   18.7770   17.4140 C   0  0  0  0  0  0  0  0  0  0  0  0
   26.9370   20.2140   17.0260 C   0  0  0  0  0  0  0  0  0  0  0  0
   26.9630   21.1310   17.8420 O   0  0  0  0  0  0  0  0  0  0  0  0
   26.7020   20.4610   15.6970 N   0  0  0  0  0  0  0  0  0  0  0  0
   26.3290   19.5330   14.7570 C   0  0  0  0  0  0  0  0  0  0  0  0
   25.7790   19.8760   13.7090 O   0  0  0  0  0  0  0  0  0  0  0  0
   23.9070   15.7850   12.5440 C   0  0  0  0  0  0  0  0  0  0  0  0
   23.0610   15.0470   11.6890 C   0  0  0  0  0  0  0  0  0  0  0  0
   21.9120   14.4470   12.2270 N   0  0  0  0  0  0  0  0  0  0  0  0
   21.4930   14.6660   13.5100 C   0  0  0  0  0  0  0  0  0  0  0  0
   20.5100   14.0970   13.9730 O   0  0  0  0  0  0  0  0  0  0  0  0
   22.2810   15.7240   14.2610 C   0  0  0  0  0  0  0  0  0  0  0  0
   23.6370   15.9170   13.8840 O   0  0  0  0  0  0  0  0  0  0  0  0
   21.6540   15.7380    7.2340 C   0  0  0  0  0  0  0  0  0  0  0  0
   20.6600   16.5220    6.8730 N   0  0  0  0  0  0  0  0  0  0  0  0
   18.8815   19.2845    8.7111 H   0  0  0  0  0  0  0  0  0  0  0  0
   19.7359   18.9616    7.1643 H   0  0  0  0  0  0  0  0  0  0  0  0
   17.9682   19.2812    7.1643 H   0  0  0  0  0  0  0  0  0  0  0  0
   17.9642   17.1704    8.8121 H   0  0  0  0  0  0  0  0  0  0  0  0
   17.9560   16.9921    7.0038 H   0  0  0  0  0  0  0  0  0  0  0  0
   19.7749   15.5063    9.9218 H   0  0  0  0  0  0  0  0  0  0  0  0
   24.8535   15.3391    8.7817 H   0  0  0  0  0  0  0  0  0  0  0  0
   26.3474   16.6276   10.2969 H   0  0  0  0  0  0  0  0  0  0  0  0
   25.1348   16.6220   14.6429 H   0  0  0  0  0  0  0  0  0  0  0  0
   27.7201   17.8552   14.9173 H   0  0  0  0  0  0  0  0  0  0  0  0
   25.2965   17.9873   16.7628 H   0  0  0  0  0  0  0  0  0  0  0  0
   26.6293   16.7847   16.8203 H   0  0  0  0  0  0  0  0  0  0  0  0
   26.9238   18.6389   18.4721 H   0  0  0  0  0  0  0  0  0  0  0  0
   28.2559   18.5559   17.2496 H   0  0  0  0  0  0  0  0  0  0  0  0
   26.8160   21.4327   15.3749 H   0  0  0  0  0  0  0  0  0  0  0  0
   21.3606   13.8145   11.6297 H   0  0  0  0  0  0  0  0  0  0  0  0
   21.7603   16.6832   14.1238 H   0  0  0  0  0  0  0  0  0  0  0  0
   22.3255   15.3597   15.2980 H   0  0  0  0  0  0  0  0  0  0  0  0
   22.5274   15.5038    6.6076 H   0  0  0  0  0  0  0  0  0  0  0  0
  1  2  1  0
  2  3  1  0
  3  4  2  0
  4  5  1  0
  5  6  1  0
  6  7  2  0
  6  8  2  0
  6  9  1  0
  9 10  2  0
 10 11  1  0
 11 12  2  0
 12 13  1  0
 13 14  2  0
 13 15  1  0
 15 16  1  0
 16 17  1  0
 17 18  1  0
 18 19  1  0
 19 20  2  0
 19 21  1  0
 21 22  1  0
 22 23  2  0
 12 24  1  0
 24 25  2  0
 25 26  1  0
 26 27  1  0
 27 28  2  0
 27 29  1  0
 29 30  1  0
  5 31  1  0
 31 32  2  0
 32  3  1  0
 25  9  1  0
 22 16  1  0
 30 24  1  0
  1 33  1  0
  1 34  1  0
  1 35  1  0
  2 36  1  0
  2 37  1  0
  4 38  1  0
 10 39  1  0
 11 40  1  0
 15 41  1  0
 16 42  1  1
 17 43  1  0
 17 44  1  0
 18 45  1  0
 18 46  1  0
 21 47  1  0
 26 48  1  0
 29 49  1  0
 29 50  1  0
 31 51  1  0
M  END
>  <meeko>  (382) 
{"is_sidechain": [true], "free_energy": -10.88, "intermolecular_energy": 0.0, "internal_energy": -10.88, "cluster_size": 9, "cluster_id": 1, "rank_in_cluster": 1}

>  <_RMSD_MCS_to_ref>  (382) 
0.976209221655093

$$$$
ligand
     RDKit          3D

 47 50  0  0  0  0  0  0  0  0999 V2000
   18.9090   19.1540    7.5370 C   0  0  0  0  0  0  0  0  0  0  0  0
   18.7730   17.6460    7.6780 C   0  0  0  0  0  0  0  0  0  0  0  0
   20.0340   16.9330    7.3370 C   0  0  0  0  0  0  0  0  0  0  0  0
   21.1030   16.6210    8.1550 C   0  0  0  0  0  0  0  0  0  0  0  0
   21.9660   15.9540    7.3340 N   0  0  0  0  0  0  0  0  0  0  0  0
   23.5160   15.4590    7.7290 S   0  0  0  0  0  6  0  0  0  0  0  0
   23.4880   14.0100    7.7690 O   0  0  0  0  0  0  0  0  0  0  0  0
   24.4180   16.1910    6.8630 O   0  0  0  0  0  0  0  0  0  0  0  0
   23.8930   15.9700    9.3460 C   0  0  0  0  0  0  0  0  0  0  0  0
   24.8410   16.8250    9.6780 N   0  0  0  0  0  0  0  0  0  0  0  0
   24.8240   16.9710   11.0400 N   0  0  0  0  0  0  0  0  0  0  0  0
   23.8690   16.2010   11.5210 C   0  0  0  0  0  0  0  0  0  0  0  0
   23.4000   15.9470   12.8440 C   0  0  0  0  0  0  0  0  0  0  0  0
   23.9890   16.6020   14.0560 C   0  0  0  0  0  0  0  0  0  0  0  0
   24.0860   16.0060   15.1260 O   0  0  0  0  0  0  0  0  0  0  0  0
   24.4020   17.8990   13.9020 N   0  0  0  0  0  0  0  0  0  0  0  0
   24.9310   18.6770   15.0100 C   0  0  1  0  0  0  0  0  0  0  0  0
   26.0450   17.9320   15.7370 C   0  0  0  0  0  0  0  0  0  0  0  0
   26.5710   18.7890   16.8770 C   0  0  0  0  0  0  0  0  0  0  0  0
   27.0320   20.1390   16.3820 C   0  0  0  0  0  0  0  0  0  0  0  0
   27.9600   20.7500   16.9050 O   0  0  0  0  0  0  0  0  0  0  0  0
   26.3350   20.6790   15.3310 N   0  0  0  0  0  0  0  0  0  0  0  0
   25.4720   20.0150   14.4920 C   0  0  0  0  0  0  0  0  0  0  0  0
   25.1510   20.4990   13.4080 O   0  0  0  0  0  0  0  0  0  0  0  0
   22.3840   15.0720   13.0210 C   0  0  0  0  0  0  0  0  0  0  0  0
   21.7520   14.3910   11.9010 C   0  0  0  0  0  0  0  0  0  0  0  0
   22.1930   14.6360   10.6560 C   0  0  0  0  0  0  0  0  0  0  0  0
   23.2440   15.5340   10.4730 N   0  0  0  0  0  0  0  0  0  0  0  0
   21.4580   15.9310    6.0760 C   0  0  0  0  0  0  0  0  0  0  0  0
   20.2690   16.4940    6.0490 N   0  0  0  0  0  0  0  0  0  0  0  0
   18.9504   19.6134    8.5356 H   0  0  0  0  0  0  0  0  0  0  0  0
   19.8320   19.3891    6.9867 H   0  0  0  0  0  0  0  0  0  0  0  0
   18.0430   19.5504    6.9867 H   0  0  0  0  0  0  0  0  0  0  0  0
   18.5031   17.4105    8.7180 H   0  0  0  0  0  0  0  0  0  0  0  0
   17.9952   17.3102    6.9764 H   0  0  0  0  0  0  0  0  0  0  0  0
   21.2295   16.8560    9.2221 H   0  0  0  0  0  0  0  0  0  0  0  0
   24.3356   18.3366   12.9720 H   0  0  0  0  0  0  0  0  0  0  0  0
   24.1099   18.8497   15.7213 H   0  0  0  0  0  0  0  0  0  0  0  0
   25.6513   16.9874   16.1404 H   0  0  0  0  0  0  0  0  0  0  0  0
   26.8625   17.7187   15.0326 H   0  0  0  0  0  0  0  0  0  0  0  0
   25.7692   18.9332   17.6162 H   0  0  0  0  0  0  0  0  0  0  0  0
   27.4306   18.2737   17.3303 H   0  0  0  0  0  0  0  0  0  0  0  0
   26.4723   21.6841   15.1524 H   0  0  0  0  0  0  0  0  0  0  0  0
   22.0251   14.8693   14.0409 H   0  0  0  0  0  0  0  0  0  0  0  0
   20.9251   13.6858   12.0714 H   0  0  0  0  0  0  0  0  0  0  0  0
   21.7312   14.1350    9.7924 H   0  0  0  0  0  0  0  0  0  0  0  0
   21.9686   15.5018    5.2013 H   0  0  0  0  0  0  0  0  0  0  0  0
  1  2  1  0
  2  3  1  0
  3  4  2  0
  4  5  1  0
  5  6  1  0
  6  7  2  0
  6  8  2  0
  6  9  1  0
  9 10  2  0
 10 11  1  0
 11 12  2  0
 12 13  1  0
 13 14  1  0
 14 15  2  0
 14 16  1  0
 16 17  1  0
 17 18  1  0
 18 19  1  0
 19 20  1  0
 20 21  2  0
 20 22  1  0
 22 23  1  0
 23 24  2  0
 13 25  2  0
 25 26  1  0
 26 27  2  0
 27 28  1  0
  5 29  1  0
 29 30  2  0
 30  3  1  0
 28  9  1  0
 28 12  1  0
 23 17  1  0
  1 31  1  0
  1 32  1  0
  1 33  1  0
  2 34  1  0
  2 35  1  0
  4 36  1  0
 16 37  1  0
 17 38  1  1
 18 39  1  0
 18 40  1  0
 19 41  1  0
 19 42  1  0
 22 43  1  0
 25 44  1  0
 26 45  1  0
 27 46  1  0
 29 47  1  0
M  END
>  <meeko>  (383) 
{"is_sidechain": [true], "free_energy": -10.88, "intermolecular_energy": 0.0, "internal_energy": -10.88, "cluster_size": 15, "cluster_id": 1, "rank_in_cluster": 1}

>  <_RMSD_MCS_to_ref>  (383) 
0.48604858010513974

$$$$
ligand
     RDKit          3D

 55 58  0  0  0  0  0  0  0  0999 V2000
   18.9090   19.1540    7.5370 C   0  0  0  0  0  0  0  0  0  0  0  0
   18.7730   17.6460    7.6780 C   0  0  0  0  0  0  0  0  0  0  0  0
   20.0860   16.9520    7.5860 C   0  0  0  0  0  0  0  0  0  0  0  0
   21.0150   16.7120    8.5800 C   0  0  0  0  0  0  0  0  0  0  0  0
   22.0080   16.0200    7.9500 N   0  0  0  0  0  0  0  0  0  0  0  0
   23.5030   15.6300    8.6120 S   0  0  0  0  0  6  0  0  0  0  0  0
   24.3090   16.8300    8.5230 O   0  0  0  0  0  0  0  0  0  0  0  0
   23.8920   14.3830    7.9810 O   0  0  0  0  0  0  0  0  0  0  0  0
   23.1370   15.3170   10.3190 C   0  0  0  0  0  0  0  0  0  0  0  0
   22.0100   14.5670   10.6620 C   0  0  0  0  0  0  0  0  0  0  0  0
   21.7180   14.3130   12.0100 C   0  0  0  0  0  0  0  0  0  0  0  0
   22.5960   14.7960   13.0020 C   0  0  0  0  0  0  0  0  0  0  0  0
   23.7200   15.5730   12.6620 C   0  0  0  0  0  0  0  0  0  0  0  0
   24.6760   16.1670   13.6510 C   0  0  0  0  0  0  0  0  0  0  0  0
   25.2920   15.4390   14.4240 O   0  0  0  0  0  0  0  0  0  0  0  0
   24.8460   17.5290   13.6420 N   0  0  0  0  0  0  0  0  0  0  0  0
   25.8610   18.1890   14.4460 C   0  0  2  0  0  0  0  0  0  0  0  0
   25.6860   17.9150   15.9370 C   0  0  0  0  0  0  0  0  0  0  0  0
   26.7600   18.6540   16.7190 C   0  0  0  0  0  0  0  0  0  0  0  0
   26.7390   20.1330   16.4130 C   0  0  0  0  0  0  0  0  0  0  0  0
   27.0000   20.9860   17.2570 O   0  0  0  0  0  0  0  0  0  0  0  0
   26.4360   20.4880   15.1230 N   0  0  0  0  0  0  0  0  0  0  0  0
   25.7760   19.7010   14.2120 C   0  0  0  0  0  0  0  0  0  0  0  0
   25.1680   20.2040   13.2670 O   0  0  0  0  0  0  0  0  0  0  0  0
   23.9910   15.8150   11.3060 C   0  0  0  0  0  0  0  0  0  0  0  0
   22.3200   14.5270   14.3200 O   0  0  0  0  0  0  0  0  0  0  0  0
   21.1770   15.2810   14.7610 C   0  0  0  0  0  0  0  0  0  0  0  0
   19.8720   14.5100   14.5310 C   0  0  0  0  0  0  0  0  0  0  0  0
   19.4990   14.3820   13.1140 N   0  0  0  0  0  0  0  0  0  0  0  0
   20.4600   13.5630   12.3760 C   0  0  0  0  0  0  0  0  0  0  0  0
   21.7050   15.9040    6.6320 C   0  0  0  0  0  0  0  0  0  0  0  0
   20.5340   16.4530    6.3790 N   0  0  0  0  0  0  0  0  0  0  0  0
   18.9504   19.6134    8.5356 H   0  0  0  0  0  0  0  0  0  0  0  0
   19.8320   19.3891    6.9867 H   0  0  0  0  0  0  0  0  0  0  0  0
   18.0430   19.5504    6.9867 H   0  0  0  0  0  0  0  0  0  0  0  0
   18.3211   17.4209    8.6553 H   0  0  0  0  0  0  0  0  0  0  0  0
   18.1419   17.2853    6.8524 H   0  0  0  0  0  0  0  0  0  0  0  0
   20.9655   17.0105    9.6376 H   0  0  0  0  0  0  0  0  0  0  0  0
   21.3504   14.1749    9.8738 H   0  0  0  0  0  0  0  0  0  0  0  0
   24.2334   18.1029   13.0451 H   0  0  0  0  0  0  0  0  0  0  0  0
   26.8399   17.7911   14.1404 H   0  0  0  0  0  0  0  0  0  0  0  0
   24.6934   18.2626   16.2594 H   0  0  0  0  0  0  0  0  0  0  0  0
   25.7754   16.8346   16.1236 H   0  0  0  0  0  0  0  0  0  0  0  0
   26.5848   18.5078   17.7951 H   0  0  0  0  0  0  0  0  0  0  0  0
   27.7416   18.2521   16.4274 H   0  0  0  0  0  0  0  0  0  0  0  0
   26.7287   21.4251   14.8113 H   0  0  0  0  0  0  0  0  0  0  0  0
   24.8785   16.3985   11.0198 H   0  0  0  0  0  0  0  0  0  0  0  0
   21.2819   15.4936   15.8352 H   0  0  0  0  0  0  0  0  0  0  0  0
   21.1337   16.2137   14.1794 H   0  0  0  0  0  0  0  0  0  0  0  0
   19.9872   13.5002   14.9517 H   0  0  0  0  0  0  0  0  0  0  0  0
   19.0713   15.0824   15.0222 H   0  0  0  0  0  0  0  0  0  0  0  0
   18.5689   13.9439   13.0515 H   0  0  0  0  0  0  0  0  0  0  0  0
   20.7358   12.6996   12.9992 H   0  0  0  0  0  0  0  0  0  0  0  0
   19.9764   13.2551   11.4372 H   0  0  0  0  0  0  0  0  0  0  0  0
   22.3465   15.4199    5.8809 H   0  0  0  0  0  0  0  0  0  0  0  0
  1  2  1  0
  2  3  1  0
  3  4  2  0
  4  5  1  0
  5  6  1  0
  6  7  2  0
  6  8  2  0
  6  9  1  0
  9 10  2  0
 10 11  1  0
 11 12  2  0
 12 13  1  0
 13 14  1  0
 14 15  2  0
 14 16  1  0
 16 17  1  0
 17 18  1  0
 18 19  1  0
 19 20  1  0
 20 21  2  0
 20 22  1  0
 22 23  1  0
 23 24  2  0
 13 25  2  0
 12 26  1  0
 26 27  1  0
 27 28  1  0
 28 29  1  0
 29 30  1  0
  5 31  1  0
 31 32  2  0
 32  3  1  0
 25  9  1  0
 30 11  1  0
 23 17  1  0
  1 33  1  0
  1 34  1  0
  1 35  1  0
  2 36  1  0
  2 37  1  0
  4 38  1  0
 10 39  1  0
 16 40  1  0
 17 41  1  6
 18 42  1  0
 18 43  1  0
 19 44  1  0
 19 45  1  0
 22 46  1  0
 25 47  1  0
 27 48  1  0
 27 49  1  0
 28 50  1  0
 28 51  1  0
 29 52  1  0
 30 53  1  0
 30 54  1  0
 31 55  1  0
M  END
>  <meeko>  (384) 
{"is_sidechain": [true], "free_energy": -10.88, "intermolecular_energy": 0.13, "internal_energy": -11.0, "cluster_size": 15, "cluster_id": 1, "rank_in_cluster": 1}

>  <_RMSD_MCS_to_ref>  (384) 
0.5634283943462165

$$$$
ligand
     RDKit          3D

 59 63  0  0  0  0  0  0  0  0999 V2000
   18.8250   19.0170    7.5350 C   0  0  0  0  0  0  0  0  0  0  0  0
   18.5200   17.5420    7.7330 C   0  0  0  0  0  0  0  0  0  0  0  0
   19.7570   16.7220    7.8470 C   0  0  0  0  0  0  0  0  0  0  0  0
   20.1250   15.8370    8.8410 C   0  0  0  0  0  0  0  0  0  0  0  0
   21.3540   15.3880    8.4530 N   0  0  0  0  0  0  0  0  0  0  0  0
   22.1990   14.1140    9.1490 S   0  0  0  0  0  6  0  0  0  0  0  0
   21.2380   13.0410    9.3140 O   0  0  0  0  0  0  0  0  0  0  0  0
   23.4070   13.9600    8.3630 O   0  0  0  0  0  0  0  0  0  0  0  0
   22.6350   14.7370   10.7490 C   0  0  0  0  0  0  0  0  0  0  0  0
   21.7130   14.6180   11.8100 C   0  0  0  0  0  0  0  0  0  0  0  0
   22.0220   15.1210   13.0820 C   0  0  0  0  0  0  0  0  0  0  0  0
   21.0440   15.0370   14.1620 C   0  0  0  0  0  0  0  0  0  0  0  0
   20.3210   13.9330   14.4100 C   0  0  0  0  0  0  0  0  0  0  0  0
   20.3700   12.6260   13.6700 C   0  0  0  0  0  0  0  0  0  0  0  0
   19.1230   11.9210   14.1840 C   0  0  0  0  0  0  0  0  0  0  0  0
   18.9560   12.3920   15.5670 N   0  0  0  0  0  0  0  0  0  0  0  0
   19.3150   13.8170   15.5160 C   0  0  0  0  0  0  0  0  0  0  0  0
   23.2590   15.7200   13.2620 C   0  0  0  0  0  0  0  0  0  0  0  0
   24.1590   15.8120   12.2000 C   0  0  0  0  0  0  0  0  0  0  0  0
   23.8850   15.3300   10.9350 C   0  0  0  0  0  0  0  0  0  0  0  0
   25.3580   16.5080   12.6730 C   0  0  0  0  0  0  0  0  0  0  0  0
   26.3060   16.8110   11.9750 O   0  0  0  0  0  0  0  0  0  0  0  0
   25.1780   16.7470   14.0260 N   0  0  0  0  0  0  0  0  0  0  0  0
   26.0350   17.6690   14.7610 C   0  0  2  0  0  0  0  0  0  0  0  0
   25.8110   17.6040   16.2680 C   0  0  0  0  0  0  0  0  0  0  0  0
   26.7950   18.5310   16.9650 C   0  0  0  0  0  0  0  0  0  0  0  0
   26.6830   19.9430   16.4400 C   0  0  0  0  0  0  0  0  0  0  0  0
   26.8330   20.9250   17.1580 O   0  0  0  0  0  0  0  0  0  0  0  0
   26.4230   20.0790   15.0990 N   0  0  0  0  0  0  0  0  0  0  0  0
   25.8500   19.1230   14.2910 C   0  0  0  0  0  0  0  0  0  0  0  0
   25.2360   19.4520   13.2780 O   0  0  0  0  0  0  0  0  0  0  0  0
   23.8450   16.3640   14.4770 C   0  0  0  0  0  0  0  0  0  0  0  0
   21.6740   15.9460    7.2570 C   0  0  0  0  0  0  0  0  0  0  0  0
   20.7270   16.7720    6.8640 N   0  0  0  0  0  0  0  0  0  0  0  0
   18.9260   19.5054    8.5155 H   0  0  0  0  0  0  0  0  0  0  0  0
   19.7645   19.1250    6.9731 H   0  0  0  0  0  0  0  0  0  0  0  0
   18.0054   19.4887    6.9731 H   0  0  0  0  0  0  0  0  0  0  0  0
   17.9300   17.4228    8.6537 H   0  0  0  0  0  0  0  0  0  0  0  0
   17.9626   17.1914    6.8519 H   0  0  0  0  0  0  0  0  0  0  0  0
   19.5570   15.5576    9.7406 H   0  0  0  0  0  0  0  0  0  0  0  0
   20.7439   14.1267   11.6382 H   0  0  0  0  0  0  0  0  0  0  0  0
   20.8922   15.9185   14.8022 H   0  0  0  0  0  0  0  0  0  0  0  0
   20.3210   12.7812   12.5821 H   0  0  0  0  0  0  0  0  0  0  0  0
   21.2982   12.0591   13.8345 H   0  0  0  0  0  0  0  0  0  0  0  0
   18.2478   12.1929   13.5756 H   0  0  0  0  0  0  0  0  0  0  0  0
   19.2184   10.8264   14.1312 H   0  0  0  0  0  0  0  0  0  0  0  0
   17.9810   12.2730   15.8770 H   0  0  0  0  0  0  0  0  0  0  0  0
   18.4284   14.4299   15.2961 H   0  0  0  0  0  0  0  0  0  0  0  0
   19.7182   14.1727   16.4757 H   0  0  0  0  0  0  0  0  0  0  0  0
   24.6147   15.4094   10.1157 H   0  0  0  0  0  0  0  0  0  0  0  0
   27.0639   17.3447   14.5460 H   0  0  0  0  0  0  0  0  0  0  0  0
   24.7828   17.9185   16.5002 H   0  0  0  0  0  0  0  0  0  0  0  0
   25.9658   16.5729   16.6185 H   0  0  0  0  0  0  0  0  0  0  0  0
   26.5837   18.5320   18.0445 H   0  0  0  0  0  0  0  0  0  0  0  0
   27.8143   18.1669   16.7690 H   0  0  0  0  0  0  0  0  0  0  0  0
   26.6790   20.9744   14.6590 H   0  0  0  0  0  0  0  0  0  0  0  0
   23.8988   15.6539   15.3154 H   0  0  0  0  0  0  0  0  0  0  0  0
   23.2510   17.2107   14.8515 H   0  0  0  0  0  0  0  0  0  0  0  0
   22.5961   15.7370    6.6948 H   0  0  0  0  0  0  0  0  0  0  0  0
  1  2  1  0
  2  3  1  0
  3  4  2  0
  4  5  1  0
  5  6  1  0
  6  7  2  0
  6  8  2  0
  6  9  1  0
  9 10  2  0
 10 11  1  0
 11 12  1  0
 12 13  2  0
 13 14  1  0
 14 15  1  0
 15 16  1  0
 16 17  1  0
 11 18  2  0
 18 19  1  0
 19 20  2  0
 19 21  1  0
 21 22  2  0
 21 23  1  0
 23 24  1  0
 24 25  1  0
 25 26  1  0
 26 27  1  0
 27 28  2  0
 27 29  1  0
 29 30  1  0
 30 31  2  0
 23 32  1  0
  5 33  1  0
 33 34  2  0
 34  3  1  0
 20  9  1  0
 30 24  1  0
 17 13  1  0
 32 18  1  0
  1 35  1  0
  1 36  1  0
  1 37  1  0
  2 38  1  0
  2 39  1  0
  4 40  1  0
 10 41  1  0
 12 42  1  0
 14 43  1  0
 14 44  1  0
 15 45  1  0
 15 46  1  0
 16 47  1  0
 17 48  1  0
 17 49  1  0
 20 50  1  0
 24 51  1  1
 25 52  1  0
 25 53  1  0
 26 54  1  0
 26 55  1  0
 29 56  1  0
 32 57  1  0
 32 58  1  0
 33 59  1  0
M  END
>  <meeko>  (385) 
{"is_sidechain": [true], "free_energy": -10.87, "intermolecular_energy": 0.0, "internal_energy": -10.87, "cluster_size": 18, "cluster_id": 1, "rank_in_cluster": 1}

>  <_RMSD_MCS_to_ref>  (385) 
1.9591291007315816

$$$$
ligand
     RDKit          3D

 54 57  0  0  0  0  0  0  0  0999 V2000
   18.8250   19.0170    7.5350 C   0  0  0  0  0  0  0  0  0  0  0  0
   18.5200   17.5420    7.7330 C   0  0  0  0  0  0  0  0  0  0  0  0
   19.6970   16.7870    8.2420 C   0  0  0  0  0  0  0  0  0  0  0  0
   20.5990   16.0110    7.5430 C   0  0  0  0  0  0  0  0  0  0  0  0
   21.4830   15.5840    8.4940 N   0  0  0  0  0  0  0  0  0  0  0  0
   22.7270   14.4790    8.2500 S   0  0  0  0  0  6  0  0  0  0  0  0
   23.1450   14.6340    6.8670 O   0  0  0  0  0  0  0  0  0  0  0  0
   22.2200   13.2140    8.7510 O   0  0  0  0  0  0  0  0  0  0  0  0
   24.0130   15.0540    9.3270 C   0  0  0  0  0  0  0  0  0  0  0  0
   24.9270   15.9830    8.8060 C   0  0  0  0  0  0  0  0  0  0  0  0
   25.9910   16.4200    9.5860 C   0  0  0  0  0  0  0  0  0  0  0  0
   26.1470   15.9240   10.8760 C   0  0  0  0  0  0  0  0  0  0  0  0
   25.2280   15.0000   11.4090 C   0  0  0  0  0  0  0  0  0  0  0  0
   24.1120   14.5840   10.6510 C   0  0  0  0  0  0  0  0  0  0  0  0
   23.2240   13.6170   11.1570 N   0  0  0  0  0  0  0  0  0  0  0  0
   23.2230   13.4060   12.5990 C   0  0  0  0  0  0  0  0  0  0  0  0
   24.6460   13.2140   13.0940 C   0  0  0  0  0  0  0  0  0  0  0  0
   25.4500   14.4870   12.8210 C   0  0  2  0  0  0  0  0  0  0  0  0
   25.1260   15.5380   13.8900 C   0  0  0  0  0  0  0  0  0  0  0  0
   24.2360   15.4200   14.7250 O   0  0  0  0  0  0  0  0  0  0  0  0
   25.9610   16.6370   13.8630 N   0  0  0  0  0  0  0  0  0  0  0  0
   25.7240   17.7820   14.7330 C   0  0  1  0  0  0  0  0  0  0  0  0
   26.2350   17.5440   16.1490 C   0  0  0  0  0  0  0  0  0  0  0  0
   25.9990   18.7900   16.9890 C   0  0  0  0  0  0  0  0  0  0  0  0
   26.6350   20.0060   16.3580 C   0  0  0  0  0  0  0  0  0  0  0  0
   27.1140   20.9200   17.0220 O   0  0  0  0  0  0  0  0  0  0  0  0
   26.6300   20.0600   14.9870 N   0  0  0  0  0  0  0  0  0  0  0  0
   26.4440   18.9980   14.1390 C   0  0  0  0  0  0  0  0  0  0  0  0
   26.8260   19.0360   12.9700 O   0  0  0  0  0  0  0  0  0  0  0  0
   21.0830   16.0420    9.7080 C   0  0  0  0  0  0  0  0  0  0  0  0
   20.0080   16.7950    9.5870 N   0  0  0  0  0  0  0  0  0  0  0  0
   18.9260   19.5054    8.5155 H   0  0  0  0  0  0  0  0  0  0  0  0
   19.7645   19.1250    6.9731 H   0  0  0  0  0  0  0  0  0  0  0  0
   18.0054   19.4887    6.9731 H   0  0  0  0  0  0  0  0  0  0  0  0
   17.6971   17.4446    8.4564 H   0  0  0  0  0  0  0  0  0  0  0  0
   18.2459   17.1200    6.7548 H   0  0  0  0  0  0  0  0  0  0  0  0
   20.6052   15.7871    6.4660 H   0  0  0  0  0  0  0  0  0  0  0  0
   24.8014   16.3646    7.7820 H   0  0  0  0  0  0  0  0  0  0  0  0
   26.7057   17.1540    9.1854 H   0  0  0  0  0  0  0  0  0  0  0  0
   26.9986   16.2576   11.4872 H   0  0  0  0  0  0  0  0  0  0  0  0
   22.6016   13.0814   10.5352 H   0  0  0  0  0  0  0  0  0  0  0  0
   22.7791   14.2815   13.0955 H   0  0  0  0  0  0  0  0  0  0  0  0
   22.6336   12.5073   12.8332 H   0  0  0  0  0  0  0  0  0  0  0  0
   24.6352   13.0105   14.1750 H   0  0  0  0  0  0  0  0  0  0  0  0
   25.1085   12.3652   12.5689 H   0  0  0  0  0  0  0  0  0  0  0  0
   26.5231   14.2547   12.8871 H   0  0  0  0  0  0  0  0  0  0  0  0
   26.7640   16.6479   13.2180 H   0  0  0  0  0  0  0  0  0  0  0  0
   24.6385   17.9486   14.7951 H   0  0  0  0  0  0  0  0  0  0  0  0
   25.6976   16.6940   16.5948 H   0  0  0  0  0  0  0  0  0  0  0  0
   27.3117   17.3212   16.1178 H   0  0  0  0  0  0  0  0  0  0  0  0
   24.9161   18.9596   17.0820 H   0  0  0  0  0  0  0  0  0  0  0  0
   26.4548   18.6335   17.9778 H   0  0  0  0  0  0  0  0  0  0  0  0
   26.7797   20.9829   14.5548 H   0  0  0  0  0  0  0  0  0  0  0  0
   21.5860   15.8161   10.6598 H   0  0  0  0  0  0  0  0  0  0  0  0
  1  2  1  0
  2  3  1  0
  3  4  2  0
  4  5  1  0
  5  6  1  0
  6  7  2  0
  6  8  2  0
  6  9  1  0
  9 10  2  0
 10 11  1  0
 11 12  2  0
 12 13  1  0
 13 14  2  0
 14 15  1  0
 15 16  1  0
 16 17  1  0
 17 18  1  0
 18 19  1  0
 19 20  2  0
 19 21  1  0
 21 22  1  0
 22 23  1  0
 23 24  1  0
 24 25  1  0
 25 26  2  0
 25 27  1  0
 27 28  1  0
 28 29  2  0
  5 30  1  0
 30 31  2  0
 31  3  1  0
 14  9  1  0
 28 22  1  0
 18 13  1  0
  1 32  1  0
  1 33  1  0
  1 34  1  0
  2 35  1  0
  2 36  1  0
  4 37  1  0
 10 38  1  0
 11 39  1  0
 12 40  1  0
 15 41  1  0
 16 42  1  0
 16 43  1  0
 17 44  1  0
 17 45  1  0
 18 46  1  6
 21 47  1  0
 22 48  1  1
 23 49  1  0
 23 50  1  0
 24 51  1  0
 24 52  1  0
 27 53  1  0
 30 54  1  0
M  END
>  <meeko>  (386) 
{"is_sidechain": [true], "free_energy": -10.87, "intermolecular_energy": 0.0, "internal_energy": -10.87, "cluster_size": 20, "cluster_id": 1, "rank_in_cluster": 1}

>  <_RMSD_MCS_to_ref>  (386) 
1.2432671117306655

$$$$
ligand
     RDKit          3D

 52 56  0  0  0  0  0  0  0  0999 V2000
   18.7980   18.8170    7.7190 C   0  0  0  0  0  0  0  0  0  0  0  0
   18.5270   17.3290    7.8810 C   0  0  0  0  0  0  0  0  0  0  0  0
   19.7730   16.5120    7.8370 C   0  0  0  0  0  0  0  0  0  0  0  0
   20.5680   16.0950    8.8860 C   0  0  0  0  0  0  0  0  0  0  0  0
   21.5720   15.3880    8.2910 N   0  0  0  0  0  0  0  0  0  0  0  0
   22.6290   14.3400    9.0860 S   0  0  0  0  0  6  0  0  0  0  0  0
   22.7070   13.1510    8.2630 O   0  0  0  0  0  0  0  0  0  0  0  0
   23.7820   15.1540    9.4130 O   0  0  0  0  0  0  0  0  0  0  0  0
   21.7810   13.9220   10.5880 C   0  0  0  0  0  0  0  0  0  0  0  0
   20.5730   13.2340   10.5320 C   0  0  0  0  0  0  0  0  0  0  0  0
   19.9450   12.8690   11.7220 C   0  0  0  0  0  0  0  0  0  0  0  0
   20.5310   13.1620   12.9720 C   0  0  0  0  0  0  0  0  0  0  0  0
   19.9160   12.8010   14.1720 C   0  0  0  0  0  0  0  0  0  0  0  0
   20.4220   13.0460   15.3990 N   0  0  0  0  0  0  0  0  0  0  0  0
   21.6220   13.6710   15.4430 C   0  0  0  0  0  0  0  0  0  0  0  0
   22.3460   14.0650   14.3210 C   0  0  0  0  0  0  0  0  0  0  0  0
   23.6550   14.6520   14.5260 C   0  0  0  0  0  0  0  0  0  0  0  0
   23.9530   15.9940   14.6030 C   0  0  0  0  0  0  0  0  0  0  0  0
   25.3050   16.0260   14.7860 N   0  0  0  0  0  0  0  0  0  0  0  0
   26.1730   17.1520   15.1050 C   0  0  2  0  0  0  0  0  0  0  0  0
   25.9740   17.5840   16.5580 C   0  0  0  0  0  0  0  0  0  0  0  0
   26.8920   18.7470   16.8910 C   0  0  0  0  0  0  0  0  0  0  0  0
   26.6860   19.9000   15.9400 C   0  0  0  0  0  0  0  0  0  0  0  0
   26.9610   21.0570   16.2400 O   0  0  0  0  0  0  0  0  0  0  0  0
   26.2550   19.5760   14.6790 N   0  0  0  0  0  0  0  0  0  0  0  0
   25.9910   18.3280   14.1600 C   0  0  0  0  0  0  0  0  0  0  0  0
   25.6990   18.2140   12.9720 O   0  0  0  0  0  0  0  0  0  0  0  0
   25.8150   14.7780   14.8070 N   0  0  0  0  0  0  0  0  0  0  0  0
   24.8110   13.9280   14.6260 N   0  0  0  0  0  0  0  0  0  0  0  0
   21.7710   13.8380   13.0420 C   0  0  0  0  0  0  0  0  0  0  0  0
   22.3510   14.2530   11.8210 C   0  0  0  0  0  0  0  0  0  0  0  0
   21.3790   15.3970    6.9450 C   0  0  0  0  0  0  0  0  0  0  0  0
   20.2760   16.0460    6.6340 N   0  0  0  0  0  0  0  0  0  0  0  0
   18.8831   19.2843    8.7111 H   0  0  0  0  0  0  0  0  0  0  0  0
   19.7370   18.9604    7.1644 H   0  0  0  0  0  0  0  0  0  0  0  0
   17.9698   19.2823    7.1644 H   0  0  0  0  0  0  0  0  0  0  0  0
   18.0316   17.1644    8.8492 H   0  0  0  0  0  0  0  0  0  0  0  0
   17.8909   17.0125    7.0412 H   0  0  0  0  0  0  0  0  0  0  0  0
   20.4244   16.2890    9.9592 H   0  0  0  0  0  0  0  0  0  0  0  0
   20.1196   12.9815    9.5621 H   0  0  0  0  0  0  0  0  0  0  0  0
   18.9785   12.3449   11.6861 H   0  0  0  0  0  0  0  0  0  0  0  0
   18.9494   12.2793   14.1134 H   0  0  0  0  0  0  0  0  0  0  0  0
   22.0543   13.8818   16.4323 H   0  0  0  0  0  0  0  0  0  0  0  0
   23.2600   16.8454   14.5330 H   0  0  0  0  0  0  0  0  0  0  0  0
   27.2081   16.8048   14.9709 H   0  0  0  0  0  0  0  0  0  0  0  0
   24.9286   17.8929   16.7051 H   0  0  0  0  0  0  0  0  0  0  0  0
   26.2128   16.7381   17.2194 H   0  0  0  0  0  0  0  0  0  0  0  0
   26.6822   19.0865   17.9160 H   0  0  0  0  0  0  0  0  0  0  0  0
   27.9331   18.4039   16.7991 H   0  0  0  0  0  0  0  0  0  0  0  0
   26.1100   20.3684   14.0372 H   0  0  0  0  0  0  0  0  0  0  0  0
   23.2738   14.8513   11.8418 H   0  0  0  0  0  0  0  0  0  0  0  0
   22.0531   14.9258    6.2145 H   0  0  0  0  0  0  0  0  0  0  0  0
  1  2  1  0
  2  3  1  0
  3  4  2  0
  4  5  1  0
  5  6  1  0
  6  7  2  0
  6  8  2  0
  6  9  1  0
  9 10  2  0
 10 11  1  0
 11 12  2  0
 12 13  1  0
 13 14  2  0
 14 15  1  0
 15 16  2  0
 16 17  1  0
 17 18  2  0
 18 19  1  0
 19 20  1  0
 20 21  1  0
 21 22  1  0
 22 23  1  0
 23 24  2  0
 23 25  1  0
 25 26  1  0
 26 27  2  0
 19 28  1  0
 28 29  2  0
 16 30  1  0
 30 31  2  0
  5 32  1  0
 32 33  2  0
 33  3  1  0
 31  9  1  0
 30 12  1  0
 29 17  1  0
 26 20  1  0
  1 34  1  0
  1 35  1  0
  1 36  1  0
  2 37  1  0
  2 38  1  0
  4 39  1  0
 10 40  1  0
 11 41  1  0
 13 42  1  0
 15 43  1  0
 18 44  1  0
 20 45  1  1
 21 46  1  0
 21 47  1  0
 22 48  1  0
 22 49  1  0
 25 50  1  0
 31 51  1  0
 32 52  1  0
M  END
>  <meeko>  (387) 
{"is_sidechain": [true], "free_energy": -10.87, "intermolecular_energy": 0.0, "internal_energy": -10.87, "cluster_size": 11, "cluster_id": 1, "rank_in_cluster": 1}

>  <_RMSD_MCS_to_ref>  (387) 
1.3430993179127815

$$$$
ligand
     RDKit          3D

 52 56  0  0  0  0  0  0  0  0999 V2000
   18.7970   18.8170    7.7190 C   0  0  0  0  0  0  0  0  0  0  0  0
   18.5280   17.3290    7.8810 C   0  0  0  0  0  0  0  0  0  0  0  0
   19.6910   16.5000    7.4590 C   0  0  0  0  0  0  0  0  0  0  0  0
   21.0030   16.5580    7.8870 C   0  0  0  0  0  0  0  0  0  0  0  0
   21.6210   15.5610    7.1920 N   0  0  0  0  0  0  0  0  0  0  0  0
   23.2140   15.0810    7.3610 S   0  0  0  0  0  6  0  0  0  0  0  0
   23.8750   16.1320    8.1060 O   0  0  0  0  0  0  0  0  0  0  0  0
   23.6620   14.6410    6.0560 O   0  0  0  0  0  0  0  0  0  0  0  0
   23.3410   13.6810    8.3760 C   0  0  0  0  0  0  0  0  0  0  0  0
   23.3160   12.4330    7.8200 N   0  0  0  0  0  0  0  0  0  0  0  0
   23.4890   11.4730    8.7360 N   0  0  0  0  0  0  0  0  0  0  0  0
   23.6150   12.0680    9.9130 N   0  0  0  0  0  0  0  0  0  0  0  0
   23.5030   13.4190    9.7200 C   0  0  0  0  0  0  0  0  0  0  0  0
   23.6420   14.3850   10.7860 C   0  0  0  0  0  0  0  0  0  0  0  0
   22.4710   14.9220   11.3720 C   0  0  0  0  0  0  0  0  0  0  0  0
   22.5480   15.8090   12.4480 C   0  0  0  0  0  0  0  0  0  0  0  0
   23.8060   16.1310   12.9140 C   0  0  0  0  0  0  0  0  0  0  0  0
   24.9730   15.6350   12.3380 C   0  0  0  0  0  0  0  0  0  0  0  0
   24.9090   14.7730   11.2550 C   0  0  0  0  0  0  0  0  0  0  0  0
   26.1630   16.1810   13.0540 C   0  0  0  0  0  0  0  0  0  0  0  0
   25.5610   16.9310   14.1480 N   0  0  0  0  0  0  0  0  0  0  0  0
   26.3650   17.7930   15.0080 C   0  0  2  0  0  0  0  0  0  0  0  0
   25.9040   17.8100   16.4650 C   0  0  0  0  0  0  0  0  0  0  0  0
   26.8410   18.6890   17.2790 C   0  0  0  0  0  0  0  0  0  0  0  0
   26.9130   20.0870   16.7090 C   0  0  0  0  0  0  0  0  0  0  0  0
   27.2450   21.0540   17.3900 O   0  0  0  0  0  0  0  0  0  0  0  0
   26.6720   20.2180   15.3650 N   0  0  0  0  0  0  0  0  0  0  0  0
   26.4370   19.2210   14.4460 C   0  0  0  0  0  0  0  0  0  0  0  0
   26.4000   19.4790   13.2430 O   0  0  0  0  0  0  0  0  0  0  0  0
   24.1830   17.0000   14.0340 C   0  0  0  0  0  0  0  0  0  0  0  0
   23.3960   17.6470   14.6980 O   0  0  0  0  0  0  0  0  0  0  0  0
   20.7280   14.9720    6.3570 C   0  0  0  0  0  0  0  0  0  0  0  0
   19.5350   15.5070    6.5100 N   0  0  0  0  0  0  0  0  0  0  0  0
   18.8815   19.2845    8.7111 H   0  0  0  0  0  0  0  0  0  0  0  0
   19.7359   18.9616    7.1643 H   0  0  0  0  0  0  0  0  0  0  0  0
   17.9682   19.2812    7.1643 H   0  0  0  0  0  0  0  0  0  0  0  0
   18.3096   17.1212    8.9389 H   0  0  0  0  0  0  0  0  0  0  0  0
   17.6746   17.0672    7.2383 H   0  0  0  0  0  0  0  0  0  0  0  0
   21.4466   17.2487    8.6192 H   0  0  0  0  0  0  0  0  0  0  0  0
   23.1801   12.2526    6.8151 H   0  0  0  0  0  0  0  0  0  0  0  0
   21.4860   14.6366   10.9742 H   0  0  0  0  0  0  0  0  0  0  0  0
   21.6423   16.2337   12.9054 H   0  0  0  0  0  0  0  0  0  0  0  0
   25.8263   14.4018   10.7746 H   0  0  0  0  0  0  0  0  0  0  0  0
   26.8038   15.3714   13.4333 H   0  0  0  0  0  0  0  0  0  0  0  0
   26.8163   16.7915   12.4133 H   0  0  0  0  0  0  0  0  0  0  0  0
   27.3740   17.3549   15.0103 H   0  0  0  0  0  0  0  0  0  0  0  0
   24.8815   18.2115   16.5221 H   0  0  0  0  0  0  0  0  0  0  0  0
   25.9170   16.7863   16.8674 H   0  0  0  0  0  0  0  0  0  0  0  0
   26.4736   18.7423   18.3145 H   0  0  0  0  0  0  0  0  0  0  0  0
   27.8481   18.2477   17.2466 H   0  0  0  0  0  0  0  0  0  0  0  0
   26.6662   21.1807   14.9987 H   0  0  0  0  0  0  0  0  0  0  0  0
   20.9672   14.1621    5.6521 H   0  0  0  0  0  0  0  0  0  0  0  0
  1  2  1  0
  2  3  1  0
  3  4  2  0
  4  5  1  0
  5  6  1  0
  6  7  2  0
  6  8  2  0
  6  9  1  0
  9 10  1  0
 10 11  1  0
 11 12  2  0
 12 13  1  0
 13 14  1  0
 14 15  2  0
 15 16  1  0
 16 17  2  0
 17 18  1  0
 18 19  2  0
 18 20  1  0
 20 21  1  0
 21 22  1  0
 22 23  1  0
 23 24  1  0
 24 25  1  0
 25 26  2  0
 25 27  1  0
 27 28  1  0
 28 29  2  0
 21 30  1  0
 30 31  2  0
  5 32  1  0
 32 33  2  0
 33  3  1  0
 13  9  2  0
 19 14  1  0
 28 22  1  0
 30 17  1  0
  1 34  1  0
  1 35  1  0
  1 36  1  0
  2 37  1  0
  2 38  1  0
  4 39  1  0
 10 40  1  0
 15 41  1  0
 16 42  1  0
 19 43  1  0
 20 44  1  0
 20 45  1  0
 22 46  1  1
 23 47  1  0
 23 48  1  0
 24 49  1  0
 24 50  1  0
 27 51  1  0
 32 52  1  0
M  END
>  <meeko>  (388) 
{"is_sidechain": [true], "free_energy": -10.87, "intermolecular_energy": 0.0, "internal_energy": -10.87, "cluster_size": 20, "cluster_id": 1, "rank_in_cluster": 1}

>  <_RMSD_MCS_to_ref>  (388) 
1.0094032340392458

$$$$
ligand
     RDKit          3D

 52 56  0  0  0  0  0  0  0  0999 V2000
   18.7970   18.8170    7.7190 C   0  0  0  0  0  0  0  0  0  0  0  0
   18.5280   17.3290    7.8810 C   0  0  0  0  0  0  0  0  0  0  0  0
   19.7830   16.5440    8.0310 C   0  0  0  0  0  0  0  0  0  0  0  0
   20.2690   15.8870    9.1440 C   0  0  0  0  0  0  0  0  0  0  0  0
   21.4540   15.3520    8.7260 N   0  0  0  0  0  0  0  0  0  0  0  0
   22.3960   14.2660    9.5940 S   0  0  0  0  0  6  0  0  0  0  0  0
   22.3610   13.0160    8.8590 O   0  0  0  0  0  0  0  0  0  0  0  0
   23.6320   14.9690    9.8850 O   0  0  0  0  0  0  0  0  0  0  0  0
   21.5090   14.0590   11.1170 C   0  0  0  0  0  0  0  0  0  0  0  0
   20.2250   13.4830   11.0730 C   0  0  0  0  0  0  0  0  0  0  0  0
   19.5290   13.3360   12.2520 C   0  0  0  0  0  0  0  0  0  0  0  0
   20.0490   13.7250   13.4660 C   0  0  0  0  0  0  0  0  0  0  0  0
   21.3240   14.2840   13.5640 C   0  0  0  0  0  0  0  0  0  0  0  0
   22.1410   14.7710   14.6180 C   0  0  0  0  0  0  0  0  0  0  0  0
   23.3380   15.2060   14.0740 C   0  0  0  0  0  0  0  0  0  0  0  0
   24.5220   15.7850   14.6670 C   0  0  0  0  0  0  0  0  0  0  0  0
   25.5060   15.1130   14.9580 O   0  0  0  0  0  0  0  0  0  0  0  0
   24.4800   17.1420   14.8690 N   0  0  0  0  0  0  0  0  0  0  0  0
   25.6440   17.8840   15.3270 C   0  0  2  0  0  0  0  0  0  0  0  0
   25.7880   17.8560   16.8450 C   0  0  0  0  0  0  0  0  0  0  0  0
   27.0000   18.6790   17.2540 C   0  0  0  0  0  0  0  0  0  0  0  0
   26.9110   20.0910   16.7220 C   0  0  0  0  0  0  0  0  0  0  0  0
   27.3570   21.0550   17.3340 O   0  0  0  0  0  0  0  0  0  0  0  0
   26.3270   20.2460   15.4900 N   0  0  0  0  0  0  0  0  0  0  0  0
   25.5070   19.3380   14.8670 C   0  0  0  0  0  0  0  0  0  0  0  0
   24.7230   19.6880   13.9850 O   0  0  0  0  0  0  0  0  0  0  0  0
   23.2600   14.9770   12.7170 N   0  0  0  0  0  0  0  0  0  0  0  0
   22.0400   14.4350   12.3730 C   0  0  0  0  0  0  0  0  0  0  0  0
   19.1760   13.4830   14.5050 O   0  0  0  0  0  0  0  0  0  0  0  0
   18.0660   12.9010   13.7920 C   0  0  0  0  0  0  0  0  0  0  0  0
   18.2810   12.8060   12.3670 O   0  0  0  0  0  0  0  0  0  0  0  0
   21.6360   15.6440    7.4140 C   0  0  0  0  0  0  0  0  0  0  0  0
   20.6410   16.3790    6.9620 N   0  0  0  0  0  0  0  0  0  0  0  0
   18.8815   19.2845    8.7111 H   0  0  0  0  0  0  0  0  0  0  0  0
   19.7359   18.9616    7.1643 H   0  0  0  0  0  0  0  0  0  0  0  0
   17.9682   19.2812    7.1643 H   0  0  0  0  0  0  0  0  0  0  0  0
   17.9059   17.1768    8.7753 H   0  0  0  0  0  0  0  0  0  0  0  0
   18.0164   16.9775    6.9729 H   0  0  0  0  0  0  0  0  0  0  0  0
   19.8073   15.8117   10.1396 H   0  0  0  0  0  0  0  0  0  0  0  0
   19.7874   13.1575   10.1177 H   0  0  0  0  0  0  0  0  0  0  0  0
   21.8698   14.7982   15.6837 H   0  0  0  0  0  0  0  0  0  0  0  0
   23.6007   17.6483   14.6915 H   0  0  0  0  0  0  0  0  0  0  0  0
   26.5396   17.4099   14.8991 H   0  0  0  0  0  0  0  0  0  0  0  0
   24.8841   18.2797   17.3070 H   0  0  0  0  0  0  0  0  0  0  0  0
   25.9192   16.8172   17.1820 H   0  0  0  0  0  0  0  0  0  0  0  0
   27.0560   18.7128   18.3521 H   0  0  0  0  0  0  0  0  0  0  0  0
   27.8990   18.2056   16.8325 H   0  0  0  0  0  0  0  0  0  0  0  0
   26.5215   21.1234   14.9868 H   0  0  0  0  0  0  0  0  0  0  0  0
   24.0148   15.1839   12.0474 H   0  0  0  0  0  0  0  0  0  0  0  0
   17.8918   11.8888   14.1858 H   0  0  0  0  0  0  0  0  0  0  0  0
   17.2012   13.5634   13.9446 H   0  0  0  0  0  0  0  0  0  0  0  0
   22.4948   15.3131    6.8116 H   0  0  0  0  0  0  0  0  0  0  0  0
  1  2  1  0
  2  3  1  0
  3  4  2  0
  4  5  1  0
  5  6  1  0
  6  7  2  0
  6  8  2  0
  6  9  1  0
  9 10  2  0
 10 11  1  0
 11 12  2  0
 12 13  1  0
 13 14  1  0
 14 15  2  0
 15 16  1  0
 16 17  2  0
 16 18  1  0
 18 19  1  0
 19 20  1  0
 20 21  1  0
 21 22  1  0
 22 23  2  0
 22 24  1  0
 24 25  1  0
 25 26  2  0
 15 27  1  0
 27 28  1  0
 12 29  1  0
 29 30  1  0
 30 31  1  0
  5 32  1  0
 32 33  2  0
 33  3  1  0
 28  9  1  0
 31 11  1  0
 28 13  2  0
 25 19  1  0
  1 34  1  0
  1 35  1  0
  1 36  1  0
  2 37  1  0
  2 38  1  0
  4 39  1  0
 10 40  1  0
 14 41  1  0
 18 42  1  0
 19 43  1  6
 20 44  1  0
 20 45  1  0
 21 46  1  0
 21 47  1  0
 24 48  1  0
 27 49  1  0
 30 50  1  0
 30 51  1  0
 32 52  1  0
M  END
>  <meeko>  (389) 
{"is_sidechain": [true], "free_energy": -10.87, "intermolecular_energy": 0.0, "internal_energy": -10.87, "cluster_size": 14, "cluster_id": 1, "rank_in_cluster": 1}

>  <_RMSD_MCS_to_ref>  (389) 
0.594680691632072

$$$$
ligand
     RDKit          3D

 55 59  0  0  0  0  0  0  0  0999 V2000
   18.7970   18.8170    7.7190 C   0  0  0  0  0  0  0  0  0  0  0  0
   18.5280   17.3290    7.8810 C   0  0  0  0  0  0  0  0  0  0  0  0
   19.7180   16.5020    7.5470 C   0  0  0  0  0  0  0  0  0  0  0  0
   20.8770   16.3120    8.2780 C   0  0  0  0  0  0  0  0  0  0  0  0
   21.6370   15.4950    7.4900 N   0  0  0  0  0  0  0  0  0  0  0  0
   23.0810   14.7660    7.9340 S   0  0  0  0  0  6  0  0  0  0  0  0
   22.8090   13.3430    7.8170 O   0  0  0  0  0  0  0  0  0  0  0  0
   24.1360   15.3870    7.1570 O   0  0  0  0  0  0  0  0  0  0  0  0
   23.3480   15.1320    9.6600 C   0  0  0  0  0  0  0  0  0  0  0  0
   24.5450   15.8040    9.9940 C   0  0  0  0  0  0  0  0  0  0  0  0
   24.7530   16.1630   11.3130 C   0  0  0  0  0  0  0  0  0  0  0  0
   23.7910   15.8730   12.2720 C   0  0  0  0  0  0  0  0  0  0  0  0
   22.6040   15.2310   11.9730 C   0  0  0  0  0  0  0  0  0  0  0  0
   22.3590   14.8450   10.6390 C   0  0  0  0  0  0  0  0  0  0  0  0
   21.1130   14.1380   10.3390 C   0  0  0  0  0  0  0  0  0  0  0  0
   21.0810   12.8180    9.8990 C   0  0  0  0  0  0  0  0  0  0  0  0
   19.8490   12.2370    9.6150 C   0  0  0  0  0  0  0  0  0  0  0  0
   18.6880   12.9870    9.7690 C   0  0  0  0  0  0  0  0  0  0  0  0
   18.8110   14.2950   10.2060 C   0  0  0  0  0  0  0  0  0  0  0  0
   19.9950   14.8820   10.4940 N   0  0  0  0  0  0  0  0  0  0  0  0
   24.2690   16.3740   13.5650 C   0  0  0  0  0  0  0  0  0  0  0  0
   23.6220   16.3520   14.5930 O   0  0  0  0  0  0  0  0  0  0  0  0
   25.5450   16.8750   13.3530 N   0  0  0  0  0  0  0  0  0  0  0  0
   26.2790   17.6820   14.3220 C   0  0  2  0  0  0  0  0  0  0  0  0
   25.8080   17.4940   15.7650 C   0  0  0  0  0  0  0  0  0  0  0  0
   26.6770   18.3300   16.6910 C   0  0  0  0  0  0  0  0  0  0  0  0
   26.6580   19.7880   16.2940 C   0  0  0  0  0  0  0  0  0  0  0  0
   26.9100   20.6870   17.0910 O   0  0  0  0  0  0  0  0  0  0  0  0
   26.4250   20.0620   14.9690 N   0  0  0  0  0  0  0  0  0  0  0  0
   26.2520   19.1690   13.9370 C   0  0  0  0  0  0  0  0  0  0  0  0
   26.1860   19.5670   12.7740 O   0  0  0  0  0  0  0  0  0  0  0  0
   25.8950   16.8900   11.9390 C   0  0  0  0  0  0  0  0  0  0  0  0
   20.9140   15.1370    6.3960 C   0  0  0  0  0  0  0  0  0  0  0  0
   19.7550   15.7640    6.3800 N   0  0  0  0  0  0  0  0  0  0  0  0
   18.8815   19.2845    8.7111 H   0  0  0  0  0  0  0  0  0  0  0  0
   19.7359   18.9616    7.1643 H   0  0  0  0  0  0  0  0  0  0  0  0
   17.9682   19.2812    7.1643 H   0  0  0  0  0  0  0  0  0  0  0  0
   18.2421   17.1326    8.9249 H   0  0  0  0  0  0  0  0  0  0  0  0
   17.7210   17.0547    7.1857 H   0  0  0  0  0  0  0  0  0  0  0  0
   21.1287   16.7240    9.2664 H   0  0  0  0  0  0  0  0  0  0  0  0
   25.2941   16.0362    9.2227 H   0  0  0  0  0  0  0  0  0  0  0  0
   21.8644   15.0251   12.7608 H   0  0  0  0  0  0  0  0  0  0  0  0
   22.0121   12.2449    9.7780 H   0  0  0  0  0  0  0  0  0  0  0  0
   19.7938   11.1934    9.2716 H   0  0  0  0  0  0  0  0  0  0  0  0
   17.7009   12.5537    9.5500 H   0  0  0  0  0  0  0  0  0  0  0  0
   17.8939   14.8905   10.3257 H   0  0  0  0  0  0  0  0  0  0  0  0
   27.3159   17.3167   14.2861 H   0  0  0  0  0  0  0  0  0  0  0  0
   24.7601   17.8164   15.8543 H   0  0  0  0  0  0  0  0  0  0  0  0
   25.8883   16.4328   16.0432 H   0  0  0  0  0  0  0  0  0  0  0  0
   26.3000   18.2338   17.7199 H   0  0  0  0  0  0  0  0  0  0  0  0
   27.7120   17.9643   16.6200 H   0  0  0  0  0  0  0  0  0  0  0  0
   26.3734   21.0592   14.7165 H   0  0  0  0  0  0  0  0  0  0  0  0
   25.9665   17.9197   11.5586 H   0  0  0  0  0  0  0  0  0  0  0  0
   26.8732   16.4343   11.7257 H   0  0  0  0  0  0  0  0  0  0  0  0
   21.2499   14.4227    5.6299 H   0  0  0  0  0  0  0  0  0  0  0  0
  1  2  1  0
  2  3  1  0
  3  4  2  0
  4  5  1  0
  5  6  1  0
  6  7  2  0
  6  8  2  0
  6  9  1  0
  9 10  2  0
 10 11  1  0
 11 12  2  0
 12 13  1  0
 13 14  2  0
 14 15  1  0
 15 16  2  0
 16 17  1  0
 17 18  2  0
 18 19  1  0
 19 20  2  0
 12 21  1  0
 21 22  2  0
 21 23  1  0
 23 24  1  0
 24 25  1  0
 25 26  1  0
 26 27  1  0
 27 28  2  0
 27 29  1  0
 29 30  1  0
 30 31  2  0
 23 32  1  0
  5 33  1  0
 33 34  2  0
 34  3  1  0
 14  9  1  0
 20 15  1  0
 30 24  1  0
 32 11  1  0
  1 35  1  0
  1 36  1  0
  1 37  1  0
  2 38  1  0
  2 39  1  0
  4 40  1  0
 10 41  1  0
 13 42  1  0
 16 43  1  0
 17 44  1  0
 18 45  1  0
 19 46  1  0
 24 47  1  1
 25 48  1  0
 25 49  1  0
 26 50  1  0
 26 51  1  0
 29 52  1  0
 32 53  1  0
 32 54  1  0
 33 55  1  0
M  END
>  <meeko>  (390) 
{"is_sidechain": [true], "free_energy": -10.87, "intermolecular_energy": 0.0, "internal_energy": -10.87, "cluster_size": 14, "cluster_id": 1, "rank_in_cluster": 1}

>  <_RMSD_MCS_to_ref>  (390) 
0.9410555539156844

$$$$
ligand
     RDKit          3D

 55 59  0  0  0  0  0  0  0  0999 V2000
   18.7970   18.8160    7.7190 C   0  0  0  0  0  0  0  0  0  0  0  0
   18.5280   17.3300    7.8810 C   0  0  0  0  0  0  0  0  0  0  0  0
   19.7480   16.5070    7.6610 C   0  0  0  0  0  0  0  0  0  0  0  0
   20.9540   16.5580    8.3320 C   0  0  0  0  0  0  0  0  0  0  0  0
   21.7130   15.6010    7.7240 N   0  0  0  0  0  0  0  0  0  0  0  0
   23.3100   15.2180    8.0650 S   0  0  0  0  0  6  0  0  0  0  0  0
   24.0220   15.2440    6.8010 O   0  0  0  0  0  0  0  0  0  0  0  0
   23.6460   16.1270    9.1480 O   0  0  0  0  0  0  0  0  0  0  0  0
   23.2550   13.5380    8.6710 C   0  0  0  0  0  0  0  0  0  0  0  0
   23.1420   12.6380    7.6510 N   0  0  0  0  0  0  0  0  0  0  0  0
   23.0930   11.3340    7.9810 C   0  0  0  0  0  0  0  0  0  0  0  0
   23.1610   10.8810    9.2830 C   0  0  0  0  0  0  0  0  0  0  0  0
   23.2840   11.8210   10.3060 C   0  0  0  0  0  0  0  0  0  0  0  0
   23.3350   13.1980   10.0240 C   0  0  0  0  0  0  0  0  0  0  0  0
   23.4730   14.1360   11.1420 C   0  0  0  0  0  0  0  0  0  0  0  0
   22.3380   14.5770   11.8640 C   0  0  0  0  0  0  0  0  0  0  0  0
   22.4580   15.4580   12.9440 C   0  0  0  0  0  0  0  0  0  0  0  0
   23.7310   15.8680   13.2910 C   0  0  0  0  0  0  0  0  0  0  0  0
   24.8670   15.4430   12.6100 C   0  0  0  0  0  0  0  0  0  0  0  0
   24.7550   14.5760   11.5360 C   0  0  0  0  0  0  0  0  0  0  0  0
   26.0810   16.0720   13.2060 C   0  0  0  0  0  0  0  0  0  0  0  0
   25.5400   16.7840   14.3550 N   0  0  0  0  0  0  0  0  0  0  0  0
   26.3630   17.6950   15.1440 C   0  0  2  0  0  0  0  0  0  0  0  0
   25.9620   17.7620   16.6180 C   0  0  0  0  0  0  0  0  0  0  0  0
   26.9160   18.6840   17.3590 C   0  0  0  0  0  0  0  0  0  0  0  0
   26.9430   20.0600   16.7350 C   0  0  0  0  0  0  0  0  0  0  0  0
   27.2870   21.0570   17.3640 O   0  0  0  0  0  0  0  0  0  0  0  0
   26.6440   20.1370   15.3970 N   0  0  0  0  0  0  0  0  0  0  0  0
   26.3880   19.1020   14.5280 C   0  0  0  0  0  0  0  0  0  0  0  0
   26.2980   19.3150   13.3200 O   0  0  0  0  0  0  0  0  0  0  0  0
   24.1530   16.7670   14.3700 C   0  0  0  0  0  0  0  0  0  0  0  0
   23.3970   17.3710   15.1050 O   0  0  0  0  0  0  0  0  0  0  0  0
   20.9700   14.9750    6.7760 C   0  0  0  0  0  0  0  0  0  0  0  0
   19.7830   15.5350    6.6760 N   0  0  0  0  0  0  0  0  0  0  0  0
   18.8816   19.2836    8.7111 H   0  0  0  0  0  0  0  0  0  0  0  0
   19.7359   18.9603    7.1643 H   0  0  0  0  0  0  0  0  0  0  0  0
   17.9683   19.2803    7.1643 H   0  0  0  0  0  0  0  0  0  0  0  0
   18.1571   17.1469    8.9003 H   0  0  0  0  0  0  0  0  0  0  0  0
   17.7849   17.0385    7.1241 H   0  0  0  0  0  0  0  0  0  0  0  0
   21.2374   17.2182    9.1649 H   0  0  0  0  0  0  0  0  0  0  0  0
   22.9939   10.5933    7.1738 H   0  0  0  0  0  0  0  0  0  0  0  0
   23.1192    9.8051    9.5083 H   0  0  0  0  0  0  0  0  0  0  0  0
   23.3421   11.4799   11.3502 H   0  0  0  0  0  0  0  0  0  0  0  0
   21.3404   14.2193   11.5695 H   0  0  0  0  0  0  0  0  0  0  0  0
   21.5737   15.8104   13.4952 H   0  0  0  0  0  0  0  0  0  0  0  0
   25.6518   14.2352   10.9979 H   0  0  0  0  0  0  0  0  0  0  0  0
   26.8099   15.3098   13.5187 H   0  0  0  0  0  0  0  0  0  0  0  0
   26.6247   16.7226   12.5052 H   0  0  0  0  0  0  0  0  0  0  0  0
   27.3789   17.2742   15.1160 H   0  0  0  0  0  0  0  0  0  0  0  0
   24.9364   18.1507   16.7021 H   0  0  0  0  0  0  0  0  0  0  0  0
   26.0085   16.7548   17.0577 H   0  0  0  0  0  0  0  0  0  0  0  0
   26.5897   18.7713   18.4059 H   0  0  0  0  0  0  0  0  0  0  0  0
   27.9278   18.2563   17.3019 H   0  0  0  0  0  0  0  0  0  0  0  0
   26.6069   21.0848   14.9954 H   0  0  0  0  0  0  0  0  0  0  0  0
   21.3121   14.1193    6.1753 H   0  0  0  0  0  0  0  0  0  0  0  0
  1  2  1  0
  2  3  1  0
  3  4  2  0
  4  5  1  0
  5  6  1  0
  6  7  2  0
  6  8  2  0
  6  9  1  0
  9 10  2  0
 10 11  1  0
 11 12  2  0
 12 13  1  0
 13 14  2  0
 14 15  1  0
 15 16  2  0
 16 17  1  0
 17 18  2  0
 18 19  1  0
 19 20  2  0
 19 21  1  0
 21 22  1  0
 22 23  1  0
 23 24  1  0
 24 25  1  0
 25 26  1  0
 26 27  2  0
 26 28  1  0
 28 29  1  0
 29 30  2  0
 22 31  1  0
 31 32  2  0
  5 33  1  0
 33 34  2  0
 34  3  1  0
 14  9  1  0
 20 15  1  0
 29 23  1  0
 31 18  1  0
  1 35  1  0
  1 36  1  0
  1 37  1  0
  2 38  1  0
  2 39  1  0
  4 40  1  0
 11 41  1  0
 12 42  1  0
 13 43  1  0
 16 44  1  0
 17 45  1  0
 20 46  1  0
 21 47  1  0
 21 48  1  0
 23 49  1  1
 24 50  1  0
 24 51  1  0
 25 52  1  0
 25 53  1  0
 28 54  1  0
 33 55  1  0
M  END
>  <meeko>  (391) 
{"is_sidechain": [true], "free_energy": -10.87, "intermolecular_energy": 0.0, "internal_energy": -10.87, "cluster_size": 18, "cluster_id": 1, "rank_in_cluster": 1}

>  <_RMSD_MCS_to_ref>  (391) 
1.180024105215181

$$$$
ligand
     RDKit          3D

 54 58  0  0  0  0  0  0  0  0999 V2000
   18.7970   18.8170    7.7190 C   0  0  0  0  0  0  0  0  0  0  0  0
   18.5280   17.3290    7.8810 C   0  0  0  0  0  0  0  0  0  0  0  0
   19.6510   16.4960    7.3720 C   0  0  0  0  0  0  0  0  0  0  0  0
   20.9750   16.4890    7.7650 C   0  0  0  0  0  0  0  0  0  0  0  0
   21.5580   15.5520    6.9630 N   0  0  0  0  0  0  0  0  0  0  0  0
   23.1140   14.9390    7.1310 S   0  0  0  0  0  6  0  0  0  0  0  0
   24.0070   16.0720    6.9870 O   0  0  0  0  0  0  0  0  0  0  0  0
   23.1770   13.7830    6.2590 O   0  0  0  0  0  0  0  0  0  0  0  0
   23.1620   14.3890    8.8150 C   0  0  0  0  0  0  0  0  0  0  0  0
   22.4250   13.2650    9.1960 C   0  0  0  0  0  0  0  0  0  0  0  0
   22.4630   12.8340   10.5220 C   0  0  0  0  0  0  0  0  0  0  0  0
   23.2480   13.5330   11.4620 C   0  0  0  0  0  0  0  0  0  0  0  0
   24.0070   14.6660   11.0760 C   0  0  0  0  0  0  0  0  0  0  0  0
   23.9570   15.0820    9.7390 C   0  0  0  0  0  0  0  0  0  0  0  0
   24.7860   15.3480   12.0230 C   0  0  0  0  0  0  0  0  0  0  0  0
   24.8390   14.9380   13.3700 C   0  0  0  0  0  0  0  0  0  0  0  0
   25.6750   15.7040   14.3280 C   0  0  0  0  0  0  0  0  0  0  0  0
   26.3070   15.1180   15.2020 O   0  0  0  0  0  0  0  0  0  0  0  0
   25.7050   17.0710   14.1830 N   0  0  0  0  0  0  0  0  0  0  0  0
   26.5390   17.9200   15.0120 C   0  0  2  0  0  0  0  0  0  0  0  0
   26.2020   17.7650   16.4920 C   0  0  0  0  0  0  0  0  0  0  0  0
   27.1010   18.6720   17.3180 C   0  0  0  0  0  0  0  0  0  0  0  0
   26.9890   20.1090   16.8690 C   0  0  0  0  0  0  0  0  0  0  0  0
   27.1000   21.0520   17.6460 O   0  0  0  0  0  0  0  0  0  0  0  0
   26.7880   20.3190   15.5290 N   0  0  0  0  0  0  0  0  0  0  0  0
   26.3600   19.3900   14.6090 C   0  0  0  0  0  0  0  0  0  0  0  0
   25.8930   19.7500   13.5310 O   0  0  0  0  0  0  0  0  0  0  0  0
   24.0930   13.8120   13.7640 C   0  0  0  0  0  0  0  0  0  0  0  0
   23.9740   13.2080   15.0010 N   0  0  0  0  0  0  0  0  0  0  0  0
   23.1530   12.2010   14.8250 C   0  0  0  0  0  0  0  0  0  0  0  0
   22.7330   12.1160   13.5290 N   0  0  0  0  0  0  0  0  0  0  0  0
   23.3190   13.1380   12.8180 C   0  0  0  0  0  0  0  0  0  0  0  0
   20.6110   14.9990    6.1630 C   0  0  0  0  0  0  0  0  0  0  0  0
   19.4390   15.5590    6.3800 N   0  0  0  0  0  0  0  0  0  0  0  0
   18.8815   19.2845    8.7111 H   0  0  0  0  0  0  0  0  0  0  0  0
   19.7359   18.9616    7.1643 H   0  0  0  0  0  0  0  0  0  0  0  0
   17.9682   19.2812    7.1643 H   0  0  0  0  0  0  0  0  0  0  0  0
   18.3801   17.1100    8.9488 H   0  0  0  0  0  0  0  0  0  0  0  0
   17.6313   17.0821    7.2937 H   0  0  0  0  0  0  0  0  0  0  0  0
   21.4509   17.0997    8.5464 H   0  0  0  0  0  0  0  0  0  0  0  0
   21.8187   12.7234    8.4551 H   0  0  0  0  0  0  0  0  0  0  0  0
   21.8831   11.9526   10.8331 H   0  0  0  0  0  0  0  0  0  0  0  0
   24.5428   15.9543    9.4135 H   0  0  0  0  0  0  0  0  0  0  0  0
   25.3699   16.2246   11.7059 H   0  0  0  0  0  0  0  0  0  0  0  0
   25.1146   17.5073   13.4605 H   0  0  0  0  0  0  0  0  0  0  0  0
   27.5829   17.6101   14.8566 H   0  0  0  0  0  0  0  0  0  0  0  0
   25.1505   18.0415   16.6589 H   0  0  0  0  0  0  0  0  0  0  0  0
   26.3605   16.7195   16.7951 H   0  0  0  0  0  0  0  0  0  0  0  0
   26.8061   18.6027   18.3755 H   0  0  0  0  0  0  0  0  0  0  0  0
   28.1428   18.3456   17.1832 H   0  0  0  0  0  0  0  0  0  0  0  0
   26.9764   21.2679   15.1756 H   0  0  0  0  0  0  0  0  0  0  0  0
   22.8414   11.5105   15.6226 H   0  0  0  0  0  0  0  0  0  0  0  0
   22.0883   11.4085   13.1487 H   0  0  0  0  0  0  0  0  0  0  0  0
   20.7966   14.1954    5.4352 H   0  0  0  0  0  0  0  0  0  0  0  0
  1  2  1  0
  2  3  1  0
  3  4  2  0
  4  5  1  0
  5  6  1  0
  6  7  2  0
  6  8  2  0
  6  9  1  0
  9 10  2  0
 10 11  1  0
 11 12  2  0
 12 13  1  0
 13 14  2  0
 13 15  1  0
 15 16  2  0
 16 17  1  0
 17 18  2  0
 17 19  1  0
 19 20  1  0
 20 21  1  0
 21 22  1  0
 22 23  1  0
 23 24  2  0
 23 25  1  0
 25 26  1  0
 26 27  2  0
 16 28  1  0
 28 29  1  0
 29 30  2  0
 30 31  1  0
 31 32  1  0
  5 33  1  0
 33 34  2  0
 34  3  1  0
 14  9  1  0
 26 20  1  0
 32 28  2  0
 32 12  1  0
  1 35  1  0
  1 36  1  0
  1 37  1  0
  2 38  1  0
  2 39  1  0
  4 40  1  0
 10 41  1  0
 11 42  1  0
 14 43  1  0
 15 44  1  0
 19 45  1  0
 20 46  1  1
 21 47  1  0
 21 48  1  0
 22 49  1  0
 22 50  1  0
 25 51  1  0
 30 52  1  0
 31 53  1  0
 33 54  1  0
M  END
>  <meeko>  (392) 
{"is_sidechain": [true], "free_energy": -10.87, "intermolecular_energy": 0.0, "internal_energy": -10.87, "cluster_size": 11, "cluster_id": 1, "rank_in_cluster": 1}

>  <_RMSD_MCS_to_ref>  (392) 
0.9118733464686857

$$$$
ligand
     RDKit          3D

 56 60  0  0  0  0  0  0  0  0999 V2000
   18.9090   19.1540    7.5370 C   0  0  0  0  0  0  0  0  0  0  0  0
   18.7730   17.6460    7.6780 C   0  0  0  0  0  0  0  0  0  0  0  0
   20.0730   16.9440    7.4960 C   0  0  0  0  0  0  0  0  0  0  0  0
   20.9630   16.5100    8.4580 C   0  0  0  0  0  0  0  0  0  0  0  0
   21.9540   15.9040    7.7450 N   0  0  0  0  0  0  0  0  0  0  0  0
   23.3030   15.1220    8.3590 S   0  0  0  0  0  6  0  0  0  0  0  0
   24.4680   15.7210    7.7390 O   0  0  0  0  0  0  0  0  0  0  0  0
   22.9910   13.7120    8.2030 O   0  0  0  0  0  0  0  0  0  0  0  0
   23.3550   15.4770   10.1070 C   0  0  0  0  0  0  0  0  0  0  0  0
   24.2880   16.4570   10.5150 C   0  0  0  0  0  0  0  0  0  0  0  0
   24.3710   16.7720   11.8590 C   0  0  0  0  0  0  0  0  0  0  0  0
   23.5420   16.1380   12.7750 C   0  0  0  0  0  0  0  0  0  0  0  0
   22.6080   15.1870   12.4070 C   0  0  0  0  0  0  0  0  0  0  0  0
   22.5040   14.8370   11.0460 C   0  0  0  0  0  0  0  0  0  0  0  0
   21.4720   13.8420   10.7050 C   0  0  0  0  0  0  0  0  0  0  0  0
   20.0810   14.1910   10.4630 C   0  0  0  0  0  0  0  0  0  0  0  0
   19.1700   13.2570   10.1480 C   0  0  0  0  0  0  0  0  0  0  0  0
   19.5790   11.8330   10.0520 C   0  0  0  0  0  0  0  0  0  0  0  0
   18.7820   10.9600    9.7380 O   0  0  0  0  0  0  0  0  0  0  0  0
   20.8980   11.5770   10.3350 N   0  0  0  0  0  0  0  0  0  0  0  0
   21.8220   12.5420   10.6530 C   0  0  0  0  0  0  0  0  0  0  0  0
   23.8380   16.6720   14.1080 C   0  0  0  0  0  0  0  0  0  0  0  0
   23.2510   16.3650   15.1260 O   0  0  0  0  0  0  0  0  0  0  0  0
   24.8900   17.5640   13.9570 N   0  0  0  0  0  0  0  0  0  0  0  0
   25.2690   18.4860   15.0220 C   0  0  1  0  0  0  0  0  0  0  0  0
   26.3300   17.9040   15.9500 C   0  0  0  0  0  0  0  0  0  0  0  0
   26.6090   18.8890   17.0770 C   0  0  0  0  0  0  0  0  0  0  0  0
   27.0110   20.2390   16.5330 C   0  0  0  0  0  0  0  0  0  0  0  0
   27.8470   20.9470   17.0860 O   0  0  0  0  0  0  0  0  0  0  0  0
   26.3800   20.6540   15.3890 N   0  0  0  0  0  0  0  0  0  0  0  0
   25.7720   19.8310   14.4680 C   0  0  0  0  0  0  0  0  0  0  0  0
   25.6700   20.1780   13.2940 O   0  0  0  0  0  0  0  0  0  0  0  0
   25.2380   17.7700   12.5560 C   0  0  0  0  0  0  0  0  0  0  0  0
   21.7000   16.0410    6.4170 C   0  0  0  0  0  0  0  0  0  0  0  0
   20.5400   16.6360    6.2310 N   0  0  0  0  0  0  0  0  0  0  0  0
   18.9504   19.6134    8.5356 H   0  0  0  0  0  0  0  0  0  0  0  0
   19.8320   19.3891    6.9867 H   0  0  0  0  0  0  0  0  0  0  0  0
   18.0430   19.5504    6.9867 H   0  0  0  0  0  0  0  0  0  0  0  0
   18.3848   17.4178    8.6816 H   0  0  0  0  0  0  0  0  0  0  0  0
   18.0869   17.2943    6.8934 H   0  0  0  0  0  0  0  0  0  0  0  0
   20.8893   16.6265    9.5493 H   0  0  0  0  0  0  0  0  0  0  0  0
   24.9342   16.9584    9.7794 H   0  0  0  0  0  0  0  0  0  0  0  0
   21.9605   14.7141   13.1601 H   0  0  0  0  0  0  0  0  0  0  0  0
   19.7689   15.2430   10.5398 H   0  0  0  0  0  0  0  0  0  0  0  0
   18.1249   13.5453    9.9618 H   0  0  0  0  0  0  0  0  0  0  0  0
   21.2151   10.5974   10.3070 H   0  0  0  0  0  0  0  0  0  0  0  0
   22.8605   12.2500   10.8679 H   0  0  0  0  0  0  0  0  0  0  0  0
   24.3498   18.6545   15.6023 H   0  0  0  0  0  0  0  0  0  0  0  0
   25.9678   16.9552   16.3727 H   0  0  0  0  0  0  0  0  0  0  0  0
   27.2549   17.7215   15.3831 H   0  0  0  0  0  0  0  0  0  0  0  0
   25.7008   19.0035   17.6869 H   0  0  0  0  0  0  0  0  0  0  0  0
   27.4372   18.4973   17.6859 H   0  0  0  0  0  0  0  0  0  0  0  0
   26.3590   21.6668   15.2028 H   0  0  0  0  0  0  0  0  0  0  0  0
   25.0024   18.7951   12.2342 H   0  0  0  0  0  0  0  0  0  0  0  0
   26.3103   17.6424   12.3465 H   0  0  0  0  0  0  0  0  0  0  0  0
   22.3686   15.7028    5.6116 H   0  0  0  0  0  0  0  0  0  0  0  0
  1  2  1  0
  2  3  1  0
  3  4  2  0
  4  5  1  0
  5  6  1  0
  6  7  2  0
  6  8  2  0
  6  9  1  0
  9 10  2  0
 10 11  1  0
 11 12  2  0
 12 13  1  0
 13 14  2  0
 14 15  1  0
 15 16  1  0
 16 17  2  0
 17 18  1  0
 18 19  2  0
 18 20  1  0
 20 21  1  0
 12 22  1  0
 22 23  2  0
 22 24  1  0
 24 25  1  0
 25 26  1  0
 26 27  1  0
 27 28  1  0
 28 29  2  0
 28 30  1  0
 30 31  1  0
 31 32  2  0
 24 33  1  0
  5 34  1  0
 34 35  2  0
 35  3  1  0
 14  9  1  0
 21 15  2  0
 31 25  1  0
 33 11  1  0
  1 36  1  0
  1 37  1  0
  1 38  1  0
  2 39  1  0
  2 40  1  0
  4 41  1  0
 10 42  1  0
 13 43  1  0
 16 44  1  0
 17 45  1  0
 20 46  1  0
 21 47  1  0
 25 48  1  1
 26 49  1  0
 26 50  1  0
 27 51  1  0
 27 52  1  0
 30 53  1  0
 33 54  1  0
 33 55  1  0
 34 56  1  0
M  END
>  <meeko>  (393) 
{"is_sidechain": [true], "free_energy": -10.87, "intermolecular_energy": 0.0, "internal_energy": -10.87, "cluster_size": 14, "cluster_id": 1, "rank_in_cluster": 1}

>  <_RMSD_MCS_to_ref>  (393) 
0.9598354604363767

$$$$
ligand
     RDKit          3D

 47 50  0  0  0  0  0  0  0  0999 V2000
   18.9090   19.1540    7.5370 C   0  0  0  0  0  0  0  0  0  0  0  0
   18.7730   17.6460    7.6780 C   0  0  0  0  0  0  0  0  0  0  0  0
   20.0500   16.9370    7.3950 C   0  0  0  0  0  0  0  0  0  0  0  0
   20.6960   15.9750    8.1460 C   0  0  0  0  0  0  0  0  0  0  0  0
   21.8200   15.6880    7.4260 N   0  0  0  0  0  0  0  0  0  0  0  0
   22.9230   14.4730    7.7830 S   0  0  0  0  0  6  0  0  0  0  0  0
   22.1910   13.4340    8.4780 O   0  0  0  0  0  0  0  0  0  0  0  0
   23.6150   14.2230    6.5330 O   0  0  0  0  0  0  0  0  0  0  0  0
   24.0560   15.2320    8.9200 C   0  0  0  0  0  0  0  0  0  0  0  0
   25.2060   15.8440    8.3920 C   0  0  0  0  0  0  0  0  0  0  0  0
   26.1310   16.4580    9.2230 C   0  0  0  0  0  0  0  0  0  0  0  0
   25.9340   16.4720   10.6050 C   0  0  0  0  0  0  0  0  0  0  0  0
   24.7970   15.8550   11.1830 C   0  0  0  0  0  0  0  0  0  0  0  0
   24.3650   15.7200   12.5660 C   0  0  0  0  0  0  0  0  0  0  0  0
   25.0780   16.2480   13.7460 C   0  0  0  0  0  0  0  0  0  0  0  0
   25.3430   15.5730   14.7370 O   0  0  0  0  0  0  0  0  0  0  0  0
   25.4380   17.5740   13.6420 N   0  0  0  0  0  0  0  0  0  0  0  0
   26.2740   18.2380   14.6250 C   0  0  2  0  0  0  0  0  0  0  0  0
   25.8160   17.9510   16.0500 C   0  0  0  0  0  0  0  0  0  0  0  0
   26.7130   18.6890   17.0320 C   0  0  0  0  0  0  0  0  0  0  0  0
   26.7450   20.1700   16.7400 C   0  0  0  0  0  0  0  0  0  0  0  0
   26.8690   21.0120   17.6240 O   0  0  0  0  0  0  0  0  0  0  0  0
   26.6630   20.5390   15.4210 N   0  0  0  0  0  0  0  0  0  0  0  0
   26.2350   19.7500   14.3800 C   0  0  0  0  0  0  0  0  0  0  0  0
   25.8690   20.2500   13.3180 O   0  0  0  0  0  0  0  0  0  0  0  0
   23.2170   15.0570   12.7460 N   0  0  0  0  0  0  0  0  0  0  0  0
   22.6290   14.5680   11.2950 S   0  0  0  0  0  0  0  0  0  0  0  0
   23.8770   15.2390   10.3200 C   0  0  0  0  0  0  0  0  0  0  0  0
   21.8310   16.4380    6.2950 C   0  0  0  0  0  0  0  0  0  0  0  0
   20.7630   17.2070    6.2430 N   0  0  0  0  0  0  0  0  0  0  0  0
   18.9504   19.6134    8.5356 H   0  0  0  0  0  0  0  0  0  0  0  0
   19.8320   19.3891    6.9867 H   0  0  0  0  0  0  0  0  0  0  0  0
   18.0430   19.5504    6.9867 H   0  0  0  0  0  0  0  0  0  0  0  0
   18.4591   17.4134    8.7063 H   0  0  0  0  0  0  0  0  0  0  0  0
   18.0277   17.3044    6.9446 H   0  0  0  0  0  0  0  0  0  0  0  0
   20.3779   15.5396    9.1048 H   0  0  0  0  0  0  0  0  0  0  0  0
   25.3745   15.8358    7.3050 H   0  0  0  0  0  0  0  0  0  0  0  0
   27.0231   16.9357    8.7917 H   0  0  0  0  0  0  0  0  0  0  0  0
   26.6709   16.9684   11.2535 H   0  0  0  0  0  0  0  0  0  0  0  0
   25.1001   18.1159   12.8339 H   0  0  0  0  0  0  0  0  0  0  0  0
   27.2977   17.8511   14.5141 H   0  0  0  0  0  0  0  0  0  0  0  0
   24.7774   18.2906   16.1762 H   0  0  0  0  0  0  0  0  0  0  0  0
   25.8754   16.8696   16.2423 H   0  0  0  0  0  0  0  0  0  0  0  0
   26.3320   18.5331   18.0521 H   0  0  0  0  0  0  0  0  0  0  0  0
   27.7348   18.2937   16.9333 H   0  0  0  0  0  0  0  0  0  0  0  0
   26.9500   21.5005   15.1884 H   0  0  0  0  0  0  0  0  0  0  0  0
   22.6205   16.4079    5.5297 H   0  0  0  0  0  0  0  0  0  0  0  0
  1  2  1  0
  2  3  1  0
  3  4  2  0
  4  5  1  0
  5  6  1  0
  6  7  2  0
  6  8  2  0
  6  9  1  0
  9 10  2  0
 10 11  1  0
 11 12  2  0
 12 13  1  0
 13 14  1  0
 14 15  1  0
 15 16  2  0
 15 17  1  0
 17 18  1  0
 18 19  1  0
 19 20  1  0
 20 21  1  0
 21 22  2  0
 21 23  1  0
 23 24  1  0
 24 25  2  0
 14 26  2  0
 26 27  1  0
 27 28  1  0
  5 29  1  0
 29 30  2  0
 30  3  1  0
 28  9  1  0
 28 13  2  0
 24 18  1  0
  1 31  1  0
  1 32  1  0
  1 33  1  0
  2 34  1  0
  2 35  1  0
  4 36  1  0
 10 37  1  0
 11 38  1  0
 12 39  1  0
 17 40  1  0
 18 41  1  1
 19 42  1  0
 19 43  1  0
 20 44  1  0
 20 45  1  0
 23 46  1  0
 29 47  1  0
M  END
>  <meeko>  (394) 
{"is_sidechain": [true], "free_energy": -10.87, "intermolecular_energy": 0.0, "internal_energy": -10.87, "cluster_size": 19, "cluster_id": 1, "rank_in_cluster": 1}

>  <_RMSD_MCS_to_ref>  (394) 
0.8809647489479296

$$$$
ligand
     RDKit          3D

 46 49  0  0  0  0  0  0  0  0999 V2000
   18.9090   19.1540    7.5370 C   0  0  0  0  0  0  0  0  0  0  0  0
   18.7730   17.6460    7.6780 C   0  0  0  0  0  0  0  0  0  0  0  0
   20.0820   16.9490    7.5560 C   0  0  0  0  0  0  0  0  0  0  0  0
   20.5830   15.9020    8.3050 C   0  0  0  0  0  0  0  0  0  0  0  0
   21.8040   15.6470    7.7500 N   0  0  0  0  0  0  0  0  0  0  0  0
   22.9790   14.6300    8.3860 S   0  0  0  0  0  6  0  0  0  0  0  0
   22.3800   13.3120    8.4490 O   0  0  0  0  0  0  0  0  0  0  0  0
   24.1910   14.9020    7.6400 O   0  0  0  0  0  0  0  0  0  0  0  0
   23.1920   15.2250   10.0480 C   0  0  0  0  0  0  0  0  0  0  0  0
   22.3150   14.7810   11.0610 C   0  0  0  0  0  0  0  0  0  0  0  0
   22.4600   15.2470   12.3710 C   0  0  0  0  0  0  0  0  0  0  0  0
   23.4780   16.1520   12.6140 C   0  0  0  0  0  0  0  0  0  0  0  0
   24.3350   16.6060   11.6190 C   0  0  0  0  0  0  0  0  0  0  0  0
   24.2090   16.1530   10.3160 C   0  0  0  0  0  0  0  0  0  0  0  0
   25.3360   17.5690   12.1150 C   0  0  0  0  0  0  0  0  0  0  0  0
   26.2170   18.0670   11.4410 O   0  0  0  0  0  0  0  0  0  0  0  0
   25.1130   17.8140   13.4910 N   0  0  0  0  0  0  0  0  0  0  0  0
   26.0860   18.3960   14.4250 C   0  0  2  0  0  0  0  0  0  0  0  0
   25.7090   18.0530   15.8630 C   0  0  0  0  0  0  0  0  0  0  0  0
   26.7060   18.6940   16.8160 C   0  0  0  0  0  0  0  0  0  0  0  0
   26.7830   20.1880   16.6050 C   0  0  0  0  0  0  0  0  0  0  0  0
   27.0720   20.9640   17.5100 O   0  0  0  0  0  0  0  0  0  0  0  0
   26.5710   20.6380   15.3250 N   0  0  0  0  0  0  0  0  0  0  0  0
   26.1520   19.9100   14.2360 C   0  0  0  0  0  0  0  0  0  0  0  0
   25.8810   20.4740   13.1760 O   0  0  0  0  0  0  0  0  0  0  0  0
   23.8750   16.8800   14.1440 S   0  0  0  0  0  6  0  0  0  0  0  0
   22.7980   17.7580   14.5330 O   0  0  0  0  0  0  0  0  0  0  0  0
   24.4300   15.8700   15.0100 O   0  0  0  0  0  0  0  0  0  0  0  0
   22.0340   16.5370    6.7500 C   0  0  0  0  0  0  0  0  0  0  0  0
   21.0000   17.3390    6.6010 N   0  0  0  0  0  0  0  0  0  0  0  0
   18.9504   19.6134    8.5356 H   0  0  0  0  0  0  0  0  0  0  0  0
   19.8320   19.3891    6.9867 H   0  0  0  0  0  0  0  0  0  0  0  0
   18.0430   19.5504    6.9867 H   0  0  0  0  0  0  0  0  0  0  0  0
   18.3421   17.4200    8.6645 H   0  0  0  0  0  0  0  0  0  0  0  0
   18.1234   17.2884    6.8655 H   0  0  0  0  0  0  0  0  0  0  0  0
   20.1069   15.3905    9.1546 H   0  0  0  0  0  0  0  0  0  0  0  0
   21.5149   14.0660   10.8189 H   0  0  0  0  0  0  0  0  0  0  0  0
   21.7917   14.9078   13.1762 H   0  0  0  0  0  0  0  0  0  0  0  0
   24.8815   16.5078    9.5211 H   0  0  0  0  0  0  0  0  0  0  0  0
   27.0789   17.9715   14.2153 H   0  0  0  0  0  0  0  0  0  0  0  0
   24.6996   18.4337   16.0780 H   0  0  0  0  0  0  0  0  0  0  0  0
   25.7255   16.9611   15.9955 H   0  0  0  0  0  0  0  0  0  0  0  0
   26.3922   18.4938   17.8511 H   0  0  0  0  0  0  0  0  0  0  0  0
   27.6994   18.2637   16.6209 H   0  0  0  0  0  0  0  0  0  0  0  0
   26.7466   21.6396   15.1611 H   0  0  0  0  0  0  0  0  0  0  0  0
   22.9543   16.5816    6.1492 H   0  0  0  0  0  0  0  0  0  0  0  0
  1  2  1  0
  2  3  1  0
  3  4  2  0
  4  5  1  0
  5  6  1  0
  6  7  2  0
  6  8  2  0
  6  9  1  0
  9 10  2  0
 10 11  1  0
 11 12  2  0
 12 13  1  0
 13 14  2  0
 13 15  1  0
 15 16  2  0
 15 17  1  0
 17 18  1  0
 18 19  1  0
 19 20  1  0
 20 21  1  0
 21 22  2  0
 21 23  1  0
 23 24  1  0
 24 25  2  0
 17 26  1  0
 26 27  2  0
 26 28  2  0
  5 29  1  0
 29 30  2  0
 30  3  1  0
 14  9  1  0
 24 18  1  0
 26 12  1  0
  1 31  1  0
  1 32  1  0
  1 33  1  0
  2 34  1  0
  2 35  1  0
  4 36  1  0
 10 37  1  0
 11 38  1  0
 14 39  1  0
 18 40  1  6
 19 41  1  0
 19 42  1  0
 20 43  1  0
 20 44  1  0
 23 45  1  0
 29 46  1  0
M  END
>  <meeko>  (395) 
{"is_sidechain": [true], "free_energy": -10.87, "intermolecular_energy": 0.0, "internal_energy": -10.87, "cluster_size": 19, "cluster_id": 1, "rank_in_cluster": 1}

>  <_RMSD_MCS_to_ref>  (395) 
0.8065574306203427

$$$$
ligand
     RDKit          3D

 52 56  0  0  0  0  0  0  0  0999 V2000
   18.9090   19.1530    7.5370 C   0  0  0  0  0  0  0  0  0  0  0  0
   18.7730   17.6470    7.6780 C   0  0  0  0  0  0  0  0  0  0  0  0
   19.9200   16.9110    7.0790 C   0  0  0  0  0  0  0  0  0  0  0  0
   21.0640   16.4350    7.6920 C   0  0  0  0  0  0  0  0  0  0  0  0
   21.7850   15.8850    6.6740 N   0  0  0  0  0  0  0  0  0  0  0  0
   23.2240   15.0390    6.8040 S   0  0  0  0  0  6  0  0  0  0  0  0
   24.2250   15.9810    7.2630 O   0  0  0  0  0  0  0  0  0  0  0  0
   23.3490   14.3010    5.5620 O   0  0  0  0  0  0  0  0  0  0  0  0
   23.0590   13.8290    8.0830 C   0  0  0  0  0  0  0  0  0  0  0  0
   22.4340   12.6100    7.8590 O   0  0  0  0  0  0  0  0  0  0  0  0
   22.4470   11.9780    9.0580 C   0  0  0  0  0  0  0  0  0  0  0  0
   23.0030   12.6510   10.0340 N   0  0  0  0  0  0  0  0  0  0  0  0
   23.4210   13.8090    9.4230 C   0  0  0  0  0  0  0  0  0  0  0  0
   24.0890   14.8680   10.1470 C   0  0  0  0  0  0  0  0  0  0  0  0
   25.3720   15.2810    9.7230 C   0  0  0  0  0  0  0  0  0  0  0  0
   26.0720   16.2720   10.4140 C   0  0  0  0  0  0  0  0  0  0  0  0
   25.4530   16.8320   11.5140 C   0  0  0  0  0  0  0  0  0  0  0  0
   24.1810   16.4550   11.9380 C   0  0  0  0  0  0  0  0  0  0  0  0
   23.4760   15.4790   11.2540 C   0  0  0  0  0  0  0  0  0  0  0  0
   23.8060   17.2090   13.1690 C   0  0  0  0  0  0  0  0  0  0  0  0
   24.9530   18.0870   13.3660 N   0  0  0  0  0  0  0  0  0  0  0  0
   25.2210   18.7800   14.6200 C   0  0  1  0  0  0  0  0  0  0  0  0
   26.1700   18.0050   15.5290 C   0  0  0  0  0  0  0  0  0  0  0  0
   26.3350   18.7560   16.8420 C   0  0  0  0  0  0  0  0  0  0  0  0
   26.8070   20.1710   16.6070 C   0  0  0  0  0  0  0  0  0  0  0  0
   27.5840   20.7400   17.3680 O   0  0  0  0  0  0  0  0  0  0  0  0
   26.3090   20.8090   15.4990 N   0  0  0  0  0  0  0  0  0  0  0  0
   25.7970   20.1890   14.3820 C   0  0  0  0  0  0  0  0  0  0  0  0
   25.8290   20.7520   13.2890 O   0  0  0  0  0  0  0  0  0  0  0  0
   25.9630   17.8410   12.4480 C   0  0  0  0  0  0  0  0  0  0  0  0
   27.0770   18.3270   12.4100 O   0  0  0  0  0  0  0  0  0  0  0  0
   21.0910   16.0090    5.5150 C   0  0  0  0  0  0  0  0  0  0  0  0
   19.9470   16.6230    5.7270 N   0  0  0  0  0  0  0  0  0  0  0  0
   18.9505   19.6125    8.5356 H   0  0  0  0  0  0  0  0  0  0  0  0
   19.8320   19.3879    6.9867 H   0  0  0  0  0  0  0  0  0  0  0  0
   18.0430   19.5494    6.9867 H   0  0  0  0  0  0  0  0  0  0  0  0
   18.7137   17.3970    8.7476 H   0  0  0  0  0  0  0  0  0  0  0  0
   17.8634   17.3423    7.1396 H   0  0  0  0  0  0  0  0  0  0  0  0
   21.3314   16.4879    8.7577 H   0  0  0  0  0  0  0  0  0  0  0  0
   22.0218   10.9736    9.2007 H   0  0  0  0  0  0  0  0  0  0  0  0
   25.8258   14.8151    8.8359 H   0  0  0  0  0  0  0  0  0  0  0  0
   27.0747   16.5932   10.0954 H   0  0  0  0  0  0  0  0  0  0  0  0
   22.4626   15.1896   11.5690 H   0  0  0  0  0  0  0  0  0  0  0  0
   22.8841   17.7888   13.0141 H   0  0  0  0  0  0  0  0  0  0  0  0
   23.5980   16.5606   14.0329 H   0  0  0  0  0  0  0  0  0  0  0  0
   24.2462   18.8627   15.1229 H   0  0  0  0  0  0  0  0  0  0  0  0
   25.7549   17.0058   15.7270 H   0  0  0  0  0  0  0  0  0  0  0  0
   27.1489   17.9026   15.0378 H   0  0  0  0  0  0  0  0  0  0  0  0
   25.3671   18.7828   17.3640 H   0  0  0  0  0  0  0  0  0  0  0  0
   27.0892   18.2339   17.4491 H   0  0  0  0  0  0  0  0  0  0  0  0
   26.3192   21.8389   15.5036 H   0  0  0  0  0  0  0  0  0  0  0  0
   21.4364   15.6469    4.5354 H   0  0  0  0  0  0  0  0  0  0  0  0
  1  2  1  0
  2  3  1  0
  3  4  2  0
  4  5  1  0
  5  6  1  0
  6  7  2  0
  6  8  2  0
  6  9  1  0
  9 10  1  0
 10 11  1  0
 11 12  2  0
 12 13  1  0
 13 14  1  0
 14 15  2  0
 15 16  1  0
 16 17  2  0
 17 18  1  0
 18 19  2  0
 18 20  1  0
 20 21  1  0
 21 22  1  0
 22 23  1  0
 23 24  1  0
 24 25  1  0
 25 26  2  0
 25 27  1  0
 27 28  1  0
 28 29  2  0
 21 30  1  0
 30 31  2  0
  5 32  1  0
 32 33  2  0
 33  3  1  0
 13  9  2  0
 19 14  1  0
 28 22  1  0
 30 17  1  0
  1 34  1  0
  1 35  1  0
  1 36  1  0
  2 37  1  0
  2 38  1  0
  4 39  1  0
 11 40  1  0
 15 41  1  0
 16 42  1  0
 19 43  1  0
 20 44  1  0
 20 45  1  0
 22 46  1  1
 23 47  1  0
 23 48  1  0
 24 49  1  0
 24 50  1  0
 27 51  1  0
 32 52  1  0
M  END
>  <meeko>  (396) 
{"is_sidechain": [true], "free_energy": -10.87, "intermolecular_energy": 0.0, "internal_energy": -10.87, "cluster_size": 20, "cluster_id": 1, "rank_in_cluster": 1}

>  <_RMSD_MCS_to_ref>  (396) 
1.9001912038295283

$$$$
ligand
     RDKit          3D

 54 58  0  0  0  0  0  0  0  0999 V2000
   18.9090   19.1540    7.5370 C   0  0  0  0  0  0  0  0  0  0  0  0
   18.7730   17.6460    7.6780 C   0  0  0  0  0  0  0  0  0  0  0  0
   20.0800   16.9490    7.5330 C   0  0  0  0  0  0  0  0  0  0  0  0
   20.7110   16.0960    8.4170 C   0  0  0  0  0  0  0  0  0  0  0  0
   21.8670   15.7500    7.7810 N   0  0  0  0  0  0  0  0  0  0  0  0
   23.1550   14.8980    8.4450 S   0  0  0  0  0  6  0  0  0  0  0  0
   23.2360   13.6460    7.7210 O   0  0  0  0  0  0  0  0  0  0  0  0
   24.2540   15.8430    8.4800 O   0  0  0  0  0  0  0  0  0  0  0  0
   22.6330   14.5670   10.1050 C   0  0  0  0  0  0  0  0  0  0  0  0
   21.6680   13.5620   10.3210 C   0  0  0  0  0  0  0  0  0  0  0  0
   21.2290   13.2350   11.6130 C   0  0  0  0  0  0  0  0  0  0  0  0
   20.2780   12.2300   11.8430 C   0  0  0  0  0  0  0  0  0  0  0  0
   19.8620   11.9230   13.1430 C   0  0  0  0  0  0  0  0  0  0  0  0
   20.3900   12.6120   14.2360 C   0  0  0  0  0  0  0  0  0  0  0  0
   21.3350   13.6160   14.0370 C   0  0  0  0  0  0  0  0  0  0  0  0
   21.7520   13.9250   12.7300 C   0  0  0  0  0  0  0  0  0  0  0  0
   22.7020   14.9370   12.4760 C   0  0  0  0  0  0  0  0  0  0  0  0
   23.3090   15.7130   13.4190 O   0  0  0  0  0  0  0  0  0  0  0  0
   24.1480   16.5740   12.7660 C   0  0  0  0  0  0  0  0  0  0  0  0
   24.9300   17.5210   13.5300 C   0  0  0  0  0  0  0  0  0  0  0  0
   26.1160   17.7530   13.3140 O   0  0  0  0  0  0  0  0  0  0  0  0
   24.2350   18.1400   14.5420 N   0  0  0  0  0  0  0  0  0  0  0  0
   24.8810   18.9980   15.5190 C   0  0  1  0  0  0  0  0  0  0  0  0
   25.9060   18.2440   16.3590 C   0  0  0  0  0  0  0  0  0  0  0  0
   26.5670   19.2040   17.3370 C   0  0  0  0  0  0  0  0  0  0  0  0
   27.1850   20.3790   16.6170 C   0  0  0  0  0  0  0  0  0  0  0  0
   28.2110   20.9270   17.0090 O   0  0  0  0  0  0  0  0  0  0  0  0
   26.5230   20.8370   15.5050 N   0  0  0  0  0  0  0  0  0  0  0  0
   25.5870   20.1410   14.7810 C   0  0  0  0  0  0  0  0  0  0  0  0
   25.3340   20.4400   13.6150 O   0  0  0  0  0  0  0  0  0  0  0  0
   24.0740   16.3460   11.4060 C   0  0  0  0  0  0  0  0  0  0  0  0
   23.1510   15.2820   11.2040 C   0  0  0  0  0  0  0  0  0  0  0  0
   21.9260   16.3890    6.5840 C   0  0  0  0  0  0  0  0  0  0  0  0
   20.8500   17.1260    6.4010 N   0  0  0  0  0  0  0  0  0  0  0  0
   18.9504   19.6134    8.5356 H   0  0  0  0  0  0  0  0  0  0  0  0
   19.8320   19.3891    6.9867 H   0  0  0  0  0  0  0  0  0  0  0  0
   18.0430   19.5504    6.9867 H   0  0  0  0  0  0  0  0  0  0  0  0
   18.3583   17.4188    8.6712 H   0  0  0  0  0  0  0  0  0  0  0  0
   18.1089   17.2898    6.8766 H   0  0  0  0  0  0  0  0  0  0  0  0
   20.3613   15.7701    9.4077 H   0  0  0  0  0  0  0  0  0  0  0  0
   21.2503   13.0226    9.4581 H   0  0  0  0  0  0  0  0  0  0  0  0
   19.8545   11.6770   10.9916 H   0  0  0  0  0  0  0  0  0  0  0  0
   19.1137   11.1332   13.3049 H   0  0  0  0  0  0  0  0  0  0  0  0
   20.0598   12.3621   15.2551 H   0  0  0  0  0  0  0  0  0  0  0  0
   21.7518   14.1629   14.8956 H   0  0  0  0  0  0  0  0  0  0  0  0
   23.2183   17.9895   14.6095 H   0  0  0  0  0  0  0  0  0  0  0  0
   24.1058   19.3809   16.1990 H   0  0  0  0  0  0  0  0  0  0  0  0
   25.4027   17.4409   16.9174 H   0  0  0  0  0  0  0  0  0  0  0  0
   26.6712   17.8089   15.6993 H   0  0  0  0  0  0  0  0  0  0  0  0
   25.8095   19.5743   18.0434 H   0  0  0  0  0  0  0  0  0  0  0  0
   27.3637   18.6642   17.8697 H   0  0  0  0  0  0  0  0  0  0  0  0
   26.7491   21.7895   15.1847 H   0  0  0  0  0  0  0  0  0  0  0  0
   24.6264   16.8869   10.6235 H   0  0  0  0  0  0  0  0  0  0  0  0
   22.7563   16.3030    5.8676 H   0  0  0  0  0  0  0  0  0  0  0  0
  1  2  1  0
  2  3  1  0
  3  4  2  0
  4  5  1  0
  5  6  1  0
  6  7  2  0
  6  8  2  0
  6  9  1  0
  9 10  2  0
 10 11  1  0
 11 12  2  0
 12 13  1  0
 13 14  2  0
 14 15  1  0
 15 16  2  0
 16 17  1  0
 17 18  1  0
 18 19  1  0
 19 20  1  0
 20 21  2  0
 20 22  1  0
 22 23  1  0
 23 24  1  0
 24 25  1  0
 25 26  1  0
 26 27  2  0
 26 28  1  0
 28 29  1  0
 29 30  2  0
 19 31  2  0
 31 32  1  0
  5 33  1  0
 33 34  2  0
 34  3  1  0
 32  9  1  0
 16 11  1  0
 32 17  2  0
 29 23  1  0
  1 35  1  0
  1 36  1  0
  1 37  1  0
  2 38  1  0
  2 39  1  0
  4 40  1  0
 10 41  1  0
 12 42  1  0
 13 43  1  0
 14 44  1  0
 15 45  1  0
 22 46  1  0
 23 47  1  1
 24 48  1  0
 24 49  1  0
 25 50  1  0
 25 51  1  0
 28 52  1  0
 31 53  1  0
 33 54  1  0
M  END
>  <meeko>  (397) 
{"is_sidechain": [true], "free_energy": -10.87, "intermolecular_energy": 0.0, "internal_energy": -10.87, "cluster_size": 20, "cluster_id": 1, "rank_in_cluster": 1}

>  <_RMSD_MCS_to_ref>  (397) 
0.8840867227446263

$$$$
ligand
     RDKit          3D

 58 62  0  0  0  0  0  0  0  0999 V2000
   18.8250   19.0170    7.5350 C   0  0  0  0  0  0  0  0  0  0  0  0
   18.5200   17.5420    7.7330 C   0  0  0  0  0  0  0  0  0  0  0  0
   19.7560   16.7210    7.8510 C   0  0  0  0  0  0  0  0  0  0  0  0
   20.1140   15.8240    8.8390 C   0  0  0  0  0  0  0  0  0  0  0  0
   21.3420   15.3710    8.4490 N   0  0  0  0  0  0  0  0  0  0  0  0
   22.2660   14.2290    9.2570 S   0  0  0  0  0  6  0  0  0  0  0  0
   23.4550   14.0840    8.4380 O   0  0  0  0  0  0  0  0  0  0  0  0
   21.3940   13.1060    9.5430 O   0  0  0  0  0  0  0  0  0  0  0  0
   22.7280   15.0020   10.7950 C   0  0  0  0  0  0  0  0  0  0  0  0
   21.6760   15.3930   11.6610 C   0  0  0  0  0  0  0  0  0  0  0  0
   21.9480   16.0470   12.8620 C   0  0  0  0  0  0  0  0  0  0  0  0
   23.2710   16.3020   13.1580 C   0  0  0  0  0  0  0  0  0  0  0  0
   24.3220   15.9330   12.3170 C   0  0  0  0  0  0  0  0  0  0  0  0
   24.0770   15.2630   11.1180 C   0  0  0  0  0  0  0  0  0  0  0  0
   25.2100   14.9110   10.2600 C   0  0  0  0  0  0  0  0  0  0  0  0
   26.1830   15.7630    9.9030 C   0  0  0  0  0  0  0  0  0  0  0  0
   27.2900   15.4330    8.9600 C   0  0  0  0  0  0  0  0  0  0  0  0
   27.3890   16.7380    8.2000 C   0  0  0  0  0  0  0  0  0  0  0  0
   27.0300   17.7920    9.1070 O   0  0  0  0  0  0  0  0  0  0  0  0
   26.3500   17.2130   10.2310 C   0  0  0  0  0  0  0  0  0  0  0  0
   25.6120   16.4210   12.9020 C   0  0  0  0  0  0  0  0  0  0  0  0
   25.2040   16.9640   14.1900 N   0  0  0  0  0  0  0  0  0  0  0  0
   26.1280   17.7440   15.0090 C   0  0  2  0  0  0  0  0  0  0  0  0
   25.7250   17.8320   16.4800 C   0  0  0  0  0  0  0  0  0  0  0  0
   26.7840   18.6090   17.2450 C   0  0  0  0  0  0  0  0  0  0  0  0
   26.9950   19.9830   16.6500 C   0  0  0  0  0  0  0  0  0  0  0  0
   27.4510   20.9150   17.3040 O   0  0  0  0  0  0  0  0  0  0  0  0
   26.7270   20.1220   15.3110 N   0  0  0  0  0  0  0  0  0  0  0  0
   26.3360   19.1480   14.4210 C   0  0  0  0  0  0  0  0  0  0  0  0
   26.2680   19.3960   13.2180 O   0  0  0  0  0  0  0  0  0  0  0  0
   23.8260   16.9990   14.3220 C   0  0  0  0  0  0  0  0  0  0  0  0
   23.1590   17.5080   15.2000 O   0  0  0  0  0  0  0  0  0  0  0  0
   21.7000   15.9840    7.2940 C   0  0  0  0  0  0  0  0  0  0  0  0
   20.7440   16.7960    6.8890 N   0  0  0  0  0  0  0  0  0  0  0  0
   18.9260   19.5054    8.5155 H   0  0  0  0  0  0  0  0  0  0  0  0
   19.7645   19.1250    6.9731 H   0  0  0  0  0  0  0  0  0  0  0  0
   18.0054   19.4887    6.9731 H   0  0  0  0  0  0  0  0  0  0  0  0
   17.9274   17.4235    8.6521 H   0  0  0  0  0  0  0  0  0  0  0  0
   17.9658   17.1912    6.8500 H   0  0  0  0  0  0  0  0  0  0  0  0
   19.5414   15.5399    9.7342 H   0  0  0  0  0  0  0  0  0  0  0  0
   20.6338   15.1781   11.3825 H   0  0  0  0  0  0  0  0  0  0  0  0
   21.1404   16.3474   13.5457 H   0  0  0  0  0  0  0  0  0  0  0  0
   25.2673   13.8792    9.8830 H   0  0  0  0  0  0  0  0  0  0  0  0
   28.2236   15.1995    9.4928 H   0  0  0  0  0  0  0  0  0  0  0  0
   27.1150   14.5455    8.3341 H   0  0  0  0  0  0  0  0  0  0  0  0
   28.4178   16.8861    7.8398 H   0  0  0  0  0  0  0  0  0  0  0  0
   26.7186   16.7312    7.3279 H   0  0  0  0  0  0  0  0  0  0  0  0
   26.9503   17.3324   11.1450 H   0  0  0  0  0  0  0  0  0  0  0  0
   25.3813   17.7011   10.4138 H   0  0  0  0  0  0  0  0  0  0  0  0
   26.3258   15.5939   13.0300 H   0  0  0  0  0  0  0  0  0  0  0  0
   26.1257   17.1562   12.2651 H   0  0  0  0  0  0  0  0  0  0  0  0
   27.0815   17.1960   14.9848 H   0  0  0  0  0  0  0  0  0  0  0  0
   24.7572   18.3477   16.5657 H   0  0  0  0  0  0  0  0  0  0  0  0
   25.6364   16.8189   16.8992 H   0  0  0  0  0  0  0  0  0  0  0  0
   26.4628   18.7173   18.2915 H   0  0  0  0  0  0  0  0  0  0  0  0
   27.7324   18.0551   17.1841 H   0  0  0  0  0  0  0  0  0  0  0  0
   26.8313   21.0713   14.9252 H   0  0  0  0  0  0  0  0  0  0  0  0
   22.6536   15.8260    6.7690 H   0  0  0  0  0  0  0  0  0  0  0  0
  1  2  1  0
  2  3  1  0
  3  4  2  0
  4  5  1  0
  5  6  1  0
  6  7  2  0
  6  8  2  0
  6  9  1  0
  9 10  2  0
 10 11  1  0
 11 12  2  0
 12 13  1  0
 13 14  2  0
 14 15  1  0
 15 16  2  0
 16 17  1  0
 17 18  1  0
 18 19  1  0
 19 20  1  0
 13 21  1  0
 21 22  1  0
 22 23  1  0
 23 24  1  0
 24 25  1  0
 25 26  1  0
 26 27  2  0
 26 28  1  0
 28 29  1  0
 29 30  2  0
 22 31  1  0
 31 32  2  0
  5 33  1  0
 33 34  2  0
 34  3  1  0
 14  9  1  0
 20 16  1  0
 29 23  1  0
 31 12  1  0
  1 35  1  0
  1 36  1  0
  1 37  1  0
  2 38  1  0
  2 39  1  0
  4 40  1  0
 10 41  1  0
 11 42  1  0
 15 43  1  0
 17 44  1  0
 17 45  1  0
 18 46  1  0
 18 47  1  0
 20 48  1  0
 20 49  1  0
 21 50  1  0
 21 51  1  0
 23 52  1  1
 24 53  1  0
 24 54  1  0
 25 55  1  0
 25 56  1  0
 28 57  1  0
 33 58  1  0
M  END
>  <meeko>  (398) 
{"is_sidechain": [true], "free_energy": -10.86, "intermolecular_energy": 0.0, "internal_energy": -10.86, "cluster_size": 12, "cluster_id": 1, "rank_in_cluster": 1}

>  <_RMSD_MCS_to_ref>  (398) 
1.0316598545817104

$$$$
ligand
     RDKit          3D

 53 57  0  0  0  0  0  0  0  0999 V2000
   18.8250   19.0170    7.5350 C   0  0  0  0  0  0  0  0  0  0  0  0
   18.5200   17.5420    7.7330 C   0  0  0  0  0  0  0  0  0  0  0  0
   19.7560   16.7150    7.7930 C   0  0  0  0  0  0  0  0  0  0  0  0
   20.1510   15.8120    8.7600 C   0  0  0  0  0  0  0  0  0  0  0  0
   21.3520   15.3450    8.3100 N   0  0  0  0  0  0  0  0  0  0  0  0
   22.3130   14.2130    9.0890 S   0  0  0  0  0  6  0  0  0  0  0  0
   23.5060   14.0290    8.2880 O   0  0  0  0  0  0  0  0  0  0  0  0
   21.4070   13.1140    9.3700 O   0  0  0  0  0  0  0  0  0  0  0  0
   22.7840   14.9550   10.6400 C   0  0  0  0  0  0  0  0  0  0  0  0
   21.7610   15.0980   11.6120 C   0  0  0  0  0  0  0  0  0  0  0  0
   22.0250   15.6870   12.8490 C   0  0  0  0  0  0  0  0  0  0  0  0
   23.3160   16.1110   13.0840 C   0  0  0  0  0  0  0  0  0  0  0  0
   24.3400   15.9720   12.1480 C   0  0  0  0  0  0  0  0  0  0  0  0
   24.1000   15.3870   10.9060 C   0  0  0  0  0  0  0  0  0  0  0  0
   25.2050   15.2660    9.9830 C   0  0  0  0  0  0  0  0  0  0  0  0
   25.5910   16.1110    8.9090 C   0  0  0  0  0  0  0  0  0  0  0  0
   26.7440   15.5690    8.3910 C   0  0  0  0  0  0  0  0  0  0  0  0
   27.1090   14.4680    9.0980 O   0  0  0  0  0  0  0  0  0  0  0  0
   26.1780   14.2940   10.0710 C   0  0  0  0  0  0  0  0  0  0  0  0
   25.6060   16.5380   12.7130 C   0  0  0  0  0  0  0  0  0  0  0  0
   25.2230   16.9130   14.0670 N   0  0  0  0  0  0  0  0  0  0  0  0
   26.0960   17.7350   14.8970 C   0  0  2  0  0  0  0  0  0  0  0  0
   25.7220   17.7350   16.3790 C   0  0  0  0  0  0  0  0  0  0  0  0
   26.7300   18.5710   17.1530 C   0  0  0  0  0  0  0  0  0  0  0  0
   26.8110   19.9770   16.6070 C   0  0  0  0  0  0  0  0  0  0  0  0
   27.1990   20.9220   17.2870 O   0  0  0  0  0  0  0  0  0  0  0  0
   26.5040   20.1420   15.2790 N   0  0  0  0  0  0  0  0  0  0  0  0
   26.1700   19.1740   14.3610 C   0  0  0  0  0  0  0  0  0  0  0  0
   26.0440   19.4600   13.1710 O   0  0  0  0  0  0  0  0  0  0  0  0
   23.8630   16.7620   14.2790 C   0  0  0  0  0  0  0  0  0  0  0  0
   23.1990   17.1060   15.2370 O   0  0  0  0  0  0  0  0  0  0  0  0
   21.6400   15.9230    7.1170 C   0  0  0  0  0  0  0  0  0  0  0  0
   20.6960   16.7820    6.7840 N   0  0  0  0  0  0  0  0  0  0  0  0
   18.9260   19.5054    8.5155 H   0  0  0  0  0  0  0  0  0  0  0  0
   19.7645   19.1250    6.9731 H   0  0  0  0  0  0  0  0  0  0  0  0
   18.0054   19.4887    6.9731 H   0  0  0  0  0  0  0  0  0  0  0  0
   17.9651   17.4184    8.6747 H   0  0  0  0  0  0  0  0  0  0  0  0
   17.9274   17.2012    6.8712 H   0  0  0  0  0  0  0  0  0  0  0  0
   19.6196   15.5329    9.6818 H   0  0  0  0  0  0  0  0  0  0  0  0
   20.7455   14.7396   11.3875 H   0  0  0  0  0  0  0  0  0  0  0  0
   21.2358   15.8082   13.6056 H   0  0  0  0  0  0  0  0  0  0  0  0
   25.0723   17.0166    8.5614 H   0  0  0  0  0  0  0  0  0  0  0  0
   27.2930   15.9703    7.5264 H   0  0  0  0  0  0  0  0  0  0  0  0
   26.1976   13.4912   10.8227 H   0  0  0  0  0  0  0  0  0  0  0  0
   26.4062   15.7833   12.7234 H   0  0  0  0  0  0  0  0  0  0  0  0
   26.0035   17.3796   12.1267 H   0  0  0  0  0  0  0  0  0  0  0  0
   27.0905   17.2693   14.8322 H   0  0  0  0  0  0  0  0  0  0  0  0
   24.7166   18.1633   16.5040 H   0  0  0  0  0  0  0  0  0  0  0  0
   25.7294   16.7033   16.7604 H   0  0  0  0  0  0  0  0  0  0  0  0
   26.4247   18.6136   18.2089 H   0  0  0  0  0  0  0  0  0  0  0  0
   27.7200   18.1020   17.0529 H   0  0  0  0  0  0  0  0  0  0  0  0
   26.5266   21.1097   14.9270 H   0  0  0  0  0  0  0  0  0  0  0  0
   22.5336   15.7062    6.5133 H   0  0  0  0  0  0  0  0  0  0  0  0
  1  2  1  0
  2  3  1  0
  3  4  2  0
  4  5  1  0
  5  6  1  0
  6  7  2  0
  6  8  2  0
  6  9  1  0
  9 10  2  0
 10 11  1  0
 11 12  2  0
 12 13  1  0
 13 14  2  0
 14 15  1  0
 15 16  1  0
 16 17  2  0
 17 18  1  0
 18 19  1  0
 13 20  1  0
 20 21  1  0
 21 22  1  0
 22 23  1  0
 23 24  1  0
 24 25  1  0
 25 26  2  0
 25 27  1  0
 27 28  1  0
 28 29  2  0
 21 30  1  0
 30 31  2  0
  5 32  1  0
 32 33  2  0
 33  3  1  0
 14  9  1  0
 19 15  2  0
 28 22  1  0
 30 12  1  0
  1 34  1  0
  1 35  1  0
  1 36  1  0
  2 37  1  0
  2 38  1  0
  4 39  1  0
 10 40  1  0
 11 41  1  0
 16 42  1  0
 17 43  1  0
 19 44  1  0
 20 45  1  0
 20 46  1  0
 22 47  1  1
 23 48  1  0
 23 49  1  0
 24 50  1  0
 24 51  1  0
 27 52  1  0
 32 53  1  0
M  END
>  <meeko>  (399) 
{"is_sidechain": [true], "free_energy": -10.86, "intermolecular_energy": 0.0, "internal_energy": -10.86, "cluster_size": 17, "cluster_id": 1, "rank_in_cluster": 1}

>  <_RMSD_MCS_to_ref>  (399) 
0.9238511484240551

$$$$
ligand
     RDKit          3D

 53 57  0  0  0  0  0  0  0  0999 V2000
   18.7970   18.8170    7.7190 C   0  0  0  0  0  0  0  0  0  0  0  0
   18.5280   17.3290    7.8810 C   0  0  0  0  0  0  0  0  0  0  0  0
   19.7690   16.5180    7.7700 C   0  0  0  0  0  0  0  0  0  0  0  0
   20.1400   15.3930    8.4810 C   0  0  0  0  0  0  0  0  0  0  0  0
   21.3560   15.0550    7.9630 N   0  0  0  0  0  0  0  0  0  0  0  0
   22.4030   13.8980    8.5870 S   0  0  0  0  0  6  0  0  0  0  0  0
   21.6140   12.6930    8.7580 O   0  0  0  0  0  0  0  0  0  0  0  0
   23.5860   13.9400    7.7500 O   0  0  0  0  0  0  0  0  0  0  0  0
   22.8130   14.5280   10.1910 C   0  0  0  0  0  0  0  0  0  0  0  0
   23.9800   15.2740   10.3610 C   0  0  0  0  0  0  0  0  0  0  0  0
   24.2470   15.7250   11.6390 C   0  0  0  0  0  0  0  0  0  0  0  0
   23.4140   15.4710   12.7310 C   0  0  0  0  0  0  0  0  0  0  0  0
   22.2540   14.7270   12.5630 C   0  0  0  0  0  0  0  0  0  0  0  0
   21.3630   14.4310   13.6710 C   0  0  0  0  0  0  0  0  0  0  0  0
   21.7340   14.2100   15.0350 C   0  0  0  0  0  0  0  0  0  0  0  0
   20.6470   13.9400   15.8350 C   0  0  0  0  0  0  0  0  0  0  0  0
   19.1840   13.9350   14.9510 S   0  0  0  0  0  0  0  0  0  0  0  0
   20.0020   14.2880   13.4890 C   0  0  0  0  0  0  0  0  0  0  0  0
   21.9600   14.2420   11.2790 C   0  0  0  0  0  0  0  0  0  0  0  0
   23.9920   16.0940   13.9610 C   0  0  0  0  0  0  0  0  0  0  0  0
   25.2520   16.6480   13.4790 N   0  0  0  0  0  0  0  0  0  0  0  0
   26.0510   17.5990   14.2430 C   0  0  2  0  0  0  0  0  0  0  0  0
   25.9720   17.3580   15.7460 C   0  0  0  0  0  0  0  0  0  0  0  0
   26.8940   18.3330   16.4630 C   0  0  0  0  0  0  0  0  0  0  0  0
   26.5640   19.7620   16.1000 C   0  0  0  0  0  0  0  0  0  0  0  0
   26.6490   20.6820   16.9100 O   0  0  0  0  0  0  0  0  0  0  0  0
   26.1790   19.9940   14.8050 N   0  0  0  0  0  0  0  0  0  0  0  0
   25.6490   19.0560   13.9490 C   0  0  0  0  0  0  0  0  0  0  0  0
   24.9030   19.3980   13.0340 O   0  0  0  0  0  0  0  0  0  0  0  0
   25.3870   16.5180   12.1070 C   0  0  0  0  0  0  0  0  0  0  0  0
   26.2620   16.9630   11.3910 O   0  0  0  0  0  0  0  0  0  0  0  0
   21.7100   15.9680    7.0230 C   0  0  0  0  0  0  0  0  0  0  0  0
   20.7600   16.8660    6.8730 N   0  0  0  0  0  0  0  0  0  0  0  0
   18.8815   19.2845    8.7111 H   0  0  0  0  0  0  0  0  0  0  0  0
   19.7359   18.9616    7.1643 H   0  0  0  0  0  0  0  0  0  0  0  0
   17.9682   19.2812    7.1643 H   0  0  0  0  0  0  0  0  0  0  0  0
   18.0791   17.1559    8.8702 H   0  0  0  0  0  0  0  0  0  0  0  0
   17.8489   17.0190    7.0731 H   0  0  0  0  0  0  0  0  0  0  0  0
   19.5822   14.8856    9.2819 H   0  0  0  0  0  0  0  0  0  0  0  0
   24.6537   15.4920    9.5192 H   0  0  0  0  0  0  0  0  0  0  0  0
   22.7700   14.2512   15.4025 H   0  0  0  0  0  0  0  0  0  0  0  0
   20.7121   13.7497   16.9165 H   0  0  0  0  0  0  0  0  0  0  0  0
   19.5002   14.3893   12.5154 H   0  0  0  0  0  0  0  0  0  0  0  0
   21.0574   13.6340   11.1192 H   0  0  0  0  0  0  0  0  0  0  0  0
   23.3346   16.8849   14.3513 H   0  0  0  0  0  0  0  0  0  0  0  0
   24.1171   15.3841   14.7919 H   0  0  0  0  0  0  0  0  0  0  0  0
   27.0885   17.4351   13.9161 H   0  0  0  0  0  0  0  0  0  0  0  0
   24.9380   17.5112   16.0885 H   0  0  0  0  0  0  0  0  0  0  0  0
   26.2822   16.3266   15.9697 H   0  0  0  0  0  0  0  0  0  0  0  0
   26.7795   18.2028   17.5493 H   0  0  0  0  0  0  0  0  0  0  0  0
   27.9294   18.1249   16.1553 H   0  0  0  0  0  0  0  0  0  0  0  0
   26.2963   20.9508   14.4422 H   0  0  0  0  0  0  0  0  0  0  0  0
   22.6579   15.9585    6.4650 H   0  0  0  0  0  0  0  0  0  0  0  0
  1  2  1  0
  2  3  1  0
  3  4  2  0
  4  5  1  0
  5  6  1  0
  6  7  2  0
  6  8  2  0
  6  9  1  0
  9 10  2  0
 10 11  1  0
 11 12  2  0
 12 13  1  0
 13 14  1  0
 14 15  1  0
 15 16  2  0
 16 17  1  0
 17 18  1  0
 13 19  2  0
 12 20  1  0
 20 21  1  0
 21 22  1  0
 22 23  1  0
 23 24  1  0
 24 25  1  0
 25 26  2  0
 25 27  1  0
 27 28  1  0
 28 29  2  0
 21 30  1  0
 30 31  2  0
  5 32  1  0
 32 33  2  0
 33  3  1  0
 19  9  1  0
 28 22  1  0
 30 11  1  0
 18 14  2  0
  1 34  1  0
  1 35  1  0
  1 36  1  0
  2 37  1  0
  2 38  1  0
  4 39  1  0
 10 40  1  0
 15 41  1  0
 16 42  1  0
 18 43  1  0
 19 44  1  0
 20 45  1  0
 20 46  1  0
 22 47  1  6
 23 48  1  0
 23 49  1  0
 24 50  1  0
 24 51  1  0
 27 52  1  0
 32 53  1  0
M  END
>  <meeko>  (400) 
{"is_sidechain": [true], "free_energy": -10.86, "intermolecular_energy": 0.0, "internal_energy": -10.86, "cluster_size": 16, "cluster_id": 1, "rank_in_cluster": 1}

>  <_RMSD_MCS_to_ref>  (400) 
1.9982901579989711

$$$$
ligand
     RDKit          3D

 52 56  0  0  0  0  0  0  0  0999 V2000
   18.7970   18.8160    7.7190 C   0  0  0  0  0  0  0  0  0  0  0  0
   18.5280   17.3300    7.8810 C   0  0  0  0  0  0  0  0  0  0  0  0
   19.7550   16.5100    7.6900 C   0  0  0  0  0  0  0  0  0  0  0  0
   20.7320   16.1880    8.6110 C   0  0  0  0  0  0  0  0  0  0  0  0
   21.6230   15.4340    7.9050 N   0  0  0  0  0  0  0  0  0  0  0  0
   23.1180   14.8860    8.4310 S   0  0  0  0  0  6  0  0  0  0  0  0
   23.8730   14.5490    7.2400 O   0  0  0  0  0  0  0  0  0  0  0  0
   23.5560   15.8830    9.3890 O   0  0  0  0  0  0  0  0  0  0  0  0
   22.9170   13.3740    9.3080 C   0  0  0  0  0  0  0  0  0  0  0  0
   22.5410   11.9810    8.3710 S   0  0  0  0  0  0  0  0  0  0  0  0
   22.5590   11.0300    9.7930 C   0  0  0  0  0  0  0  0  0  0  0  0
   22.8080   11.6710   10.9130 N   0  0  0  0  0  0  0  0  0  0  0  0
   22.9710   13.0170   10.6430 C   0  0  0  0  0  0  0  0  0  0  0  0
   23.2160   13.9520   11.7210 C   0  0  0  0  0  0  0  0  0  0  0  0
   22.1340   14.4850   12.4570 C   0  0  0  0  0  0  0  0  0  0  0  0
   22.3550   15.4240   13.4680 C   0  0  0  0  0  0  0  0  0  0  0  0
   23.6640   15.7970   13.7120 C   0  0  0  0  0  0  0  0  0  0  0  0
   24.7440   15.2710   13.0070 C   0  0  0  0  0  0  0  0  0  0  0  0
   24.5380   14.3320   12.0110 C   0  0  0  0  0  0  0  0  0  0  0  0
   26.0200   15.8820   13.4870 C   0  0  0  0  0  0  0  0  0  0  0  0
   25.5600   16.7720   14.5460 N   0  0  0  0  0  0  0  0  0  0  0  0
   26.4110   17.7550   15.2120 C   0  0  2  0  0  0  0  0  0  0  0  0
   26.1970   17.7220   16.7270 C   0  0  0  0  0  0  0  0  0  0  0  0
   27.1820   18.6590   17.4060 C   0  0  0  0  0  0  0  0  0  0  0  0
   27.0670   20.0630   16.8630 C   0  0  0  0  0  0  0  0  0  0  0  0
   27.2920   21.0550   17.5490 O   0  0  0  0  0  0  0  0  0  0  0  0
   26.7340   20.1820   15.5370 N   0  0  0  0  0  0  0  0  0  0  0  0
   26.2540   19.1970   14.7030 C   0  0  0  0  0  0  0  0  0  0  0  0
   25.7750   19.4990   13.6120 O   0  0  0  0  0  0  0  0  0  0  0  0
   24.1800   16.7830   14.6660 C   0  0  0  0  0  0  0  0  0  0  0  0
   23.4960   17.4910   15.3790 O   0  0  0  0  0  0  0  0  0  0  0  0
   21.1840   15.3070    6.6260 C   0  0  0  0  0  0  0  0  0  0  0  0
   20.0570   15.9670    6.4560 N   0  0  0  0  0  0  0  0  0  0  0  0
   18.8816   19.2836    8.7111 H   0  0  0  0  0  0  0  0  0  0  0  0
   19.7359   18.9603    7.1643 H   0  0  0  0  0  0  0  0  0  0  0  0
   17.9683   19.2803    7.1643 H   0  0  0  0  0  0  0  0  0  0  0  0
   18.1360   17.1497    8.8928 H   0  0  0  0  0  0  0  0  0  0  0  0
   17.8016   17.0334    7.1100 H   0  0  0  0  0  0  0  0  0  0  0  0
   20.7807   16.4742    9.6720 H   0  0  0  0  0  0  0  0  0  0  0  0
   22.3731    9.9460    9.7712 H   0  0  0  0  0  0  0  0  0  0  0  0
   21.1082   14.1577   12.2320 H   0  0  0  0  0  0  0  0  0  0  0  0
   21.5215   15.8492   14.0463 H   0  0  0  0  0  0  0  0  0  0  0  0
   25.3851   13.8953   11.4618 H   0  0  0  0  0  0  0  0  0  0  0  0
   26.7051   15.1163   13.8799 H   0  0  0  0  0  0  0  0  0  0  0  0
   26.5872   16.3950   12.6963 H   0  0  0  0  0  0  0  0  0  0  0  0
   27.4377   17.4517   14.9593 H   0  0  0  0  0  0  0  0  0  0  0  0
   25.1701   18.0417   16.9579 H   0  0  0  0  0  0  0  0  0  0  0  0
   26.3574   16.6977   17.0945 H   0  0  0  0  0  0  0  0  0  0  0  0
   26.9753   18.6746   18.4863 H   0  0  0  0  0  0  0  0  0  0  0  0
   28.2007   18.2933   17.2099 H   0  0  0  0  0  0  0  0  0  0  0  0
   26.8572   21.1147   15.1177 H   0  0  0  0  0  0  0  0  0  0  0  0
   21.6982   14.7328    5.8412 H   0  0  0  0  0  0  0  0  0  0  0  0
  1  2  1  0
  2  3  1  0
  3  4  2  0
  4  5  1  0
  5  6  1  0
  6  7  2  0
  6  8  2  0
  6  9  1  0
  9 10  1  0
 10 11  1  0
 11 12  2  0
 12 13  1  0
 13 14  1  0
 14 15  2  0
 15 16  1  0
 16 17  2  0
 17 18  1  0
 18 19  2  0
 18 20  1  0
 20 21  1  0
 21 22  1  0
 22 23  1  0
 23 24  1  0
 24 25  1  0
 25 26  2  0
 25 27  1  0
 27 28  1  0
 28 29  2  0
 21 30  1  0
 30 31  2  0
  5 32  1  0
 32 33  2  0
 33  3  1  0
 13  9  2  0
 19 14  1  0
 28 22  1  0
 30 17  1  0
  1 34  1  0
  1 35  1  0
  1 36  1  0
  2 37  1  0
  2 38  1  0
  4 39  1  0
 11 40  1  0
 15 41  1  0
 16 42  1  0
 19 43  1  0
 20 44  1  0
 20 45  1  0
 22 46  1  1
 23 47  1  0
 23 48  1  0
 24 49  1  0
 24 50  1  0
 27 51  1  0
 32 52  1  0
M  END
>  <meeko>  (401) 
{"is_sidechain": [true], "free_energy": -10.86, "intermolecular_energy": 0.0, "internal_energy": -10.86, "cluster_size": 20, "cluster_id": 1, "rank_in_cluster": 1}

>  <_RMSD_MCS_to_ref>  (401) 
1.440467805957495

$$$$
ligand
     RDKit          3D

 54 58  0  0  0  0  0  0  0  0999 V2000
   18.7970   18.8170    7.7190 C   0  0  0  0  0  0  0  0  0  0  0  0
   18.5280   17.3290    7.8810 C   0  0  0  0  0  0  0  0  0  0  0  0
   19.7760   16.5530    8.1150 C   0  0  0  0  0  0  0  0  0  0  0  0
   20.4230   16.2870    9.3050 C   0  0  0  0  0  0  0  0  0  0  0  0
   21.5020   15.5350    8.9360 N   0  0  0  0  0  0  0  0  0  0  0  0
   22.7380   15.0470    9.9560 S   0  0  0  0  0  6  0  0  0  0  0  0
   23.6380   16.1820   10.0110 O   0  0  0  0  0  0  0  0  0  0  0  0
   23.1720   13.7340    9.5290 O   0  0  0  0  0  0  0  0  0  0  0  0
   22.1680   14.8300   11.5580 C   0  0  0  0  0  0  0  0  0  0  0  0
   22.8190   15.2510   12.7010 C   0  0  0  0  0  0  0  0  0  0  0  0
   24.0760   15.9330   12.9040 C   0  0  0  0  0  0  0  0  0  0  0  0
   24.9710   15.9530   12.0690 O   0  0  0  0  0  0  0  0  0  0  0  0
   24.1990   16.5540   14.1240 N   0  0  0  0  0  0  0  0  0  0  0  0
   25.3230   17.4180   14.4450 C   0  0  2  0  0  0  0  0  0  0  0  0
   25.7050   17.3450   15.9200 C   0  0  0  0  0  0  0  0  0  0  0  0
   26.8580   18.2980   16.1930 C   0  0  0  0  0  0  0  0  0  0  0  0
   26.5170   19.7080   15.7680 C   0  0  0  0  0  0  0  0  0  0  0  0
   26.9220   20.6950   16.3720 O   0  0  0  0  0  0  0  0  0  0  0  0
   25.7430   19.8380   14.6430 N   0  0  0  0  0  0  0  0  0  0  0  0
   24.9450   18.8620   14.1000 C   0  0  0  0  0  0  0  0  0  0  0  0
   23.9930   19.1470   13.3740 O   0  0  0  0  0  0  0  0  0  0  0  0
   22.0700   14.9230   13.7990 O   0  0  0  0  0  0  0  0  0  0  0  0
   20.9370   14.3080   13.3570 C   0  0  0  0  0  0  0  0  0  0  0  0
   20.9420   14.2270   11.9670 C   0  0  0  0  0  0  0  0  0  0  0  0
   19.8350   13.6240   11.3390 C   0  0  0  0  0  0  0  0  0  0  0  0
   18.7800   13.1240   12.1220 C   0  0  0  0  0  0  0  0  0  0  0  0
   18.7970   13.2130   13.5220 C   0  0  0  0  0  0  0  0  0  0  0  0
   17.7500   12.7180   14.3120 C   0  0  0  0  0  0  0  0  0  0  0  0
   17.7950   12.8240   15.7070 C   0  0  0  0  0  0  0  0  0  0  0  0
   18.8850   13.4260   16.3370 C   0  0  0  0  0  0  0  0  0  0  0  0
   19.9390   13.9260   15.5750 C   0  0  0  0  0  0  0  0  0  0  0  0
   19.8960   13.8190   14.1730 C   0  0  0  0  0  0  0  0  0  0  0  0
   21.5200   15.4110    7.5850 C   0  0  0  0  0  0  0  0  0  0  0  0
   20.4690   16.0030    7.0550 N   0  0  0  0  0  0  0  0  0  0  0  0
   18.8815   19.2845    8.7111 H   0  0  0  0  0  0  0  0  0  0  0  0
   19.7359   18.9616    7.1643 H   0  0  0  0  0  0  0  0  0  0  0  0
   17.9682   19.2812    7.1643 H   0  0  0  0  0  0  0  0  0  0  0  0
   17.8540   17.1823    8.7379 H   0  0  0  0  0  0  0  0  0  0  0  0
   18.0747   16.9648    6.9473 H   0  0  0  0  0  0  0  0  0  0  0  0
   20.1358   16.6070   10.3175 H   0  0  0  0  0  0  0  0  0  0  0  0
   23.4697   16.4019   14.8352 H   0  0  0  0  0  0  0  0  0  0  0  0
   26.1898   17.0798   13.8583 H   0  0  0  0  0  0  0  0  0  0  0  0
   24.8401   17.6296   16.5372 H   0  0  0  0  0  0  0  0  0  0  0  0
   26.0113   16.3183   16.1689 H   0  0  0  0  0  0  0  0  0  0  0  0
   27.0803   18.2923   17.2703 H   0  0  0  0  0  0  0  0  0  0  0  0
   27.7308   17.9621   15.6139 H   0  0  0  0  0  0  0  0  0  0  0  0
   25.7623   20.7491   14.1630 H   0  0  0  0  0  0  0  0  0  0  0  0
   19.7962   13.5448   10.2425 H   0  0  0  0  0  0  0  0  0  0  0  0
   17.9201   12.6514   11.6248 H   0  0  0  0  0  0  0  0  0  0  0  0
   16.8837   12.2411   13.8303 H   0  0  0  0  0  0  0  0  0  0  0  0
   16.9648   12.4297   16.3113 H   0  0  0  0  0  0  0  0  0  0  0  0
   18.9121   13.5057   17.4338 H   0  0  0  0  0  0  0  0  0  0  0  0
   20.8001   14.4018   16.0671 H   0  0  0  0  0  0  0  0  0  0  0  0
   22.3017   14.8898    7.0129 H   0  0  0  0  0  0  0  0  0  0  0  0
  1  2  1  0
  2  3  1  0
  3  4  2  0
  4  5  1  0
  5  6  1  0
  6  7  2  0
  6  8  2  0
  6  9  1  0
  9 10  2  0
 10 11  1  0
 11 12  2  0
 11 13  1  0
 13 14  1  0
 14 15  1  0
 15 16  1  0
 16 17  1  0
 17 18  2  0
 17 19  1  0
 19 20  1  0
 20 21  2  0
 10 22  1  0
 22 23  1  0
 23 24  2  0
 24 25  1  0
 25 26  2  0
 26 27  1  0
 27 28  2  0
 28 29  1  0
 29 30  2  0
 30 31  1  0
 31 32  2  0
  5 33  1  0
 33 34  2  0
 34  3  1  0
 24  9  1  0
 32 27  1  0
 20 14  1  0
 32 23  1  0
  1 35  1  0
  1 36  1  0
  1 37  1  0
  2 38  1  0
  2 39  1  0
  4 40  1  0
 13 41  1  0
 14 42  1  6
 15 43  1  0
 15 44  1  0
 16 45  1  0
 16 46  1  0
 19 47  1  0
 25 48  1  0
 26 49  1  0
 28 50  1  0
 29 51  1  0
 30 52  1  0
 31 53  1  0
 33 54  1  0
M  END
>  <meeko>  (402) 
{"is_sidechain": [true], "free_energy": -10.86, "intermolecular_energy": 0.0, "internal_energy": -10.86, "cluster_size": 8, "cluster_id": 1, "rank_in_cluster": 1}

>  <_RMSD_MCS_to_ref>  (402) 
1.0310370184107527

$$$$
ligand
     RDKit          3D

 48 51  0  0  0  0  0  0  0  0999 V2000
   18.9090   19.1540    7.5370 C   0  0  0  0  0  0  0  0  0  0  0  0
   18.7730   17.6460    7.6780 C   0  0  0  0  0  0  0  0  0  0  0  0
   20.0810   16.9790    7.9260 C   0  0  0  0  0  0  0  0  0  0  0  0
   20.4300   16.1200    8.9490 C   0  0  0  0  0  0  0  0  0  0  0  0
   21.7360   15.8090    8.6980 N   0  0  0  0  0  0  0  0  0  0  0  0
   22.7550   14.9410    9.7280 S   0  0  0  0  0  6  0  0  0  0  0  0
   23.7820   15.8960   10.1130 O   0  0  0  0  0  0  0  0  0  0  0  0
   23.1200   13.7780    8.9320 O   0  0  0  0  0  0  0  0  0  0  0  0
   21.9290   14.4030   11.1420 C   0  0  0  0  0  0  0  0  0  0  0  0
   21.1240   13.3260   11.0450 C   0  0  0  0  0  0  0  0  0  0  0  0
   20.4510   12.8370   12.2370 C   0  0  0  0  0  0  0  0  0  0  0  0
   20.6300   13.4230   13.4340 C   0  0  0  0  0  0  0  0  0  0  0  0
   21.4920   14.5510   13.5370 C   0  0  0  0  0  0  0  0  0  0  0  0
   21.9120   15.3480   14.5750 C   0  0  0  0  0  0  0  0  0  0  0  0
   22.7680   16.3030   13.9820 C   0  0  0  0  0  0  0  0  0  0  0  0
   23.5050   17.3880   14.6500 C   0  0  0  0  0  0  0  0  0  0  0  0
   23.0700   17.9830   15.6290 O   0  0  0  0  0  0  0  0  0  0  0  0
   24.7270   17.6620   14.0660 N   0  0  0  0  0  0  0  0  0  0  0  0
   25.7750   18.3290   14.8140 C   0  0  2  0  0  0  0  0  0  0  0  0
   25.6680   18.0160   16.3000 C   0  0  0  0  0  0  0  0  0  0  0  0
   26.7730   18.7410   17.0530 C   0  0  0  0  0  0  0  0  0  0  0  0
   26.7290   20.2280   16.7930 C   0  0  0  0  0  0  0  0  0  0  0  0
   27.0870   21.0510   17.6310 O   0  0  0  0  0  0  0  0  0  0  0  0
   26.3060   20.6230   15.5490 N   0  0  0  0  0  0  0  0  0  0  0  0
   25.6620   19.8500   14.6120 C   0  0  0  0  0  0  0  0  0  0  0  0
   25.0690   20.3750   13.6700 O   0  0  0  0  0  0  0  0  0  0  0  0
   22.8670   16.1060   12.6570 N   0  0  0  0  0  0  0  0  0  0  0  0
   22.1160   15.0190   12.3750 N   0  0  0  0  0  0  0  0  0  0  0  0
   22.1390   16.4580    7.5730 C   0  0  0  0  0  0  0  0  0  0  0  0
   21.1610   17.2040    7.0920 N   0  0  0  0  0  0  0  0  0  0  0  0
   18.9504   19.6134    8.5356 H   0  0  0  0  0  0  0  0  0  0  0  0
   19.8320   19.3891    6.9867 H   0  0  0  0  0  0  0  0  0  0  0  0
   18.0430   19.5504    6.9867 H   0  0  0  0  0  0  0  0  0  0  0  0
   18.1004   17.4292    8.5210 H   0  0  0  0  0  0  0  0  0  0  0  0
   18.3714   17.2554    6.7313 H   0  0  0  0  0  0  0  0  0  0  0  0
   19.7994   15.7664    9.7780 H   0  0  0  0  0  0  0  0  0  0  0  0
   20.9784   12.8241   10.0770 H   0  0  0  0  0  0  0  0  0  0  0  0
   19.7806   11.9685   12.1581 H   0  0  0  0  0  0  0  0  0  0  0  0
   20.1152   13.0344   14.3250 H   0  0  0  0  0  0  0  0  0  0  0  0
   21.6405   15.2612   15.6374 H   0  0  0  0  0  0  0  0  0  0  0  0
   24.8956   17.3891   13.0872 H   0  0  0  0  0  0  0  0  0  0  0  0
   26.7461   17.9670   14.4453 H   0  0  0  0  0  0  0  0  0  0  0  0
   24.6892   18.3494   16.6752 H   0  0  0  0  0  0  0  0  0  0  0  0
   25.7704   16.9317   16.4541 H   0  0  0  0  0  0  0  0  0  0  0  0
   26.6492   18.5618   18.1312 H   0  0  0  0  0  0  0  0  0  0  0  0
   27.7422   18.3557   16.7036 H   0  0  0  0  0  0  0  0  0  0  0  0
   26.4905   21.6026   15.2896 H   0  0  0  0  0  0  0  0  0  0  0  0
   23.1404   16.3734    7.1257 H   0  0  0  0  0  0  0  0  0  0  0  0
  1  2  1  0
  2  3  1  0
  3  4  2  0
  4  5  1  0
  5  6  1  0
  6  7  2  0
  6  8  2  0
  6  9  1  0
  9 10  2  0
 10 11  1  0
 11 12  2  0
 12 13  1  0
 13 14  2  0
 14 15  1  0
 15 16  1  0
 16 17  2  0
 16 18  1  0
 18 19  1  0
 19 20  1  0
 20 21  1  0
 21 22  1  0
 22 23  2  0
 22 24  1  0
 24 25  1  0
 25 26  2  0
 15 27  2  0
 27 28  1  0
  5 29  1  0
 29 30  2  0
 30  3  1  0
 28  9  1  0
 28 13  1  0
 25 19  1  0
  1 31  1  0
  1 32  1  0
  1 33  1  0
  2 34  1  0
  2 35  1  0
  4 36  1  0
 10 37  1  0
 11 38  1  0
 12 39  1  0
 14 40  1  0
 18 41  1  0
 19 42  1  6
 20 43  1  0
 20 44  1  0
 21 45  1  0
 21 46  1  0
 24 47  1  0
 29 48  1  0
M  END
>  <meeko>  (403) 
{"is_sidechain": [true], "free_energy": -10.86, "intermolecular_energy": 0.0, "internal_energy": -10.86, "cluster_size": 13, "cluster_id": 1, "rank_in_cluster": 1}

>  <_RMSD_MCS_to_ref>  (403) 
0.627743932224314

$$$$
ligand
     RDKit          3D

 47 50  0  0  0  0  0  0  0  0999 V2000
   18.9090   19.1540    7.5370 C   0  0  0  0  0  0  0  0  0  0  0  0
   18.7730   17.6460    7.6780 C   0  0  0  0  0  0  0  0  0  0  0  0
   20.0900   16.9770    7.8560 C   0  0  0  0  0  0  0  0  0  0  0  0
   20.6280   16.4110    8.9960 C   0  0  0  0  0  0  0  0  0  0  0  0
   21.8470   15.9410    8.5980 N   0  0  0  0  0  0  0  0  0  0  0  0
   22.8010   14.8440    9.4540 S   0  0  0  0  0  6  0  0  0  0  0  0
   24.1570   15.3530    9.3640 O   0  0  0  0  0  0  0  0  0  0  0  0
   22.4240   13.5290    8.9690 O   0  0  0  0  0  0  0  0  0  0  0  0
   22.2440   15.0090   11.1330 C   0  0  0  0  0  0  0  0  0  0  0  0
   21.2580   14.1650   11.6280 C   0  0  0  0  0  0  0  0  0  0  0  0
   20.9410   14.3580   12.9790 C   0  0  0  0  0  0  0  0  0  0  0  0
   20.0560   13.7840   13.9180 C   0  0  0  0  0  0  0  0  0  0  0  0
   20.1540   14.3400   15.1290 N   0  0  0  0  0  0  0  0  0  0  0  0
   21.1120   15.2730   14.9760 N   0  0  0  0  0  0  0  0  0  0  0  0
   21.6140   15.3370   13.7040 C   0  0  0  0  0  0  0  0  0  0  0  0
   22.5870   16.1420   13.1390 C   0  0  0  0  0  0  0  0  0  0  0  0
   23.3430   17.1640   13.9050 C   0  0  0  0  0  0  0  0  0  0  0  0
   22.9730   17.5130   15.0200 O   0  0  0  0  0  0  0  0  0  0  0  0
   24.4670   17.6410   13.2590 N   0  0  0  0  0  0  0  0  0  0  0  0
   25.5220   18.3230   13.9840 C   0  0  2  0  0  0  0  0  0  0  0  0
   25.5900   17.8300   15.4240 C   0  0  0  0  0  0  0  0  0  0  0  0
   26.6850   18.5780   16.1690 C   0  0  0  0  0  0  0  0  0  0  0  0
   26.4770   20.0710   16.0920 C   0  0  0  0  0  0  0  0  0  0  0  0
   26.7640   20.8270   17.0150 O   0  0  0  0  0  0  0  0  0  0  0  0
   25.9700   20.5600   14.9150 N   0  0  0  0  0  0  0  0  0  0  0  0
   25.2510   19.8370   13.9930 C   0  0  0  0  0  0  0  0  0  0  0  0
   24.4560   20.3990   13.2410 O   0  0  0  0  0  0  0  0  0  0  0  0
   22.8950   15.9740   11.8280 N   0  0  0  0  0  0  0  0  0  0  0  0
   22.0120   16.2060    7.2740 C   0  0  0  0  0  0  0  0  0  0  0  0
   20.9550   16.8250    6.7880 N   0  0  0  0  0  0  0  0  0  0  0  0
   18.9504   19.6134    8.5356 H   0  0  0  0  0  0  0  0  0  0  0  0
   19.8320   19.3891    6.9867 H   0  0  0  0  0  0  0  0  0  0  0  0
   18.0430   19.5504    6.9867 H   0  0  0  0  0  0  0  0  0  0  0  0
   18.1435   17.4274    8.5532 H   0  0  0  0  0  0  0  0  0  0  0  0
   18.3204   17.2598    6.7528 H   0  0  0  0  0  0  0  0  0  0  0  0
   20.1766   16.3523    9.9974 H   0  0  0  0  0  0  0  0  0  0  0  0
   20.7639   13.4034   11.0068 H   0  0  0  0  0  0  0  0  0  0  0  0
   19.3603   12.9665   13.6780 H   0  0  0  0  0  0  0  0  0  0  0  0
   21.4362   15.8803   15.7421 H   0  0  0  0  0  0  0  0  0  0  0  0
   24.5578   17.5096   12.2415 H   0  0  0  0  0  0  0  0  0  0  0  0
   26.4776   18.1110   13.4821 H   0  0  0  0  0  0  0  0  0  0  0  0
   24.6235   18.0086   15.9180 H   0  0  0  0  0  0  0  0  0  0  0  0
   25.8140   16.7531   15.4309 H   0  0  0  0  0  0  0  0  0  0  0  0
   26.6763   18.2687   17.2246 H   0  0  0  0  0  0  0  0  0  0  0  0
   27.6511   18.3368   15.7016 H   0  0  0  0  0  0  0  0  0  0  0  0
   26.1427   21.5533   14.7041 H   0  0  0  0  0  0  0  0  0  0  0  0
   22.9050   15.9401    6.6894 H   0  0  0  0  0  0  0  0  0  0  0  0
  1  2  1  0
  2  3  1  0
  3  4  2  0
  4  5  1  0
  5  6  1  0
  6  7  2  0
  6  8  2  0
  6  9  1  0
  9 10  2  0
 10 11  1  0
 11 12  1  0
 12 13  2  0
 13 14  1  0
 14 15  1  0
 15 16  1  0
 16 17  1  0
 17 18  2  0
 17 19  1  0
 19 20  1  0
 20 21  1  0
 21 22  1  0
 22 23  1  0
 23 24  2  0
 23 25  1  0
 25 26  1  0
 26 27  2  0
 16 28  2  0
  5 29  1  0
 29 30  2  0
 30  3  1  0
 28  9  1  0
 15 11  2  0
 26 20  1  0
  1 31  1  0
  1 32  1  0
  1 33  1  0
  2 34  1  0
  2 35  1  0
  4 36  1  0
 10 37  1  0
 12 38  1  0
 14 39  1  0
 19 40  1  0
 20 41  1  6
 21 42  1  0
 21 43  1  0
 22 44  1  0
 22 45  1  0
 25 46  1  0
 29 47  1  0
M  END
>  <meeko>  (404) 
{"is_sidechain": [true], "free_energy": -10.86, "intermolecular_energy": 0.0, "internal_energy": -10.86, "cluster_size": 20, "cluster_id": 1, "rank_in_cluster": 1}

>  <_RMSD_MCS_to_ref>  (404) 
0.5776489706849078

$$$$
ligand
     RDKit          3D

 50 53  0  0  0  0  0  0  0  0999 V2000
   18.9090   19.1540    7.5370 C   0  0  0  0  0  0  0  0  0  0  0  0
   18.7730   17.6460    7.6780 C   0  0  0  0  0  0  0  0  0  0  0  0
   20.0660   16.9420    7.4590 C   0  0  0  0  0  0  0  0  0  0  0  0
   20.8790   16.3110    8.3800 C   0  0  0  0  0  0  0  0  0  0  0  0
   21.9120   15.8220    7.6350 N   0  0  0  0  0  0  0  0  0  0  0  0
   23.3300   15.1520    8.2380 S   0  0  0  0  0  6  0  0  0  0  0  0
   24.4050   15.9680    7.7100 O   0  0  0  0  0  0  0  0  0  0  0  0
   23.2390   13.7280    7.9860 O   0  0  0  0  0  0  0  0  0  0  0  0
   23.2180   15.4230    9.9670 C   0  0  0  0  0  0  0  0  0  0  0  0
   23.9920   16.3970   10.5520 C   0  0  0  0  0  0  0  0  0  0  0  0
   23.9640   16.6530   11.8810 N   0  0  0  0  0  0  0  0  0  0  0  0
   23.1330   15.9440   12.6920 C   0  0  0  0  0  0  0  0  0  0  0  0
   23.0650   16.1580   14.0810 C   0  0  0  0  0  0  0  0  0  0  0  0
   23.9080   17.1760   14.7910 C   0  0  0  0  0  0  0  0  0  0  0  0
   23.4480   17.8140   15.7340 O   0  0  0  0  0  0  0  0  0  0  0  0
   25.1950   17.3600   14.3510 N   0  0  0  0  0  0  0  0  0  0  0  0
   26.1490   18.2050   15.0450 C   0  0  2  0  0  0  0  0  0  0  0  0
   26.0770   18.0220   16.5580 C   0  0  0  0  0  0  0  0  0  0  0  0
   27.0860   18.9390   17.2290 C   0  0  0  0  0  0  0  0  0  0  0  0
   26.8700   20.3790   16.8290 C   0  0  0  0  0  0  0  0  0  0  0  0
   27.0910   21.3150   17.5910 O   0  0  0  0  0  0  0  0  0  0  0  0
   26.4410   20.6020   15.5460 N   0  0  0  0  0  0  0  0  0  0  0  0
   25.8690   19.6760   14.7060 C   0  0  0  0  0  0  0  0  0  0  0  0
   25.1970   20.0350   13.7400 O   0  0  0  0  0  0  0  0  0  0  0  0
   22.1910   15.4030   14.8880 C   0  0  0  0  0  0  0  0  0  0  0  0
   21.3720   14.4310   14.3280 C   0  0  0  0  0  0  0  0  0  0  0  0
   21.4240   14.2020   12.9580 C   0  0  0  0  0  0  0  0  0  0  0  0
   22.2940   14.9420   12.1440 C   0  0  0  0  0  0  0  0  0  0  0  0
   22.3450   14.6920   10.7640 C   0  0  0  0  0  0  0  0  0  0  0  0
   21.7400   16.1890    6.3400 C   0  0  0  0  0  0  0  0  0  0  0  0
   20.6200   16.8650    6.1960 N   0  0  0  0  0  0  0  0  0  0  0  0
   18.9504   19.6134    8.5356 H   0  0  0  0  0  0  0  0  0  0  0  0
   19.8320   19.3891    6.9867 H   0  0  0  0  0  0  0  0  0  0  0  0
   18.0430   19.5504    6.9867 H   0  0  0  0  0  0  0  0  0  0  0  0
   18.4116   17.4161    8.6912 H   0  0  0  0  0  0  0  0  0  0  0  0
   18.0648   17.2977    6.9118 H   0  0  0  0  0  0  0  0  0  0  0  0
   20.7281   16.2228    9.4660 H   0  0  0  0  0  0  0  0  0  0  0  0
   24.6615   16.9927    9.9141 H   0  0  0  0  0  0  0  0  0  0  0  0
   25.4964   16.8780   13.4921 H   0  0  0  0  0  0  0  0  0  0  0  0
   27.1565   17.9144   14.7126 H   0  0  0  0  0  0  0  0  0  0  0  0
   25.0649   18.2712   16.9095 H   0  0  0  0  0  0  0  0  0  0  0  0
   26.3069   16.9766   16.8117 H   0  0  0  0  0  0  0  0  0  0  0  0
   26.9802   18.8506   18.3203 H   0  0  0  0  0  0  0  0  0  0  0  0
   28.0947   18.6377   16.9100 H   0  0  0  0  0  0  0  0  0  0  0  0
   26.5587   21.5558   15.1755 H   0  0  0  0  0  0  0  0  0  0  0  0
   22.1569   15.5852   15.9723 H   0  0  0  0  0  0  0  0  0  0  0  0
   20.6886   13.8479   14.9628 H   0  0  0  0  0  0  0  0  0  0  0  0
   20.7774   13.4340   12.5085 H   0  0  0  0  0  0  0  0  0  0  0  0
   21.6985   13.9228   10.3162 H   0  0  0  0  0  0  0  0  0  0  0  0
   22.4394   15.9542    5.5241 H   0  0  0  0  0  0  0  0  0  0  0  0
  1  2  1  0
  2  3  1  0
  3  4  2  0
  4  5  1  0
  5  6  1  0
  6  7  2  0
  6  8  2  0
  6  9  1  0
  9 10  2  0
 10 11  1  0
 11 12  2  0
 12 13  1  0
 13 14  1  0
 14 15  2  0
 14 16  1  0
 16 17  1  0
 17 18  1  0
 18 19  1  0
 19 20  1  0
 20 21  2  0
 20 22  1  0
 22 23  1  0
 23 24  2  0
 13 25  2  0
 25 26  1  0
 26 27  2  0
 27 28  1  0
 28 29  2  0
  5 30  1  0
 30 31  2  0
 31  3  1  0
 29  9  1  0
 28 12  1  0
 23 17  1  0
  1 32  1  0
  1 33  1  0
  1 34  1  0
  2 35  1  0
  2 36  1  0
  4 37  1  0
 10 38  1  0
 16 39  1  0
 17 40  1  6
 18 41  1  0
 18 42  1  0
 19 43  1  0
 19 44  1  0
 22 45  1  0
 25 46  1  0
 26 47  1  0
 27 48  1  0
 29 49  1  0
 30 50  1  0
M  END
>  <meeko>  (405) 
{"is_sidechain": [true], "free_energy": -10.86, "intermolecular_energy": 0.0, "internal_energy": -10.86, "cluster_size": 19, "cluster_id": 1, "rank_in_cluster": 1}

>  <_RMSD_MCS_to_ref>  (405) 
0.8834783528757227

$$$$
ligand
     RDKit          3D

 49 52  0  0  0  0  0  0  0  0999 V2000
   18.9090   19.1540    7.5370 C   0  0  0  0  0  0  0  0  0  0  0  0
   18.7730   17.6460    7.6780 C   0  0  0  0  0  0  0  0  0  0  0  0
   20.0900   16.9540    7.6130 C   0  0  0  0  0  0  0  0  0  0  0  0
   20.9560   16.6330    8.6390 C   0  0  0  0  0  0  0  0  0  0  0  0
   22.0070   16.0290    8.0140 N   0  0  0  0  0  0  0  0  0  0  0  0
   23.2980   15.2470    8.7510 S   0  0  0  0  0  6  0  0  0  0  0  0
   24.4930   15.9830    8.3920 O   0  0  0  0  0  0  0  0  0  0  0  0
   23.1320   13.8490    8.4040 O   0  0  0  0  0  0  0  0  0  0  0  0
   22.9910   15.4380   10.4940 C   0  0  0  0  0  0  0  0  0  0  0  0
   23.8120   16.3440   11.1710 C   0  0  0  0  0  0  0  0  0  0  0  0
   23.6190   16.4940   12.5270 C   0  0  0  0  0  0  0  0  0  0  0  0
   24.4810   17.4360   13.3110 C   0  0  0  0  0  0  0  0  0  0  0  0
   25.6220   17.7040   12.9550 O   0  0  0  0  0  0  0  0  0  0  0  0
   23.8940   17.9440   14.4460 N   0  0  0  0  0  0  0  0  0  0  0  0
   24.6270   18.7320   15.4200 C   0  0  1  0  0  0  0  0  0  0  0  0
   25.7350   17.9280   16.0910 C   0  0  0  0  0  0  0  0  0  0  0  0
   26.4790   18.8130   17.0790 C   0  0  0  0  0  0  0  0  0  0  0  0
   27.0150   20.0550   16.4050 C   0  0  0  0  0  0  0  0  0  0  0  0
   28.0670   20.5860   16.7460 O   0  0  0  0  0  0  0  0  0  0  0  0
   26.2460   20.5900   15.4020 N   0  0  0  0  0  0  0  0  0  0  0  0
   25.2450   19.9470   14.7180 C   0  0  0  0  0  0  0  0  0  0  0  0
   24.8710   20.3490   13.6170 O   0  0  0  0  0  0  0  0  0  0  0  0
   22.6810   15.8140   13.2290 N   0  0  0  0  0  0  0  0  0  0  0  0
   21.8830   14.9550   12.5670 C   0  0  0  0  0  0  0  0  0  0  0  0
   20.9120   14.2550   13.2670 C   0  0  0  0  0  0  0  0  0  0  0  0
   20.0330   13.3680   12.7410 N   0  0  0  0  0  0  0  0  0  0  0  0
   20.1180   13.1650   11.4190 C   0  0  0  0  0  0  0  0  0  0  0  0
   21.0500   13.7990   10.6130 C   0  0  0  0  0  0  0  0  0  0  0  0
   21.9740   14.7170   11.1790 C   0  0  0  0  0  0  0  0  0  0  0  0
   21.7670   15.9860    6.6780 C   0  0  0  0  0  0  0  0  0  0  0  0
   20.6030   16.5340    6.4010 N   0  0  0  0  0  0  0  0  0  0  0  0
   18.9504   19.6134    8.5356 H   0  0  0  0  0  0  0  0  0  0  0  0
   19.8320   19.3891    6.9867 H   0  0  0  0  0  0  0  0  0  0  0  0
   18.0430   19.5504    6.9867 H   0  0  0  0  0  0  0  0  0  0  0  0
   18.3024   17.4218    8.6466 H   0  0  0  0  0  0  0  0  0  0  0  0
   18.1588   17.2825    6.8409 H   0  0  0  0  0  0  0  0  0  0  0  0
   20.8277   16.8214    9.7151 H   0  0  0  0  0  0  0  0  0  0  0  0
   24.5857   16.9176   10.6396 H   0  0  0  0  0  0  0  0  0  0  0  0
   22.8946   17.7580   14.6116 H   0  0  0  0  0  0  0  0  0  0  0  0
   23.9188   19.0469   16.2006 H   0  0  0  0  0  0  0  0  0  0  0  0
   25.2952   17.0725   16.6246 H   0  0  0  0  0  0  0  0  0  0  0  0
   26.4366   17.5630   15.3264 H   0  0  0  0  0  0  0  0  0  0  0  0
   25.7902   19.1103   17.8835 H   0  0  0  0  0  0  0  0  0  0  0  0
   27.3279   18.2437   17.4855 H   0  0  0  0  0  0  0  0  0  0  0  0
   26.4384   21.5667   15.1376 H   0  0  0  0  0  0  0  0  0  0  0  0
   20.8495   14.4367   14.3501 H   0  0  0  0  0  0  0  0  0  0  0  0
   19.4139   12.4611   10.9512 H   0  0  0  0  0  0  0  0  0  0  0  0
   21.0742   13.5909    9.5331 H   0  0  0  0  0  0  0  0  0  0  0  0
   22.4499   15.5537    5.9319 H   0  0  0  0  0  0  0  0  0  0  0  0
  1  2  1  0
  2  3  1  0
  3  4  2  0
  4  5  1  0
  5  6  1  0
  6  7  2  0
  6  8  2  0
  6  9  1  0
  9 10  2  0
 10 11  1  0
 11 12  1  0
 12 13  2  0
 12 14  1  0
 14 15  1  0
 15 16  1  0
 16 17  1  0
 17 18  1  0
 18 19  2  0
 18 20  1  0
 20 21  1  0
 21 22  2  0
 11 23  2  0
 23 24  1  0
 24 25  2  0
 25 26  1  0
 26 27  2  0
 27 28  1  0
 28 29  2  0
  5 30  1  0
 30 31  2  0
 31  3  1  0
 29  9  1  0
 21 15  1  0
 29 24  1  0
  1 32  1  0
  1 33  1  0
  1 34  1  0
  2 35  1  0
  2 36  1  0
  4 37  1  0
 10 38  1  0
 14 39  1  0
 15 40  1  1
 16 41  1  0
 16 42  1  0
 17 43  1  0
 17 44  1  0
 20 45  1  0
 25 46  1  0
 27 47  1  0
 28 48  1  0
 30 49  1  0
M  END
>  <meeko>  (406) 
{"is_sidechain": [true], "free_energy": -10.86, "intermolecular_energy": 0.0, "internal_energy": -10.86, "cluster_size": 20, "cluster_id": 1, "rank_in_cluster": 1}

>  <_RMSD_MCS_to_ref>  (406) 
0.659399221514049

$$$$
ligand
     RDKit          3D

 49 52  0  0  0  0  0  0  0  0999 V2000
   18.9090   19.1540    7.5370 C   0  0  0  0  0  0  0  0  0  0  0  0
   18.7730   17.6460    7.6780 C   0  0  0  0  0  0  0  0  0  0  0  0
   19.9440   16.9210    7.1160 C   0  0  0  0  0  0  0  0  0  0  0  0
   21.2900   17.1920    7.2650 C   0  0  0  0  0  0  0  0  0  0  0  0
   21.9100   16.2360    6.5130 N   0  0  0  0  0  0  0  0  0  0  0  0
   23.5580   15.9530    6.4500 S   0  0  0  0  0  6  0  0  0  0  0  0
   24.1990   17.2570    6.4830 O   0  0  0  0  0  0  0  0  0  0  0  0
   23.7750   15.0180    5.3640 O   0  0  0  0  0  0  0  0  0  0  0  0
   24.0400   15.1420    7.9420 C   0  0  0  0  0  0  0  0  0  0  0  0
   24.2050   15.7790    9.0540 N   0  0  0  0  0  0  0  0  0  0  0  0
   24.5780   15.0140   10.1640 C   0  0  0  0  0  0  0  0  0  0  0  0
   24.7220   15.7300   11.2950 N   0  0  0  0  0  0  0  0  0  0  0  0
   25.0910   15.0410   12.4110 C   0  0  0  0  0  0  0  0  0  0  0  0
   25.2410   15.8520   13.6620 C   0  0  0  0  0  0  0  0  0  0  0  0
   25.2580   15.3280   14.7690 O   0  0  0  0  0  0  0  0  0  0  0  0
   25.3460   17.2090   13.4570 N   0  0  0  0  0  0  0  0  0  0  0  0
   25.3560   18.1660   14.5460 C   0  0  1  0  0  0  0  0  0  0  0  0
   26.2680   17.7190   15.6840 C   0  0  0  0  0  0  0  0  0  0  0  0
   26.2540   18.7640   16.7880 C   0  0  0  0  0  0  0  0  0  0  0  0
   26.6440   20.1250   16.2610 C   0  0  0  0  0  0  0  0  0  0  0  0
   27.2470   20.9470   16.9450 O   0  0  0  0  0  0  0  0  0  0  0  0
   26.2580   20.4210   14.9790 N   0  0  0  0  0  0  0  0  0  0  0  0
   25.8310   19.5270   14.0250 C   0  0  0  0  0  0  0  0  0  0  0  0
   25.8170   19.8360   12.8350 O   0  0  0  0  0  0  0  0  0  0  0  0
   25.3200   13.6690   12.4410 C   0  0  0  0  0  0  0  0  0  0  0  0
   25.1640   12.9510   11.2580 C   0  0  0  0  0  0  0  0  0  0  0  0
   24.7860   13.6410   10.1080 C   0  0  0  0  0  0  0  0  0  0  0  0
   24.6000   12.9740    8.8120 C   0  0  0  0  0  0  0  0  0  0  0  0
   24.7900   11.7750    8.6690 O   0  0  0  0  0  0  0  0  0  0  0  0
   24.2140   13.7880    7.7830 N   0  0  0  0  0  0  0  0  0  0  0  0
   20.9750   15.3960    6.0010 C   0  0  0  0  0  0  0  0  0  0  0  0
   19.7650   15.7990    6.3320 N   0  0  0  0  0  0  0  0  0  0  0  0
   18.9504   19.6134    8.5356 H   0  0  0  0  0  0  0  0  0  0  0  0
   19.8320   19.3891    6.9867 H   0  0  0  0  0  0  0  0  0  0  0  0
   18.0430   19.5504    6.9867 H   0  0  0  0  0  0  0  0  0  0  0  0
   18.6812   17.3969    8.7455 H   0  0  0  0  0  0  0  0  0  0  0  0
   17.8808   17.3335    7.1157 H   0  0  0  0  0  0  0  0  0  0  0  0
   21.7561   17.9949    7.8550 H   0  0  0  0  0  0  0  0  0  0  0  0
   25.4205   17.5586   12.4910 H   0  0  0  0  0  0  0  0  0  0  0  0
   24.3311   18.2402   14.9385 H   0  0  0  0  0  0  0  0  0  0  0  0
   25.9106   16.7587   16.0841 H   0  0  0  0  0  0  0  0  0  0  0  0
   27.2940   17.6007   15.3054 H   0  0  0  0  0  0  0  0  0  0  0  0
   25.2415   18.8215   17.2141 H   0  0  0  0  0  0  0  0  0  0  0  0
   26.9834   18.4672   17.5561 H   0  0  0  0  0  0  0  0  0  0  0  0
   26.2912   21.4127   14.7026 H   0  0  0  0  0  0  0  0  0  0  0  0
   25.6160   13.1655   13.3731 H   0  0  0  0  0  0  0  0  0  0  0  0
   25.3352   11.8647   11.2320 H   0  0  0  0  0  0  0  0  0  0  0  0
   24.0478   13.3714    6.8558 H   0  0  0  0  0  0  0  0  0  0  0  0
   21.1961   14.5048    5.3953 H   0  0  0  0  0  0  0  0  0  0  0  0
  1  2  1  0
  2  3  1  0
  3  4  2  0
  4  5  1  0
  5  6  1  0
  6  7  2  0
  6  8  2  0
  6  9  1  0
  9 10  2  0
 10 11  1  0
 11 12  2  0
 12 13  1  0
 13 14  1  0
 14 15  2  0
 14 16  1  0
 16 17  1  0
 17 18  1  0
 18 19  1  0
 19 20  1  0
 20 21  2  0
 20 22  1  0
 22 23  1  0
 23 24  2  0
 13 25  2  0
 25 26  1  0
 26 27  2  0
 27 28  1  0
 28 29  2  0
 28 30  1  0
  5 31  1  0
 31 32  2  0
 32  3  1  0
 30  9  1  0
 27 11  1  0
 23 17  1  0
  1 33  1  0
  1 34  1  0
  1 35  1  0
  2 36  1  0
  2 37  1  0
  4 38  1  0
 16 39  1  0
 17 40  1  1
 18 41  1  0
 18 42  1  0
 19 43  1  0
 19 44  1  0
 22 45  1  0
 25 46  1  0
 26 47  1  0
 30 48  1  0
 31 49  1  0
M  END
>  <meeko>  (407) 
{"is_sidechain": [true], "free_energy": -10.86, "intermolecular_energy": 0.0, "internal_energy": -10.86, "cluster_size": 20, "cluster_id": 1, "rank_in_cluster": 1}

>  <_RMSD_MCS_to_ref>  (407) 
0.6504922922081566

$$$$
ligand
     RDKit          3D

 53 57  0  0  0  0  0  0  0  0999 V2000
   18.9090   19.1540    7.5370 C   0  0  0  0  0  0  0  0  0  0  0  0
   18.7730   17.6460    7.6780 C   0  0  0  0  0  0  0  0  0  0  0  0
   20.0010   16.9010    7.2760 C   0  0  0  0  0  0  0  0  0  0  0  0
   20.3680   15.6120    7.6120 C   0  0  0  0  0  0  0  0  0  0  0  0
   21.5510   15.4180    6.9610 N   0  0  0  0  0  0  0  0  0  0  0  0
   22.5880   14.1140    7.1280 S   0  0  0  0  0  6  0  0  0  0  0  0
   22.3300   13.2720    5.9760 O   0  0  0  0  0  0  0  0  0  0  0  0
   22.4550   13.6410    8.4940 O   0  0  0  0  0  0  0  0  0  0  0  0
   24.2270   14.6990    6.9780 C   0  0  0  0  0  0  0  0  0  0  0  0
   24.9720   14.5440    5.8640 N   0  0  0  0  0  0  0  0  0  0  0  0
   26.1350   15.1420    6.1630 N   0  0  0  0  0  0  0  0  0  0  0  0
   26.1530   15.7110    7.4000 C   0  0  0  0  0  0  0  0  0  0  0  0
   24.9280   15.4360    7.9700 C   0  0  0  0  0  0  0  0  0  0  0  0
   24.5660   15.8720    9.3000 C   0  0  0  0  0  0  0  0  0  0  0  0
   23.2370   15.7160    9.7510 C   0  0  0  0  0  0  0  0  0  0  0  0
   22.8610   16.1480   11.0260 C   0  0  0  0  0  0  0  0  0  0  0  0
   23.8370   16.7200   11.8170 C   0  0  0  0  0  0  0  0  0  0  0  0
   25.1560   16.8780   11.3920 C   0  0  0  0  0  0  0  0  0  0  0  0
   25.5380   16.4570   10.1300 C   0  0  0  0  0  0  0  0  0  0  0  0
   25.9580   17.5430   12.4600 C   0  0  0  0  0  0  0  0  0  0  0  0
   25.0020   17.6580   13.5530 N   0  0  0  0  0  0  0  0  0  0  0  0
   25.2290   18.4790   14.7370 C   0  0  1  0  0  0  0  0  0  0  0  0
   26.2270   17.8460   15.7020 C   0  0  0  0  0  0  0  0  0  0  0  0
   26.3450   18.7150   16.9460 C   0  0  0  0  0  0  0  0  0  0  0  0
   26.7270   20.1320   16.5870 C   0  0  0  0  0  0  0  0  0  0  0  0
   27.4620   20.8130   17.2960 O   0  0  0  0  0  0  0  0  0  0  0  0
   26.1940   20.6370   15.4290 N   0  0  0  0  0  0  0  0  0  0  0  0
   25.7090   19.8950   14.3760 C   0  0  0  0  0  0  0  0  0  0  0  0
   25.6860   20.3680   13.2420 O   0  0  0  0  0  0  0  0  0  0  0  0
   23.7270   17.2580   13.1750 C   0  0  0  0  0  0  0  0  0  0  0  0
   22.6990   17.3300   13.8190 O   0  0  0  0  0  0  0  0  0  0  0  0
   21.8780   16.5480    6.2840 C   0  0  0  0  0  0  0  0  0  0  0  0
   20.9560   17.4710    6.4550 N   0  0  0  0  0  0  0  0  0  0  0  0
   18.9504   19.6134    8.5356 H   0  0  0  0  0  0  0  0  0  0  0  0
   19.8320   19.3891    6.9867 H   0  0  0  0  0  0  0  0  0  0  0  0
   18.0430   19.5504    6.9867 H   0  0  0  0  0  0  0  0  0  0  0  0
   18.5521   17.4125    8.7300 H   0  0  0  0  0  0  0  0  0  0  0  0
   17.9645   17.3281    7.0033 H   0  0  0  0  0  0  0  0  0  0  0  0
   19.8288   14.9033    8.2577 H   0  0  0  0  0  0  0  0  0  0  0  0
   26.9379   15.1683    5.5183 H   0  0  0  0  0  0  0  0  0  0  0  0
   26.9798   16.2770    7.8539 H   0  0  0  0  0  0  0  0  0  0  0  0
   22.4898   15.2496    9.0920 H   0  0  0  0  0  0  0  0  0  0  0  0
   21.8273   16.0365   11.3852 H   0  0  0  0  0  0  0  0  0  0  0  0
   26.5757   16.5771    9.7854 H   0  0  0  0  0  0  0  0  0  0  0  0
   26.8207   16.9256   12.7508 H   0  0  0  0  0  0  0  0  0  0  0  0
   26.3840   18.5083   12.1491 H   0  0  0  0  0  0  0  0  0  0  0  0
   24.2513   18.5479   15.2364 H   0  0  0  0  0  0  0  0  0  0  0  0
   25.8771   16.8427   15.9866 H   0  0  0  0  0  0  0  0  0  0  0  0
   27.2099   17.7650   15.2147 H   0  0  0  0  0  0  0  0  0  0  0  0
   25.3777   18.7256   17.4696 H   0  0  0  0  0  0  0  0  0  0  0  0
   27.1303   18.2950   17.5917 H   0  0  0  0  0  0  0  0  0  0  0  0
   26.1529   21.6622   15.3391 H   0  0  0  0  0  0  0  0  0  0  0  0
   22.7867   16.6745    5.6772 H   0  0  0  0  0  0  0  0  0  0  0  0
  1  2  1  0
  2  3  1  0
  3  4  2  0
  4  5  1  0
  5  6  1  0
  6  7  2  0
  6  8  2  0
  6  9  1  0
  9 10  2  0
 10 11  1  0
 11 12  1  0
 12 13  2  0
 13 14  1  0
 14 15  2  0
 15 16  1  0
 16 17  2  0
 17 18  1  0
 18 19  2  0
 18 20  1  0
 20 21  1  0
 21 22  1  0
 22 23  1  0
 23 24  1  0
 24 25  1  0
 25 26  2  0
 25 27  1  0
 27 28  1  0
 28 29  2  0
 21 30  1  0
 30 31  2  0
  5 32  1  0
 32 33  2  0
 33  3  1  0
 13  9  1  0
 19 14  1  0
 28 22  1  0
 30 17  1  0
  1 34  1  0
  1 35  1  0
  1 36  1  0
  2 37  1  0
  2 38  1  0
  4 39  1  0
 11 40  1  0
 12 41  1  0
 15 42  1  0
 16 43  1  0
 19 44  1  0
 20 45  1  0
 20 46  1  0
 22 47  1  1
 23 48  1  0
 23 49  1  0
 24 50  1  0
 24 51  1  0
 27 52  1  0
 32 53  1  0
M  END
>  <meeko>  (408) 
{"is_sidechain": [true], "free_energy": -10.86, "intermolecular_energy": 0.0, "internal_energy": -10.86, "cluster_size": 6, "cluster_id": 2, "rank_in_cluster": 1}

>  <_RMSD_MCS_to_ref>  (408) 
0.6306231486042637

$$$$
ligand
     RDKit          3D

 54 57  0  0  0  0  0  0  0  0999 V2000
   18.7970   18.8170    7.7190 C   0  0  0  0  0  0  0  0  0  0  0  0
   18.5280   17.3290    7.8810 C   0  0  0  0  0  0  0  0  0  0  0  0
   19.7830   16.5350    7.9550 C   0  0  0  0  0  0  0  0  0  0  0  0
   20.0360   15.3720    8.6560 C   0  0  0  0  0  0  0  0  0  0  0  0
   21.3390   15.0830    8.3660 N   0  0  0  0  0  0  0  0  0  0  0  0
   22.2210   13.7980    8.9910 S   0  0  0  0  0  6  0  0  0  0  0  0
   23.2680   13.5020    8.0340 O   0  0  0  0  0  0  0  0  0  0  0  0
   21.2210   12.8100    9.3510 O   0  0  0  0  0  0  0  0  0  0  0  0
   22.9490   14.4440   10.4920 C   0  0  0  0  0  0  0  0  0  0  0  0
   24.2010   15.0630   10.3600 C   0  0  0  0  0  0  0  0  0  0  0  0
   24.8420   15.5980   11.4710 C   0  0  0  0  0  0  0  0  0  0  0  0
   24.2330   15.5320   12.7290 C   0  0  0  0  0  0  0  0  0  0  0  0
   24.9360   16.1330   13.9030 C   0  0  0  0  0  0  0  0  0  0  0  0
   25.0630   15.5060   14.9500 O   0  0  0  0  0  0  0  0  0  0  0  0
   25.4450   17.4020   13.7200 N   0  0  0  0  0  0  0  0  0  0  0  0
   26.3070   18.0130   14.7220 C   0  0  2  0  0  0  0  0  0  0  0  0
   25.7170   17.9250   16.1260 C   0  0  0  0  0  0  0  0  0  0  0  0
   26.6470   18.6180   17.1100 C   0  0  0  0  0  0  0  0  0  0  0  0
   26.9120   20.0470   16.7010 C   0  0  0  0  0  0  0  0  0  0  0  0
   27.0780   20.9470   17.5180 O   0  0  0  0  0  0  0  0  0  0  0  0
   26.9900   20.2960   15.3540 N   0  0  0  0  0  0  0  0  0  0  0  0
   26.5030   19.4890   14.3570 C   0  0  0  0  0  0  0  0  0  0  0  0
   26.2520   19.9370   13.2380 O   0  0  0  0  0  0  0  0  0  0  0  0
   22.9450   14.9590   12.8780 C   0  0  0  0  0  0  0  0  0  0  0  0
   22.3070   14.3730   11.7500 C   0  0  0  0  0  0  0  0  0  0  0  0
   20.9280   13.7700   11.9210 C   0  0  0  0  0  0  0  0  0  0  0  0
   20.5660   13.4600   13.3690 C   0  0  0  0  0  0  0  0  0  0  0  0
   20.9410   14.6400   14.2390 C   0  0  0  0  0  0  0  0  0  0  0  0
   22.3770   14.8370   14.1660 N   0  0  0  0  0  0  0  0  0  0  0  0
   21.8250   16.0210    7.5150 C   0  0  0  0  0  0  0  0  0  0  0  0
   20.9090   16.9300    7.2580 N   0  0  0  0  0  0  0  0  0  0  0  0
   18.8815   19.2845    8.7111 H   0  0  0  0  0  0  0  0  0  0  0  0
   19.7359   18.9616    7.1643 H   0  0  0  0  0  0  0  0  0  0  0  0
   17.9682   19.2812    7.1643 H   0  0  0  0  0  0  0  0  0  0  0  0
   17.9544   17.1716    8.8063 H   0  0  0  0  0  0  0  0  0  0  0  0
   17.9660   16.9899    6.9983 H   0  0  0  0  0  0  0  0  0  0  0  0
   19.3459   14.8077    9.3004 H   0  0  0  0  0  0  0  0  0  0  0  0
   24.6783   15.1253    9.3709 H   0  0  0  0  0  0  0  0  0  0  0  0
   25.8280   16.0733   11.3614 H   0  0  0  0  0  0  0  0  0  0  0  0
   25.2122   17.9242   12.8633 H   0  0  0  0  0  0  0  0  0  0  0  0
   27.2624   17.4679   14.7285 H   0  0  0  0  0  0  0  0  0  0  0  0
   24.7333   18.4171   16.1421 H   0  0  0  0  0  0  0  0  0  0  0  0
   25.6027   16.8686   16.4106 H   0  0  0  0  0  0  0  0  0  0  0  0
   26.1831   18.6109   18.1074 H   0  0  0  0  0  0  0  0  0  0  0  0
   27.6047   18.0771   17.1225 H   0  0  0  0  0  0  0  0  0  0  0  0
   27.4564   21.1677   15.0651 H   0  0  0  0  0  0  0  0  0  0  0  0
   20.1877   14.4796   11.5230 H   0  0  0  0  0  0  0  0  0  0  0  0
   20.9281   12.8126   11.3793 H   0  0  0  0  0  0  0  0  0  0  0  0
   19.4845   13.2748   13.4463 H   0  0  0  0  0  0  0  0  0  0  0  0
   21.1125   12.5658   13.7033 H   0  0  0  0  0  0  0  0  0  0  0  0
   20.4252   15.5428   13.8799 H   0  0  0  0  0  0  0  0  0  0  0  0
   20.6426   14.4467   15.2800 H   0  0  0  0  0  0  0  0  0  0  0  0
   22.9568   14.8857   15.0159 H   0  0  0  0  0  0  0  0  0  0  0  0
   22.8429   16.0216    7.0980 H   0  0  0  0  0  0  0  0  0  0  0  0
  1  2  1  0
  2  3  1  0
  3  4  2  0
  4  5  1  0
  5  6  1  0
  6  7  2  0
  6  8  2  0
  6  9  1  0
  9 10  2  0
 10 11  1  0
 11 12  2  0
 12 13  1  0
 13 14  2  0
 13 15  1  0
 15 16  1  0
 16 17  1  0
 17 18  1  0
 18 19  1  0
 19 20  2  0
 19 21  1  0
 21 22  1  0
 22 23  2  0
 12 24  1  0
 24 25  2  0
 25 26  1  0
 26 27  1  0
 27 28  1  0
 28 29  1  0
  5 30  1  0
 30 31  2  0
 31  3  1  0
 25  9  1  0
 22 16  1  0
 29 24  1  0
  1 32  1  0
  1 33  1  0
  1 34  1  0
  2 35  1  0
  2 36  1  0
  4 37  1  0
 10 38  1  0
 11 39  1  0
 15 40  1  0
 16 41  1  1
 17 42  1  0
 17 43  1  0
 18 44  1  0
 18 45  1  0
 21 46  1  0
 26 47  1  0
 26 48  1  0
 27 49  1  0
 27 50  1  0
 28 51  1  0
 28 52  1  0
 29 53  1  0
 30 54  1  0
M  END
>  <meeko>  (409) 
{"is_sidechain": [true], "free_energy": -10.85, "intermolecular_energy": 0.0, "internal_energy": -10.85, "cluster_size": 13, "cluster_id": 1, "rank_in_cluster": 1}

>  <_RMSD_MCS_to_ref>  (409) 
0.87612797137303

$$$$
ligand
     RDKit          3D

 49 52  0  0  0  0  0  0  0  0999 V2000
   18.9090   19.1540    7.5370 C   0  0  0  0  0  0  0  0  0  0  0  0
   18.7730   17.6460    7.6780 C   0  0  0  0  0  0  0  0  0  0  0  0
   20.0930   16.9590    7.6650 C   0  0  0  0  0  0  0  0  0  0  0  0
   21.0150   16.8290    8.6860 C   0  0  0  0  0  0  0  0  0  0  0  0
   22.0430   16.1320    8.1220 N   0  0  0  0  0  0  0  0  0  0  0  0
   23.3650   15.4880    8.9340 S   0  0  0  0  0  6  0  0  0  0  0  0
   23.5430   14.1560    8.3900 O   0  0  0  0  0  0  0  0  0  0  0  0
   24.4050   16.4960    8.8810 O   0  0  0  0  0  0  0  0  0  0  0  0
   22.8110   15.3420   10.6100 C   0  0  0  0  0  0  0  0  0  0  0  0
   21.6710   14.5800   10.8810 C   0  0  0  0  0  0  0  0  0  0  0  0
   21.2740   14.4720   12.1980 C   0  0  0  0  0  0  0  0  0  0  0  0
   21.9720   15.1140   13.2260 C   0  0  0  0  0  0  0  0  0  0  0  0
   23.0840   15.9020   12.9670 C   0  0  0  0  0  0  0  0  0  0  0  0
   23.7970   16.5800   14.0830 C   0  0  0  0  0  0  0  0  0  0  0  0
   24.0520   15.9750   15.1170 O   0  0  0  0  0  0  0  0  0  0  0  0
   24.1170   17.9050   13.8920 N   0  0  0  0  0  0  0  0  0  0  0  0
   24.6870   18.7020   14.9730 C   0  0  1  0  0  0  0  0  0  0  0  0
   25.7920   17.9590   15.7160 C   0  0  0  0  0  0  0  0  0  0  0  0
   26.3680   18.8580   16.7980 C   0  0  0  0  0  0  0  0  0  0  0  0
   26.8570   20.1660   16.2220 C   0  0  0  0  0  0  0  0  0  0  0  0
   27.8240   20.7670   16.6820 O   0  0  0  0  0  0  0  0  0  0  0  0
   26.1460   20.6790   15.1670 N   0  0  0  0  0  0  0  0  0  0  0  0
   25.2630   19.9890   14.3760 C   0  0  0  0  0  0  0  0  0  0  0  0
   24.9490   20.4010   13.2590 O   0  0  0  0  0  0  0  0  0  0  0  0
   23.5130   16.0090   11.6350 C   0  0  0  0  0  0  0  0  0  0  0  0
   21.2790   14.7810   14.5050 C   0  0  0  0  0  0  0  0  0  0  0  0
   20.1640   13.9100   13.9550 C   0  0  0  0  0  0  0  0  0  0  0  0
   20.1710   13.7430   12.6670 N   0  0  0  0  0  0  0  0  0  0  0  0
   21.7220   15.8240    6.8380 C   0  0  0  0  0  0  0  0  0  0  0  0
   20.5430   16.3220    6.5260 N   0  0  0  0  0  0  0  0  0  0  0  0
   18.9504   19.6134    8.5356 H   0  0  0  0  0  0  0  0  0  0  0  0
   19.8320   19.3891    6.9867 H   0  0  0  0  0  0  0  0  0  0  0  0
   18.0430   19.5504    6.9867 H   0  0  0  0  0  0  0  0  0  0  0  0
   18.2671   17.4233    8.6290 H   0  0  0  0  0  0  0  0  0  0  0  0
   18.1920   17.2776    6.8197 H   0  0  0  0  0  0  0  0  0  0  0  0
   20.9376   17.2023    9.7178 H   0  0  0  0  0  0  0  0  0  0  0  0
   21.1110   14.0847   10.0741 H   0  0  0  0  0  0  0  0  0  0  0  0
   23.9518   18.3400   12.9731 H   0  0  0  0  0  0  0  0  0  0  0  0
   23.8879   18.9192   15.6971 H   0  0  0  0  0  0  0  0  0  0  0  0
   25.3772   17.0503   16.1767 H   0  0  0  0  0  0  0  0  0  0  0  0
   26.5870   17.6812   15.0084 H   0  0  0  0  0  0  0  0  0  0  0  0
   25.5875   19.0649   17.5450 H   0  0  0  0  0  0  0  0  0  0  0  0
   27.2220   18.3414   17.2604 H   0  0  0  0  0  0  0  0  0  0  0  0
   26.2885   21.6754   14.9484 H   0  0  0  0  0  0  0  0  0  0  0  0
   24.3983   16.6142   11.3902 H   0  0  0  0  0  0  0  0  0  0  0  0
   21.9321   14.2270   15.1953 H   0  0  0  0  0  0  0  0  0  0  0  0
   20.9520   15.6443   15.1031 H   0  0  0  0  0  0  0  0  0  0  0  0
   19.4023   13.4517   14.6029 H   0  0  0  0  0  0  0  0  0  0  0  0
   22.3573   15.2408    6.1551 H   0  0  0  0  0  0  0  0  0  0  0  0
  1  2  1  0
  2  3  1  0
  3  4  2  0
  4  5  1  0
  5  6  1  0
  6  7  2  0
  6  8  2  0
  6  9  1  0
  9 10  2  0
 10 11  1  0
 11 12  2  0
 12 13  1  0
 13 14  1  0
 14 15  2  0
 14 16  1  0
 16 17  1  0
 17 18  1  0
 18 19  1  0
 19 20  1  0
 20 21  2  0
 20 22  1  0
 22 23  1  0
 23 24  2  0
 13 25  2  0
 12 26  1  0
 26 27  1  0
 27 28  2  0
  5 29  1  0
 29 30  2  0
 30  3  1  0
 25  9  1  0
 28 11  1  0
 23 17  1  0
  1 31  1  0
  1 32  1  0
  1 33  1  0
  2 34  1  0
  2 35  1  0
  4 36  1  0
 10 37  1  0
 16 38  1  0
 17 39  1  1
 18 40  1  0
 18 41  1  0
 19 42  1  0
 19 43  1  0
 22 44  1  0
 25 45  1  0
 26 46  1  0
 26 47  1  0
 27 48  1  0
 29 49  1  0
M  END
>  <meeko>  (410) 
{"is_sidechain": [true], "free_energy": -10.85, "intermolecular_energy": 0.0, "internal_energy": -10.85, "cluster_size": 20, "cluster_id": 1, "rank_in_cluster": 1}

>  <_RMSD_MCS_to_ref>  (410) 
0.45785599385736087

$$$$
ligand
     RDKit          3D

 46 49  0  0  0  0  0  0  0  0999 V2000
   18.9090   19.1540    7.5370 C   0  0  0  0  0  0  0  0  0  0  0  0
   18.7730   17.6460    7.6780 C   0  0  0  0  0  0  0  0  0  0  0  0
   20.0910   16.9570    7.6240 C   0  0  0  0  0  0  0  0  0  0  0  0
   21.0420   16.8280    8.6170 C   0  0  0  0  0  0  0  0  0  0  0  0
   22.0360   16.0990    8.0350 N   0  0  0  0  0  0  0  0  0  0  0  0
   23.3930   15.4650    8.7940 S   0  0  0  0  0  6  0  0  0  0  0  0
   23.5390   14.1350    8.2340 O   0  0  0  0  0  0  0  0  0  0  0  0
   24.4390   16.4610    8.6920 O   0  0  0  0  0  0  0  0  0  0  0  0
   22.9670   15.2930   10.4800 C   0  0  0  0  0  0  0  0  0  0  0  0
   23.8120   15.7850   11.5000 C   0  0  0  0  0  0  0  0  0  0  0  0
   23.4940   15.6850   12.8870 C   0  0  0  0  0  0  0  0  0  0  0  0
   24.4910   16.2290   13.8530 C   0  0  0  0  0  0  0  0  0  0  0  0
   25.0870   15.4700   14.6070 O   0  0  0  0  0  0  0  0  0  0  0  0
   24.7100   17.5860   13.8200 N   0  0  0  0  0  0  0  0  0  0  0  0
   25.7720   18.1940   14.6140 C   0  0  2  0  0  0  0  0  0  0  0  0
   25.6030   17.9290   16.1060 C   0  0  0  0  0  0  0  0  0  0  0  0
   26.7150   18.6300   16.8730 C   0  0  0  0  0  0  0  0  0  0  0  0
   26.7490   20.1090   16.5620 C   0  0  0  0  0  0  0  0  0  0  0  0
   27.0630   20.9500   17.3980 O   0  0  0  0  0  0  0  0  0  0  0  0
   26.4340   20.4740   15.2780 N   0  0  0  0  0  0  0  0  0  0  0  0
   25.7500   19.7060   14.3690 C   0  0  0  0  0  0  0  0  0  0  0  0
   25.1650   20.2130   13.4120 O   0  0  0  0  0  0  0  0  0  0  0  0
   22.3130   15.0710   13.3550 C   0  0  0  0  0  0  0  0  0  0  0  0
   21.4650   14.5840   12.3430 C   0  0  0  0  0  0  0  0  0  0  0  0
   20.2880   13.9610   12.4670 N   0  0  0  0  0  0  0  0  0  0  0  0
   19.8620   13.6930   11.1790 O   0  0  0  0  0  0  0  0  0  0  0  0
   20.7710   14.1400   10.2380 N   0  0  0  0  0  0  0  0  0  0  0  0
   21.7790   14.6930   10.9220 C   0  0  0  0  0  0  0  0  0  0  0  0
   21.6870   15.8090    6.7550 C   0  0  0  0  0  0  0  0  0  0  0  0
   20.5050   16.3150    6.4740 N   0  0  0  0  0  0  0  0  0  0  0  0
   18.9504   19.6134    8.5356 H   0  0  0  0  0  0  0  0  0  0  0  0
   19.8320   19.3891    6.9867 H   0  0  0  0  0  0  0  0  0  0  0  0
   18.0430   19.5504    6.9867 H   0  0  0  0  0  0  0  0  0  0  0  0
   18.2949   17.4218    8.6430 H   0  0  0  0  0  0  0  0  0  0  0  0
   18.1654   17.2808    6.8369 H   0  0  0  0  0  0  0  0  0  0  0  0
   21.0057   17.2231    9.6429 H   0  0  0  0  0  0  0  0  0  0  0  0
   24.7578   16.2669   11.2115 H   0  0  0  0  0  0  0  0  0  0  0  0
   24.1157   18.1818   13.2261 H   0  0  0  0  0  0  0  0  0  0  0  0
   26.7297   17.7490   14.3061 H   0  0  0  0  0  0  0  0  0  0  0  0
   24.6280   18.3144   16.4391 H   0  0  0  0  0  0  0  0  0  0  0  0
   25.6523   16.8464   16.2948 H   0  0  0  0  0  0  0  0  0  0  0  0
   26.5469   18.4944   17.9516 H   0  0  0  0  0  0  0  0  0  0  0  0
   27.6765   18.1895   16.5705 H   0  0  0  0  0  0  0  0  0  0  0  0
   26.7379   21.4081   14.9681 H   0  0  0  0  0  0  0  0  0  0  0  0
   22.0743   14.9803   14.4249 H   0  0  0  0  0  0  0  0  0  0  0  0
   22.3055   15.2321    6.0517 H   0  0  0  0  0  0  0  0  0  0  0  0
  1  2  1  0
  2  3  1  0
  3  4  2  0
  4  5  1  0
  5  6  1  0
  6  7  2  0
  6  8  2  0
  6  9  1  0
  9 10  2  0
 10 11  1  0
 11 12  1  0
 12 13  2  0
 12 14  1  0
 14 15  1  0
 15 16  1  0
 16 17  1  0
 17 18  1  0
 18 19  2  0
 18 20  1  0
 20 21  1  0
 21 22  2  0
 11 23  2  0
 23 24  1  0
 24 25  2  0
 25 26  1  0
 26 27  1  0
 27 28  2  0
  5 29  1  0
 29 30  2  0
 30  3  1  0
 28  9  1  0
 21 15  1  0
 28 24  1  0
  1 31  1  0
  1 32  1  0
  1 33  1  0
  2 34  1  0
  2 35  1  0
  4 36  1  0
 10 37  1  0
 14 38  1  0
 15 39  1  6
 16 40  1  0
 16 41  1  0
 17 42  1  0
 17 43  1  0
 20 44  1  0
 23 45  1  0
 29 46  1  0
M  END
>  <meeko>  (411) 
{"is_sidechain": [true], "free_energy": -10.85, "intermolecular_energy": 0.0, "internal_energy": -10.85, "cluster_size": 19, "cluster_id": 1, "rank_in_cluster": 1}

>  <_RMSD_MCS_to_ref>  (411) 
0.5443594604874815

$$$$
ligand
     RDKit          3D

 49 52  0  0  0  0  0  0  0  0999 V2000
   18.9090   19.1540    7.5370 C   0  0  0  0  0  0  0  0  0  0  0  0
   18.7730   17.6460    7.6780 C   0  0  0  0  0  0  0  0  0  0  0  0
   20.0750   16.9180    7.7250 C   0  0  0  0  0  0  0  0  0  0  0  0
   20.8150   16.5820    8.8430 C   0  0  0  0  0  0  0  0  0  0  0  0
   21.9080   15.9300    8.3460 N   0  0  0  0  0  0  0  0  0  0  0  0
   23.3220   15.5930    9.2000 S   0  0  0  0  0  6  0  0  0  0  0  0
   24.0800   16.8300    9.2090 O   0  0  0  0  0  0  0  0  0  0  0  0
   23.8340   14.3600    8.6330 O   0  0  0  0  0  0  0  0  0  0  0  0
   22.7590   15.2660   10.8520 C   0  0  0  0  0  0  0  0  0  0  0  0
   21.6120   14.5320   11.0710 C   0  0  0  0  0  0  0  0  0  0  0  0
   21.2810   14.3930   12.4030 C   0  0  0  0  0  0  0  0  0  0  0  0
   22.0250   14.9460   13.4440 C   0  0  0  0  0  0  0  0  0  0  0  0
   23.1470   15.6580   13.1180 C   0  0  0  0  0  0  0  0  0  0  0  0
   24.0050   16.3240   14.1470 C   0  0  0  0  0  0  0  0  0  0  0  0
   24.4170   15.7160   15.1250 O   0  0  0  0  0  0  0  0  0  0  0  0
   24.2560   17.6590   13.8920 N   0  0  0  0  0  0  0  0  0  0  0  0
   24.7100   18.5540   14.9420 C   0  0  1  0  0  0  0  0  0  0  0  0
   25.8470   17.9200   15.7320 C   0  0  0  0  0  0  0  0  0  0  0  0
   26.3350   18.8900   16.7960 C   0  0  0  0  0  0  0  0  0  0  0  0
   26.7390   20.2120   16.1880 C   0  0  0  0  0  0  0  0  0  0  0  0
   27.6650   20.8860   16.6290 O   0  0  0  0  0  0  0  0  0  0  0  0
   25.9950   20.6510   15.1220 N   0  0  0  0  0  0  0  0  0  0  0  0
   25.2040   19.8680   14.3150 C   0  0  0  0  0  0  0  0  0  0  0  0
   24.9230   20.2340   13.1740 O   0  0  0  0  0  0  0  0  0  0  0  0
   23.5370   15.8260   11.8240 N   0  0  0  0  0  0  0  0  0  0  0  0
   21.4010   14.6390   14.7560 C   0  0  0  0  0  0  0  0  0  0  0  0
   20.2510   13.8540   14.3620 N   0  0  0  0  0  0  0  0  0  0  0  0
   20.1420   13.6940   12.9990 C   0  0  0  0  0  0  0  0  0  0  0  0
   19.2810   13.0970   12.3870 O   0  0  0  0  0  0  0  0  0  0  0  0
   21.8240   15.9020    6.9880 C   0  0  0  0  0  0  0  0  0  0  0  0
   20.7330   16.5150    6.5780 N   0  0  0  0  0  0  0  0  0  0  0  0
   18.9504   19.6134    8.5356 H   0  0  0  0  0  0  0  0  0  0  0  0
   19.8320   19.3891    6.9867 H   0  0  0  0  0  0  0  0  0  0  0  0
   18.0430   19.5504    6.9867 H   0  0  0  0  0  0  0  0  0  0  0  0
   18.2251   17.4341    8.6080 H   0  0  0  0  0  0  0  0  0  0  0  0
   18.2432   17.2904    6.7820 H   0  0  0  0  0  0  0  0  0  0  0  0
   20.5774   16.7923    9.8962 H   0  0  0  0  0  0  0  0  0  0  0  0
   21.0146   14.0964   10.2565 H   0  0  0  0  0  0  0  0  0  0  0  0
   24.1185   18.0261   12.9395 H   0  0  0  0  0  0  0  0  0  0  0  0
   23.8692   18.7520   15.6231 H   0  0  0  0  0  0  0  0  0  0  0  0
   25.4880   16.9988   16.2141 H   0  0  0  0  0  0  0  0  0  0  0  0
   26.6758   17.6810   15.0494 H   0  0  0  0  0  0  0  0  0  0  0  0
   25.5270   19.0615   17.5225 H   0  0  0  0  0  0  0  0  0  0  0  0
   27.2146   18.4510   17.2895 H   0  0  0  0  0  0  0  0  0  0  0  0
   26.0325   21.6576   14.9071 H   0  0  0  0  0  0  0  0  0  0  0  0
   22.0812   14.0587   15.3968 H   0  0  0  0  0  0  0  0  0  0  0  0
   21.1490   15.5310   15.3484 H   0  0  0  0  0  0  0  0  0  0  0  0
   19.5807   13.4547   15.0344 H   0  0  0  0  0  0  0  0  0  0  0  0
   22.5650   15.4322    6.3245 H   0  0  0  0  0  0  0  0  0  0  0  0
  1  2  1  0
  2  3  1  0
  3  4  2  0
  4  5  1  0
  5  6  1  0
  6  7  2  0
  6  8  2  0
  6  9  1  0
  9 10  2  0
 10 11  1  0
 11 12  2  0
 12 13  1  0
 13 14  1  0
 14 15  2  0
 14 16  1  0
 16 17  1  0
 17 18  1  0
 18 19  1  0
 19 20  1  0
 20 21  2  0
 20 22  1  0
 22 23  1  0
 23 24  2  0
 13 25  2  0
 12 26  1  0
 26 27  1  0
 27 28  1  0
 28 29  2  0
  5 30  1  0
 30 31  2  0
 31  3  1  0
 25  9  1  0
 28 11  1  0
 23 17  1  0
  1 32  1  0
  1 33  1  0
  1 34  1  0
  2 35  1  0
  2 36  1  0
  4 37  1  0
 10 38  1  0
 16 39  1  0
 17 40  1  1
 18 41  1  0
 18 42  1  0
 19 43  1  0
 19 44  1  0
 22 45  1  0
 26 46  1  0
 26 47  1  0
 27 48  1  0
 30 49  1  0
M  END
>  <meeko>  (412) 
{"is_sidechain": [true], "free_energy": -10.85, "intermolecular_energy": 0.0, "internal_energy": -10.85, "cluster_size": 20, "cluster_id": 1, "rank_in_cluster": 1}

>  <_RMSD_MCS_to_ref>  (412) 
0.38508368498865836

$$$$
ligand
     RDKit          3D

 53 56  0  0  0  0  0  0  0  0999 V2000
   18.9090   19.1540    7.5370 C   0  0  0  0  0  0  0  0  0  0  0  0
   18.7730   17.6460    7.6780 C   0  0  0  0  0  0  0  0  0  0  0  0
   20.0870   16.9540    7.5950 C   0  0  0  0  0  0  0  0  0  0  0  0
   21.0640   16.8250    8.5640 C   0  0  0  0  0  0  0  0  0  0  0  0
   22.0450   16.0980    7.9520 N   0  0  0  0  0  0  0  0  0  0  0  0
   23.4680   15.5740    8.6750 S   0  0  0  0  0  6  0  0  0  0  0  0
   23.7780   14.2720    8.1160 O   0  0  0  0  0  0  0  0  0  0  0  0
   24.3760   16.7000    8.5370 O   0  0  0  0  0  0  0  0  0  0  0  0
   23.1120   15.3780   10.3980 C   0  0  0  0  0  0  0  0  0  0  0  0
   24.0340   15.8900   11.3240 C   0  0  0  0  0  0  0  0  0  0  0  0
   23.7820   15.7670   12.6930 C   0  0  0  0  0  0  0  0  0  0  0  0
   24.7180   16.3020   13.7220 C   0  0  0  0  0  0  0  0  0  0  0  0
   25.2990   15.5380   14.4830 O   0  0  0  0  0  0  0  0  0  0  0  0
   24.9050   17.6660   13.7400 N   0  0  0  0  0  0  0  0  0  0  0  0
   25.9070   18.2720   14.6080 C   0  0  2  0  0  0  0  0  0  0  0  0
   25.6600   17.9590   16.0780 C   0  0  0  0  0  0  0  0  0  0  0  0
   26.7120   18.6530   16.9280 C   0  0  0  0  0  0  0  0  0  0  0  0
   26.7380   20.1410   16.6670 C   0  0  0  0  0  0  0  0  0  0  0  0
   27.0080   20.9590   17.5410 O   0  0  0  0  0  0  0  0  0  0  0  0
   26.4720   20.5440   15.3830 N   0  0  0  0  0  0  0  0  0  0  0  0
   25.8690   19.7910   14.4060 C   0  0  0  0  0  0  0  0  0  0  0  0
   25.3480   20.3170   13.4230 O   0  0  0  0  0  0  0  0  0  0  0  0
   22.5970   15.1590   13.1240 C   0  0  0  0  0  0  0  0  0  0  0  0
   21.6740   14.6450   12.1980 C   0  0  0  0  0  0  0  0  0  0  0  0
   21.9490   14.7320   10.8270 C   0  0  0  0  0  0  0  0  0  0  0  0
   21.1010   14.2320    9.8800 O   0  0  0  0  0  0  0  0  0  0  0  0
   20.1040   13.3190   10.3500 C   0  0  0  0  0  0  0  0  0  0  0  0
   19.3980   13.8490   11.5830 C   0  0  0  0  0  0  0  0  0  0  0  0
   20.4180   13.9880   12.7020 C   0  0  0  0  0  0  0  0  0  0  0  0
   21.6660   15.8140    6.6810 C   0  0  0  0  0  0  0  0  0  0  0  0
   20.4750   16.3190    6.4300 N   0  0  0  0  0  0  0  0  0  0  0  0
   18.9504   19.6134    8.5356 H   0  0  0  0  0  0  0  0  0  0  0  0
   19.8320   19.3891    6.9867 H   0  0  0  0  0  0  0  0  0  0  0  0
   18.0430   19.5504    6.9867 H   0  0  0  0  0  0  0  0  0  0  0  0
   18.3149   17.4210    8.6524 H   0  0  0  0  0  0  0  0  0  0  0  0
   18.1473   17.2840    6.8489 H   0  0  0  0  0  0  0  0  0  0  0  0
   21.0539   17.2175    9.5915 H   0  0  0  0  0  0  0  0  0  0  0  0
   24.9512   16.3860   10.9736 H   0  0  0  0  0  0  0  0  0  0  0  0
   24.3293   18.2660   13.1322 H   0  0  0  0  0  0  0  0  0  0  0  0
   26.8898   17.8564   14.3407 H   0  0  0  0  0  0  0  0  0  0  0  0
   24.6608   18.3175   16.3663 H   0  0  0  0  0  0  0  0  0  0  0  0
   25.7196   16.8721   16.2363 H   0  0  0  0  0  0  0  0  0  0  0  0
   26.4850   18.4799   17.9903 H   0  0  0  0  0  0  0  0  0  0  0  0
   27.6968   18.2385   16.6667 H   0  0  0  0  0  0  0  0  0  0  0  0
   26.7510   21.5021   15.1277 H   0  0  0  0  0  0  0  0  0  0  0  0
   22.3860   15.0828   14.2009 H   0  0  0  0  0  0  0  0  0  0  0  0
   19.3615   13.1605    9.5540 H   0  0  0  0  0  0  0  0  0  0  0  0
   20.6010   12.3748   10.6175 H   0  0  0  0  0  0  0  0  0  0  0  0
   18.9533   14.8306   11.3625 H   0  0  0  0  0  0  0  0  0  0  0  0
   18.5988   13.1566   11.8860 H   0  0  0  0  0  0  0  0  0  0  0  0
   19.9884   14.6009   13.5081 H   0  0  0  0  0  0  0  0  0  0  0  0
   20.6697   12.9853   13.0777 H   0  0  0  0  0  0  0  0  0  0  0  0
   22.2687   15.2419    5.9603 H   0  0  0  0  0  0  0  0  0  0  0  0
  1  2  1  0
  2  3  1  0
  3  4  2  0
  4  5  1  0
  5  6  1  0
  6  7  2  0
  6  8  2  0
  6  9  1  0
  9 10  2  0
 10 11  1  0
 11 12  1  0
 12 13  2  0
 12 14  1  0
 14 15  1  0
 15 16  1  0
 16 17  1  0
 17 18  1  0
 18 19  2  0
 18 20  1  0
 20 21  1  0
 21 22  2  0
 11 23  2  0
 23 24  1  0
 24 25  2  0
 25 26  1  0
 26 27  1  0
 27 28  1  0
 28 29  1  0
  5 30  1  0
 30 31  2  0
 31  3  1  0
 25  9  1  0
 21 15  1  0
 29 24  1  0
  1 32  1  0
  1 33  1  0
  1 34  1  0
  2 35  1  0
  2 36  1  0
  4 37  1  0
 10 38  1  0
 14 39  1  0
 15 40  1  6
 16 41  1  0
 16 42  1  0
 17 43  1  0
 17 44  1  0
 20 45  1  0
 23 46  1  0
 27 47  1  0
 27 48  1  0
 28 49  1  0
 28 50  1  0
 29 51  1  0
 29 52  1  0
 30 53  1  0
M  END
>  <meeko>  (413) 
{"is_sidechain": [true], "free_energy": -10.85, "intermolecular_energy": 0.0, "internal_energy": -10.85, "cluster_size": 20, "cluster_id": 1, "rank_in_cluster": 1}

>  <_RMSD_MCS_to_ref>  (413) 
0.6269566704858213

$$$$
ligand
     RDKit          3D

 52 56  0  0  0  0  0  0  0  0999 V2000
   18.9090   19.1540    7.5370 C   0  0  0  0  0  0  0  0  0  0  0  0
   18.7730   17.6460    7.6780 C   0  0  0  0  0  0  0  0  0  0  0  0
   19.8440   16.9150    6.9490 C   0  0  0  0  0  0  0  0  0  0  0  0
   20.4610   15.7230    7.2770 C   0  0  0  0  0  0  0  0  0  0  0  0
   21.3410   15.5100    6.2550 N   0  0  0  0  0  0  0  0  0  0  0  0
   22.5170   14.3100    6.2050 S   0  0  0  0  0  6  0  0  0  0  0  0
   23.1130   14.3870    4.8870 O   0  0  0  0  0  0  0  0  0  0  0  0
   21.8730   13.1080    6.6980 O   0  0  0  0  0  0  0  0  0  0  0  0
   23.7100   14.8450    7.4000 C   0  0  0  0  0  0  0  0  0  0  0  0
   23.3800   15.8510    8.3020 C   0  0  0  0  0  0  0  0  0  0  0  0
   24.3290   16.2730    9.2380 C   0  0  0  0  0  0  0  0  0  0  0  0
   25.6290   15.7070    9.2950 C   0  0  0  0  0  0  0  0  0  0  0  0
   26.6390   16.0890   10.2180 C   0  0  0  0  0  0  0  0  0  0  0  0
   26.4350   17.0940   11.2430 C   0  0  0  0  0  0  0  0  0  0  0  0
   25.4930   17.0540   12.2470 C   0  0  0  0  0  0  0  0  0  0  0  0
   25.6940   18.2190   12.9310 N   0  0  0  0  0  0  0  0  0  0  0  0
   24.9880   18.6940   14.1050 C   0  0  1  0  0  0  0  0  0  0  0  0
   25.3880   18.0010   15.4090 C   0  0  0  0  0  0  0  0  0  0  0  0
   26.7040   18.5180   15.9710 C   0  0  0  0  0  0  0  0  0  0  0  0
   26.7230   20.0230   16.0630 C   0  0  0  0  0  0  0  0  0  0  0  0
   27.3840   20.6230   16.9060 O   0  0  0  0  0  0  0  0  0  0  0  0
   25.9790   20.7080   15.1350 N   0  0  0  0  0  0  0  0  0  0  0  0
   25.0970   20.2000   14.2100 C   0  0  0  0  0  0  0  0  0  0  0  0
   24.4310   20.9540   13.5040 O   0  0  0  0  0  0  0  0  0  0  0  0
   26.7000   18.9300   12.3930 N   0  0  0  0  0  0  0  0  0  0  0  0
   27.1580   18.2510   11.3520 N   0  0  0  0  0  0  0  0  0  0  0  0
   27.8790   15.4550   10.1360 C   0  0  0  0  0  0  0  0  0  0  0  0
   28.1980   14.5040    9.2320 N   0  0  0  0  0  0  0  0  0  0  0  0
   27.2250   14.1520    8.3670 C   0  0  0  0  0  0  0  0  0  0  0  0
   25.9420   14.7020    8.3460 C   0  0  0  0  0  0  0  0  0  0  0  0
   24.9860   14.2790    7.4060 C   0  0  0  0  0  0  0  0  0  0  0  0
   21.2820   16.5540    5.3900 C   0  0  0  0  0  0  0  0  0  0  0  0
   20.3710   17.4230    5.7780 N   0  0  0  0  0  0  0  0  0  0  0  0
   18.9504   19.6134    8.5356 H   0  0  0  0  0  0  0  0  0  0  0  0
   19.8320   19.3891    6.9867 H   0  0  0  0  0  0  0  0  0  0  0  0
   18.0430   19.5504    6.9867 H   0  0  0  0  0  0  0  0  0  0  0  0
   18.8279   17.3835    8.7448 H   0  0  0  0  0  0  0  0  0  0  0  0
   17.8066   17.3518    7.2427 H   0  0  0  0  0  0  0  0  0  0  0  0
   20.2838   15.0905    8.1594 H   0  0  0  0  0  0  0  0  0  0  0  0
   22.3809   16.3107    8.2791 H   0  0  0  0  0  0  0  0  0  0  0  0
   24.0602   17.0666    9.9507 H   0  0  0  0  0  0  0  0  0  0  0  0
   24.7517   16.2672   12.4505 H   0  0  0  0  0  0  0  0  0  0  0  0
   23.9329   18.4182   13.9609 H   0  0  0  0  0  0  0  0  0  0  0  0
   24.5968   18.1703   16.1542 H   0  0  0  0  0  0  0  0  0  0  0  0
   25.5189   16.9312   15.1892 H   0  0  0  0  0  0  0  0  0  0  0  0
   26.8505   18.0982   16.9772 H   0  0  0  0  0  0  0  0  0  0  0  0
   27.5108   18.2076   15.2908 H   0  0  0  0  0  0  0  0  0  0  0  0
   26.0959   21.7313   15.1308 H   0  0  0  0  0  0  0  0  0  0  0  0
   28.6525   15.7511   10.8599 H   0  0  0  0  0  0  0  0  0  0  0  0
   27.4593   13.3752    7.6242 H   0  0  0  0  0  0  0  0  0  0  0  0
   25.2441   13.5001    6.6734 H   0  0  0  0  0  0  0  0  0  0  0  0
   21.9071   16.6598    4.4911 H   0  0  0  0  0  0  0  0  0  0  0  0
  1  2  1  0
  2  3  1  0
  3  4  2  0
  4  5  1  0
  5  6  1  0
  6  7  2  0
  6  8  2  0
  6  9  1  0
  9 10  2  0
 10 11  1  0
 11 12  2  0
 12 13  1  0
 13 14  1  0
 14 15  2  0
 15 16  1  0
 16 17  1  0
 17 18  1  0
 18 19  1  0
 19 20  1  0
 20 21  2  0
 20 22  1  0
 22 23  1  0
 23 24  2  0
 16 25  1  0
 25 26  2  0
 13 27  2  0
 27 28  1  0
 28 29  2  0
 29 30  1  0
 30 31  2  0
  5 32  1  0
 32 33  2  0
 33  3  1  0
 31  9  1  0
 30 12  1  0
 26 14  1  0
 23 17  1  0
  1 34  1  0
  1 35  1  0
  1 36  1  0
  2 37  1  0
  2 38  1  0
  4 39  1  0
 10 40  1  0
 11 41  1  0
 15 42  1  0
 17 43  1  6
 18 44  1  0
 18 45  1  0
 19 46  1  0
 19 47  1  0
 22 48  1  0
 27 49  1  0
 29 50  1  0
 31 51  1  0
 32 52  1  0
M  END
>  <meeko>  (414) 
{"is_sidechain": [true], "free_energy": -10.85, "intermolecular_energy": 0.0, "internal_energy": -10.85, "cluster_size": 8, "cluster_id": 1, "rank_in_cluster": 1}

>  <_RMSD_MCS_to_ref>  (414) 
0.7445372164416412

$$$$
ligand
     RDKit          3D

 49 52  0  0  0  0  0  0  0  0999 V2000
   18.9090   19.1540    7.5370 C   0  0  0  0  0  0  0  0  0  0  0  0
   18.7730   17.6460    7.6780 C   0  0  0  0  0  0  0  0  0  0  0  0
   20.0940   16.9590    7.6540 C   0  0  0  0  0  0  0  0  0  0  0  0
   20.9380   16.6660    8.7070 C   0  0  0  0  0  0  0  0  0  0  0  0
   21.9950   16.0330    8.1210 N   0  0  0  0  0  0  0  0  0  0  0  0
   23.4610   15.6260    8.8550 S   0  0  0  0  0  6  0  0  0  0  0  0
   23.8730   14.3920    8.2120 O   0  0  0  0  0  0  0  0  0  0  0  0
   24.2610   16.8290    8.6910 O   0  0  0  0  0  0  0  0  0  0  0  0
   23.1290   15.3610   10.5380 C   0  0  0  0  0  0  0  0  0  0  0  0
   24.0020   15.8520   11.4450 C   0  0  0  0  0  0  0  0  0  0  0  0
   23.7310   15.6900   12.8710 C   0  0  0  0  0  0  0  0  0  0  0  0
   24.6530   16.2190   13.9230 C   0  0  0  0  0  0  0  0  0  0  0  0
   25.1850   15.4890   14.7510 O   0  0  0  0  0  0  0  0  0  0  0  0
   24.8820   17.5700   13.8510 N   0  0  0  0  0  0  0  0  0  0  0  0
   25.8860   18.2100   14.6910 C   0  0  2  0  0  0  0  0  0  0  0  0
   25.6610   17.9310   16.1740 C   0  0  0  0  0  0  0  0  0  0  0  0
   26.7150   18.6610   16.9920 C   0  0  0  0  0  0  0  0  0  0  0  0
   26.7160   20.1410   16.6910 C   0  0  0  0  0  0  0  0  0  0  0  0
   26.9780   20.9860   17.5410 O   0  0  0  0  0  0  0  0  0  0  0  0
   26.4370   20.5060   15.3990 N   0  0  0  0  0  0  0  0  0  0  0  0
   25.8250   19.7210   14.4540 C   0  0  0  0  0  0  0  0  0  0  0  0
   25.2740   20.2160   13.4710 O   0  0  0  0  0  0  0  0  0  0  0  0
   22.5940   15.1000   13.2930 C   0  0  0  0  0  0  0  0  0  0  0  0
   21.6730   14.5740   12.3420 C   0  0  0  0  0  0  0  0  0  0  0  0
   20.4640   13.9240   12.4720 C   0  0  0  0  0  0  0  0  0  0  0  0
   20.0130   13.6140   11.1720 C   0  0  0  0  0  0  0  0  0  0  0  0
   20.9590   14.0830   10.2850 C   0  0  0  0  0  0  0  0  0  0  0  0
   21.9760   14.7010   10.9830 N   0  0  0  0  0  0  0  0  0  0  0  0
   21.7940   15.9760    6.7790 C   0  0  0  0  0  0  0  0  0  0  0  0
   20.6430   16.5300    6.4620 N   0  0  0  0  0  0  0  0  0  0  0  0
   18.9504   19.6134    8.5356 H   0  0  0  0  0  0  0  0  0  0  0  0
   19.8320   19.3891    6.9867 H   0  0  0  0  0  0  0  0  0  0  0  0
   18.0430   19.5504    6.9867 H   0  0  0  0  0  0  0  0  0  0  0  0
   18.2745   17.4227    8.6328 H   0  0  0  0  0  0  0  0  0  0  0  0
   18.1846   17.2780    6.8245 H   0  0  0  0  0  0  0  0  0  0  0  0
   20.7916   16.8913    9.7737 H   0  0  0  0  0  0  0  0  0  0  0  0
   24.9124   16.3712   11.1110 H   0  0  0  0  0  0  0  0  0  0  0  0
   24.3347   18.1416   13.1918 H   0  0  0  0  0  0  0  0  0  0  0  0
   26.8703   17.8000   14.4207 H   0  0  0  0  0  0  0  0  0  0  0  0
   24.6608   18.2837   16.4660 H   0  0  0  0  0  0  0  0  0  0  0  0
   25.7366   16.8494   16.3595 H   0  0  0  0  0  0  0  0  0  0  0  0
   26.5044   18.5131   18.0615 H   0  0  0  0  0  0  0  0  0  0  0  0
   27.7022   18.2528   16.7295 H   0  0  0  0  0  0  0  0  0  0  0  0
   26.7118   21.4561   15.1114 H   0  0  0  0  0  0  0  0  0  0  0  0
   22.3783   15.0251   14.3690 H   0  0  0  0  0  0  0  0  0  0  0  0
   19.9472   13.6905   13.4145 H   0  0  0  0  0  0  0  0  0  0  0  0
   19.0788   13.0940   10.9134 H   0  0  0  0  0  0  0  0  0  0  0  0
   20.9103   13.9803    9.1909 H   0  0  0  0  0  0  0  0  0  0  0  0
   22.4948   15.5295    6.0582 H   0  0  0  0  0  0  0  0  0  0  0  0
  1  2  1  0
  2  3  1  0
  3  4  2  0
  4  5  1  0
  5  6  1  0
  6  7  2  0
  6  8  2  0
  6  9  1  0
  9 10  2  0
 10 11  1  0
 11 12  1  0
 12 13  2  0
 12 14  1  0
 14 15  1  0
 15 16  1  0
 16 17  1  0
 17 18  1  0
 18 19  2  0
 18 20  1  0
 20 21  1  0
 21 22  2  0
 11 23  2  0
 23 24  1  0
 24 25  2  0
 25 26  1  0
 26 27  2  0
 27 28  1  0
  5 29  1  0
 29 30  2  0
 30  3  1  0
 28  9  1  0
 21 15  1  0
 28 24  1  0
  1 31  1  0
  1 32  1  0
  1 33  1  0
  2 34  1  0
  2 35  1  0
  4 36  1  0
 10 37  1  0
 14 38  1  0
 15 39  1  6
 16 40  1  0
 16 41  1  0
 17 42  1  0
 17 43  1  0
 20 44  1  0
 23 45  1  0
 25 46  1  0
 26 47  1  0
 27 48  1  0
 29 49  1  0
M  END
>  <meeko>  (415) 
{"is_sidechain": [true], "free_energy": -10.84, "intermolecular_energy": 0.0, "internal_energy": -10.84, "cluster_size": 20, "cluster_id": 1, "rank_in_cluster": 1}

>  <_RMSD_MCS_to_ref>  (415) 
0.6464796013796565

$$$$
ligand
     RDKit          3D

 49 52  0  0  0  0  0  0  0  0999 V2000
   18.9090   19.1540    7.5370 C   0  0  0  0  0  0  0  0  0  0  0  0
   18.7730   17.6460    7.6780 C   0  0  0  0  0  0  0  0  0  0  0  0
   20.0920   16.9580    7.6510 C   0  0  0  0  0  0  0  0  0  0  0  0
   20.9480   16.6800    8.6980 C   0  0  0  0  0  0  0  0  0  0  0  0
   21.9980   16.0380    8.1110 N   0  0  0  0  0  0  0  0  0  0  0  0
   23.4530   15.6390    8.8500 S   0  0  0  0  0  6  0  0  0  0  0  0
   23.8570   14.3600    8.3010 O   0  0  0  0  0  0  0  0  0  0  0  0
   24.2820   16.8280    8.7470 O   0  0  0  0  0  0  0  0  0  0  0  0
   23.0260   15.4140   10.5540 C   0  0  0  0  0  0  0  0  0  0  0  0
   23.8840   15.9200   11.5430 C   0  0  0  0  0  0  0  0  0  0  0  0
   23.5950   15.7520   12.9010 C   0  0  0  0  0  0  0  0  0  0  0  0
   24.5680   16.2960   13.8900 C   0  0  0  0  0  0  0  0  0  0  0  0
   25.1660   15.5360   14.6450 O   0  0  0  0  0  0  0  0  0  0  0  0
   24.7700   17.6560   13.8810 N   0  0  0  0  0  0  0  0  0  0  0  0
   25.8110   18.2670   14.6970 C   0  0  2  0  0  0  0  0  0  0  0  0
   25.6280   17.9740   16.1830 C   0  0  0  0  0  0  0  0  0  0  0  0
   26.7210   18.6730   16.9750 C   0  0  0  0  0  0  0  0  0  0  0  0
   26.7400   20.1570   16.6940 C   0  0  0  0  0  0  0  0  0  0  0  0
   27.0390   20.9870   17.5460 O   0  0  0  0  0  0  0  0  0  0  0  0
   26.4320   20.5420   15.4130 N   0  0  0  0  0  0  0  0  0  0  0  0
   25.7710   19.7830   14.4800 C   0  0  0  0  0  0  0  0  0  0  0  0
   25.1960   20.3030   13.5250 O   0  0  0  0  0  0  0  0  0  0  0  0
   22.4400   15.0630   13.3030 C   0  0  0  0  0  0  0  0  0  0  0  0
   21.5530   14.5700   12.3250 C   0  0  0  0  0  0  0  0  0  0  0  0
   20.3240   13.8570   12.3810 C   0  0  0  0  0  0  0  0  0  0  0  0
   19.9020   13.6460   11.0870 C   0  0  0  0  0  0  0  0  0  0  0  0
   20.8280   14.2000   10.2470 N   0  0  0  0  0  0  0  0  0  0  0  0
   21.8580   14.7600   10.9770 C   0  0  0  0  0  0  0  0  0  0  0  0
   21.7910   15.9770    6.7710 C   0  0  0  0  0  0  0  0  0  0  0  0
   20.6320   16.5160    6.4580 N   0  0  0  0  0  0  0  0  0  0  0  0
   18.9504   19.6134    8.5356 H   0  0  0  0  0  0  0  0  0  0  0  0
   19.8320   19.3891    6.9867 H   0  0  0  0  0  0  0  0  0  0  0  0
   18.0430   19.5504    6.9867 H   0  0  0  0  0  0  0  0  0  0  0  0
   18.2765   17.4229    8.6339 H   0  0  0  0  0  0  0  0  0  0  0  0
   18.1830   17.2788    6.8253 H   0  0  0  0  0  0  0  0  0  0  0  0
   20.8136   16.9214    9.7627 H   0  0  0  0  0  0  0  0  0  0  0  0
   24.7971   16.4565   11.2456 H   0  0  0  0  0  0  0  0  0  0  0  0
   24.1758   18.2525   13.2878 H   0  0  0  0  0  0  0  0  0  0  0  0
   26.7783   17.8419   14.3909 H   0  0  0  0  0  0  0  0  0  0  0  0
   24.6447   18.3422   16.5111 H   0  0  0  0  0  0  0  0  0  0  0  0
   25.6883   16.8889   16.3532 H   0  0  0  0  0  0  0  0  0  0  0  0
   26.5427   18.5140   18.0488 H   0  0  0  0  0  0  0  0  0  0  0  0
   27.6912   18.2507   16.6745 H   0  0  0  0  0  0  0  0  0  0  0  0
   26.7237   21.4871   15.1256 H   0  0  0  0  0  0  0  0  0  0  0  0
   22.2291   14.9093   14.3716 H   0  0  0  0  0  0  0  0  0  0  0  0
   19.8036   13.5322   13.2941 H   0  0  0  0  0  0  0  0  0  0  0  0
   18.9826   13.1241   10.7830 H   0  0  0  0  0  0  0  0  0  0  0  0
   20.7663   14.1997    9.2189 H   0  0  0  0  0  0  0  0  0  0  0  0
   22.4939   15.5382    6.0476 H   0  0  0  0  0  0  0  0  0  0  0  0
  1  2  1  0
  2  3  1  0
  3  4  2  0
  4  5  1  0
  5  6  1  0
  6  7  2  0
  6  8  2  0
  6  9  1  0
  9 10  2  0
 10 11  1  0
 11 12  1  0
 12 13  2  0
 12 14  1  0
 14 15  1  0
 15 16  1  0
 16 17  1  0
 17 18  1  0
 18 19  2  0
 18 20  1  0
 20 21  1  0
 21 22  2  0
 11 23  2  0
 23 24  1  0
 24 25  1  0
 25 26  2  0
 26 27  1  0
 27 28  1  0
  5 29  1  0
 29 30  2  0
 30  3  1  0
 28  9  1  0
 21 15  1  0
 28 24  2  0
  1 31  1  0
  1 32  1  0
  1 33  1  0
  2 34  1  0
  2 35  1  0
  4 36  1  0
 10 37  1  0
 14 38  1  0
 15 39  1  6
 16 40  1  0
 16 41  1  0
 17 42  1  0
 17 43  1  0
 20 44  1  0
 23 45  1  0
 25 46  1  0
 26 47  1  0
 27 48  1  0
 29 49  1  0
M  END
>  <meeko>  (416) 
{"is_sidechain": [true], "free_energy": -10.84, "intermolecular_energy": 0.0, "internal_energy": -10.84, "cluster_size": 19, "cluster_id": 1, "rank_in_cluster": 1}

>  <_RMSD_MCS_to_ref>  (416) 
0.6202633513274823

$$$$
ligand
     RDKit          3D

 48 51  0  0  0  0  0  0  0  0999 V2000
   18.9090   19.1540    7.5370 C   0  0  0  0  0  0  0  0  0  0  0  0
   18.7730   17.6460    7.6780 C   0  0  0  0  0  0  0  0  0  0  0  0
   20.0620   16.9410    7.4450 C   0  0  0  0  0  0  0  0  0  0  0  0
   20.5370   15.7830    8.0280 C   0  0  0  0  0  0  0  0  0  0  0  0
   21.7510   15.5830    7.4340 N   0  0  0  0  0  0  0  0  0  0  0  0
   22.8820   14.4270    7.8840 S   0  0  0  0  0  6  0  0  0  0  0  0
   23.5270   13.9830    6.6650 O   0  0  0  0  0  0  0  0  0  0  0  0
   22.1820   13.5230    8.7780 O   0  0  0  0  0  0  0  0  0  0  0  0
   24.0600   15.3260    8.8540 C   0  0  0  0  0  0  0  0  0  0  0  0
   25.0390   16.1020    8.2160 C   0  0  0  0  0  0  0  0  0  0  0  0
   25.9680   16.8270    8.9630 C   0  0  0  0  0  0  0  0  0  0  0  0
   25.9500   16.7910   10.3640 C   0  0  0  0  0  0  0  0  0  0  0  0
   24.9870   16.0000   11.0210 C   0  0  0  0  0  0  0  0  0  0  0  0
   24.6520   15.6980   12.3740 C   0  0  0  0  0  0  0  0  0  0  0  0
   25.3030   16.2040   13.5920 C   0  0  0  0  0  0  0  0  0  0  0  0
   25.5980   15.4950   14.5490 O   0  0  0  0  0  0  0  0  0  0  0  0
   25.5630   17.5550   13.5540 N   0  0  0  0  0  0  0  0  0  0  0  0
   26.3390   18.2330   14.5720 C   0  0  2  0  0  0  0  0  0  0  0  0
   25.8540   17.8940   15.9770 C   0  0  0  0  0  0  0  0  0  0  0  0
   26.6890   18.6460   17.0010 C   0  0  0  0  0  0  0  0  0  0  0  0
   26.6640   20.1330   16.7430 C   0  0  0  0  0  0  0  0  0  0  0  0
   26.7290   20.9590   17.6500 O   0  0  0  0  0  0  0  0  0  0  0  0
   26.6000   20.5290   15.4310 N   0  0  0  0  0  0  0  0  0  0  0  0
   26.2430   19.7480   14.3600 C   0  0  0  0  0  0  0  0  0  0  0  0
   25.8950   20.2600   13.2960 O   0  0  0  0  0  0  0  0  0  0  0  0
   23.6030   14.8500   12.4400 N   0  0  0  0  0  0  0  0  0  0  0  0
   23.2940   14.6090   11.1550 N   0  0  0  0  0  0  0  0  0  0  0  0
   24.0750   15.2860   10.2550 C   0  0  0  0  0  0  0  0  0  0  0  0
   21.9980   16.6000    6.5710 C   0  0  0  0  0  0  0  0  0  0  0  0
   20.9850   17.4420    6.5480 N   0  0  0  0  0  0  0  0  0  0  0  0
   18.9504   19.6134    8.5356 H   0  0  0  0  0  0  0  0  0  0  0  0
   19.8320   19.3891    6.9867 H   0  0  0  0  0  0  0  0  0  0  0  0
   18.0430   19.5504    6.9867 H   0  0  0  0  0  0  0  0  0  0  0  0
   18.4220   17.4156    8.6947 H   0  0  0  0  0  0  0  0  0  0  0  0
   18.0566   17.2992    6.9187 H   0  0  0  0  0  0  0  0  0  0  0  0
   20.0496   15.1633    8.7951 H   0  0  0  0  0  0  0  0  0  0  0  0
   25.0746   16.1393    7.1172 H   0  0  0  0  0  0  0  0  0  0  0  0
   26.7247   17.4350    8.4455 H   0  0  0  0  0  0  0  0  0  0  0  0
   26.6801   17.3742   10.9444 H   0  0  0  0  0  0  0  0  0  0  0  0
   25.1901   18.1072   12.7686 H   0  0  0  0  0  0  0  0  0  0  0  0
   27.3815   17.8941   14.4804 H   0  0  0  0  0  0  0  0  0  0  0  0
   24.7985   18.1859   16.0801 H   0  0  0  0  0  0  0  0  0  0  0  0
   25.9556   16.8120   16.1470 H   0  0  0  0  0  0  0  0  0  0  0  0
   26.2863   18.4497   18.0056 H   0  0  0  0  0  0  0  0  0  0  0  0
   27.7295   18.2976   16.9242 H   0  0  0  0  0  0  0  0  0  0  0  0
   26.8439   21.5092   15.2297 H   0  0  0  0  0  0  0  0  0  0  0  0
   22.5366   13.9714   10.8711 H   0  0  0  0  0  0  0  0  0  0  0  0
   22.9157   16.7067    5.9739 H   0  0  0  0  0  0  0  0  0  0  0  0
  1  2  1  0
  2  3  1  0
  3  4  2  0
  4  5  1  0
  5  6  1  0
  6  7  2  0
  6  8  2  0
  6  9  1  0
  9 10  2  0
 10 11  1  0
 11 12  2  0
 12 13  1  0
 13 14  1  0
 14 15  1  0
 15 16  2  0
 15 17  1  0
 17 18  1  0
 18 19  1  0
 19 20  1  0
 20 21  1  0
 21 22  2  0
 21 23  1  0
 23 24  1  0
 24 25  2  0
 14 26  2  0
 26 27  1  0
 27 28  1  0
  5 29  1  0
 29 30  2  0
 30  3  1  0
 28  9  1  0
 28 13  2  0
 24 18  1  0
  1 31  1  0
  1 32  1  0
  1 33  1  0
  2 34  1  0
  2 35  1  0
  4 36  1  0
 10 37  1  0
 11 38  1  0
 12 39  1  0
 17 40  1  0
 18 41  1  1
 19 42  1  0
 19 43  1  0
 20 44  1  0
 20 45  1  0
 23 46  1  0
 27 47  1  0
 29 48  1  0
M  END
>  <meeko>  (417) 
{"is_sidechain": [true], "free_energy": -10.84, "intermolecular_energy": 0.0, "internal_energy": -10.84, "cluster_size": 19, "cluster_id": 1, "rank_in_cluster": 1}

>  <_RMSD_MCS_to_ref>  (417) 
0.9055047702187369

$$$$
ligand
     RDKit          3D

 48 51  0  0  0  0  0  0  0  0999 V2000
   18.9090   19.1540    7.5370 C   0  0  0  0  0  0  0  0  0  0  0  0
   18.7730   17.6460    7.6780 C   0  0  0  0  0  0  0  0  0  0  0  0
   20.0910   16.9570    7.6480 C   0  0  0  0  0  0  0  0  0  0  0  0
   21.0130   16.8000    8.6640 C   0  0  0  0  0  0  0  0  0  0  0  0
   22.0200   16.0760    8.0900 N   0  0  0  0  0  0  0  0  0  0  0  0
   23.4440   15.6030    8.8630 S   0  0  0  0  0  6  0  0  0  0  0  0
   23.7250   14.3050    8.2680 O   0  0  0  0  0  0  0  0  0  0  0  0
   24.3770   16.6980    8.6670 O   0  0  0  0  0  0  0  0  0  0  0  0
   23.1480   15.3830   10.5450 C   0  0  0  0  0  0  0  0  0  0  0  0
   24.0270   15.8730   11.4430 C   0  0  0  0  0  0  0  0  0  0  0  0
   23.7610   15.7010   12.8700 C   0  0  0  0  0  0  0  0  0  0  0  0
   24.6860   16.2210   13.9260 C   0  0  0  0  0  0  0  0  0  0  0  0
   25.2150   15.4830   14.7490 O   0  0  0  0  0  0  0  0  0  0  0  0
   24.9240   17.5710   13.8630 N   0  0  0  0  0  0  0  0  0  0  0  0
   25.9220   18.2030   14.7170 C   0  0  2  0  0  0  0  0  0  0  0  0
   25.6650   17.9390   16.1970 C   0  0  0  0  0  0  0  0  0  0  0  0
   26.7150   18.6610   17.0280 C   0  0  0  0  0  0  0  0  0  0  0  0
   26.7440   20.1390   16.7150 C   0  0  0  0  0  0  0  0  0  0  0  0
   27.0090   20.9870   17.5620 O   0  0  0  0  0  0  0  0  0  0  0  0
   26.4900   20.4980   15.4150 N   0  0  0  0  0  0  0  0  0  0  0  0
   25.8870   19.7130   14.4640 C   0  0  0  0  0  0  0  0  0  0  0  0
   25.3660   20.2050   13.4640 O   0  0  0  0  0  0  0  0  0  0  0  0
   22.6290   15.0980   13.2910 C   0  0  0  0  0  0  0  0  0  0  0  0
   21.7020   14.5880   12.3370 C   0  0  0  0  0  0  0  0  0  0  0  0
   20.5010   13.9270   12.4260 C   0  0  0  0  0  0  0  0  0  0  0  0
   20.1180   13.7170   11.0950 C   0  0  0  0  0  0  0  0  0  0  0  0
   21.0010   14.2010   10.2230 N   0  0  0  0  0  0  0  0  0  0  0  0
   21.9880   14.7470   10.9740 N   0  0  0  0  0  0  0  0  0  0  0  0
   21.7180   15.8420    6.7880 C   0  0  0  0  0  0  0  0  0  0  0  0
   20.5410   16.3550    6.4900 N   0  0  0  0  0  0  0  0  0  0  0  0
   18.9504   19.6134    8.5356 H   0  0  0  0  0  0  0  0  0  0  0  0
   19.8320   19.3891    6.9867 H   0  0  0  0  0  0  0  0  0  0  0  0
   18.0430   19.5504    6.9867 H   0  0  0  0  0  0  0  0  0  0  0  0
   18.2785   17.4230    8.6350 H   0  0  0  0  0  0  0  0  0  0  0  0
   18.1813   17.2795    6.8262 H   0  0  0  0  0  0  0  0  0  0  0  0
   20.9511   17.1720    9.6973 H   0  0  0  0  0  0  0  0  0  0  0  0
   24.9338   16.3961   11.1053 H   0  0  0  0  0  0  0  0  0  0  0  0
   24.3875   18.1484   13.2000 H   0  0  0  0  0  0  0  0  0  0  0  0
   26.9058   17.7770   14.4707 H   0  0  0  0  0  0  0  0  0  0  0  0
   24.6649   18.3085   16.4676 H   0  0  0  0  0  0  0  0  0  0  0  0
   25.7205   16.8580   16.3928 H   0  0  0  0  0  0  0  0  0  0  0  0
   26.4828   18.5254   18.0946 H   0  0  0  0  0  0  0  0  0  0  0  0
   27.7005   18.2362   16.7864 H   0  0  0  0  0  0  0  0  0  0  0  0
   26.7784   21.4437   15.1263 H   0  0  0  0  0  0  0  0  0  0  0  0
   22.4230   15.0007   14.3672 H   0  0  0  0  0  0  0  0  0  0  0  0
   19.9615   13.6296   13.3373 H   0  0  0  0  0  0  0  0  0  0  0  0
   19.1884   13.2074   10.8016 H   0  0  0  0  0  0  0  0  0  0  0  0
   22.3641   15.3007    6.0812 H   0  0  0  0  0  0  0  0  0  0  0  0
  1  2  1  0
  2  3  1  0
  3  4  2  0
  4  5  1  0
  5  6  1  0
  6  7  2  0
  6  8  2  0
  6  9  1  0
  9 10  2  0
 10 11  1  0
 11 12  1  0
 12 13  2  0
 12 14  1  0
 14 15  1  0
 15 16  1  0
 16 17  1  0
 17 18  1  0
 18 19  2  0
 18 20  1  0
 20 21  1  0
 21 22  2  0
 11 23  2  0
 23 24  1  0
 24 25  2  0
 25 26  1  0
 26 27  2  0
 27 28  1  0
  5 29  1  0
 29 30  2  0
 30  3  1  0
 28  9  1  0
 21 15  1  0
 28 24  1  0
  1 31  1  0
  1 32  1  0
  1 33  1  0
  2 34  1  0
  2 35  1  0
  4 36  1  0
 10 37  1  0
 14 38  1  0
 15 39  1  6
 16 40  1  0
 16 41  1  0
 17 42  1  0
 17 43  1  0
 20 44  1  0
 23 45  1  0
 25 46  1  0
 26 47  1  0
 29 48  1  0
M  END
>  <meeko>  (418) 
{"is_sidechain": [true], "free_energy": -10.84, "intermolecular_energy": 0.0, "internal_energy": -10.84, "cluster_size": 20, "cluster_id": 1, "rank_in_cluster": 1}

>  <_RMSD_MCS_to_ref>  (418) 
0.6549837996300195

$$$$
ligand
     RDKit          3D

 47 50  0  0  0  0  0  0  0  0999 V2000
   18.9090   19.1540    7.5370 C   0  0  0  0  0  0  0  0  0  0  0  0
   18.7730   17.6460    7.6780 C   0  0  0  0  0  0  0  0  0  0  0  0
   20.0430   16.9350    7.3650 C   0  0  0  0  0  0  0  0  0  0  0  0
   21.1890   16.8280    8.1270 C   0  0  0  0  0  0  0  0  0  0  0  0
   22.0380   16.0920    7.3530 N   0  0  0  0  0  0  0  0  0  0  0  0
   23.5480   15.5290    7.8000 S   0  0  0  0  0  6  0  0  0  0  0  0
   23.4720   14.0800    7.7930 O   0  0  0  0  0  0  0  0  0  0  0  0
   24.5190   16.2660    7.0130 O   0  0  0  0  0  0  0  0  0  0  0  0
   23.8750   15.9580    9.4480 C   0  0  0  0  0  0  0  0  0  0  0  0
   24.9100   16.7300    9.8290 N   0  0  0  0  0  0  0  0  0  0  0  0
   24.7730   16.8050   11.1670 N   0  0  0  0  0  0  0  0  0  0  0  0
   23.6940   16.1150   11.6480 C   0  0  0  0  0  0  0  0  0  0  0  0
   23.2140   15.9480   12.9380 C   0  0  0  0  0  0  0  0  0  0  0  0
   23.8860   16.5630   14.1110 C   0  0  0  0  0  0  0  0  0  0  0  0
   24.0970   15.9050   15.1250 O   0  0  0  0  0  0  0  0  0  0  0  0
   24.2210   17.8860   13.9590 N   0  0  0  0  0  0  0  0  0  0  0  0
   24.7460   18.6930   15.0460 C   0  0  1  0  0  0  0  0  0  0  0  0
   25.8170   17.9530   15.8400 C   0  0  0  0  0  0  0  0  0  0  0  0
   26.3410   18.8520   16.9490 C   0  0  0  0  0  0  0  0  0  0  0  0
   26.8550   20.1610   16.3970 C   0  0  0  0  0  0  0  0  0  0  0  0
   27.7980   20.7630   16.9020 O   0  0  0  0  0  0  0  0  0  0  0  0
   26.1920   20.6730   15.3110 N   0  0  0  0  0  0  0  0  0  0  0  0
   25.3450   19.9830   14.4760 C   0  0  0  0  0  0  0  0  0  0  0  0
   25.0850   20.4070   13.3510 O   0  0  0  0  0  0  0  0  0  0  0  0
   22.0970   15.1940   13.1380 N   0  0  0  0  0  0  0  0  0  0  0  0
   21.4940   14.6340   12.0650 C   0  0  0  0  0  0  0  0  0  0  0  0
   21.9250   14.7660   10.7500 C   0  0  0  0  0  0  0  0  0  0  0  0
   23.0760   15.5420   10.5450 C   0  0  0  0  0  0  0  0  0  0  0  0
   21.3970   15.7270    6.2120 C   0  0  0  0  0  0  0  0  0  0  0  0
   20.1880   16.2470    6.1750 N   0  0  0  0  0  0  0  0  0  0  0  0
   18.9504   19.6134    8.5356 H   0  0  0  0  0  0  0  0  0  0  0  0
   19.8320   19.3891    6.9867 H   0  0  0  0  0  0  0  0  0  0  0  0
   18.0430   19.5504    6.9867 H   0  0  0  0  0  0  0  0  0  0  0  0
   18.4816   17.4118    8.7125 H   0  0  0  0  0  0  0  0  0  0  0  0
   18.0108   17.3072    6.9609 H   0  0  0  0  0  0  0  0  0  0  0  0
   21.3752   17.2416    9.1291 H   0  0  0  0  0  0  0  0  0  0  0  0
   25.4197   17.3322   11.7710 H   0  0  0  0  0  0  0  0  0  0  0  0
   24.0946   18.3242   13.0355 H   0  0  0  0  0  0  0  0  0  0  0  0
   23.9136   18.9196   15.7284 H   0  0  0  0  0  0  0  0  0  0  0  0
   25.3833   17.0431   16.2803 H   0  0  0  0  0  0  0  0  0  0  0  0
   26.6449   17.6786   15.1698 H   0  0  0  0  0  0  0  0  0  0  0  0
   25.5262   19.0576   17.6588 H   0  0  0  0  0  0  0  0  0  0  0  0
   27.1729   18.3359   17.4507 H   0  0  0  0  0  0  0  0  0  0  0  0
   26.3430   21.6699   15.1007 H   0  0  0  0  0  0  0  0  0  0  0  0
   20.5941   14.0280   12.2465 H   0  0  0  0  0  0  0  0  0  0  0  0
   21.3923   14.2877    9.9148 H   0  0  0  0  0  0  0  0  0  0  0  0
   21.8280   15.0864    5.4285 H   0  0  0  0  0  0  0  0  0  0  0  0
  1  2  1  0
  2  3  1  0
  3  4  2  0
  4  5  1  0
  5  6  1  0
  6  7  2  0
  6  8  2  0
  6  9  1  0
  9 10  2  0
 10 11  1  0
 11 12  1  0
 12 13  2  0
 13 14  1  0
 14 15  2  0
 14 16  1  0
 16 17  1  0
 17 18  1  0
 18 19  1  0
 19 20  1  0
 20 21  2  0
 20 22  1  0
 22 23  1  0
 23 24  2  0
 13 25  1  0
 25 26  2  0
 26 27  1  0
 27 28  2  0
  5 29  1  0
 29 30  2  0
 30  3  1  0
 28  9  1  0
 28 12  1  0
 23 17  1  0
  1 31  1  0
  1 32  1  0
  1 33  1  0
  2 34  1  0
  2 35  1  0
  4 36  1  0
 11 37  1  0
 16 38  1  0
 17 39  1  1
 18 40  1  0
 18 41  1  0
 19 42  1  0
 19 43  1  0
 22 44  1  0
 26 45  1  0
 27 46  1  0
 29 47  1  0
M  END
>  <meeko>  (419) 
{"is_sidechain": [true], "free_energy": -10.84, "intermolecular_energy": 0.0, "internal_energy": -10.84, "cluster_size": 8, "cluster_id": 1, "rank_in_cluster": 1}

>  <_RMSD_MCS_to_ref>  (419) 
0.44123626827862245

$$$$
ligand
     RDKit          3D

 46 49  0  0  0  0  0  0  0  0999 V2000
   18.9090   19.1540    7.5370 C   0  0  0  0  0  0  0  0  0  0  0  0
   18.7730   17.6460    7.6780 C   0  0  0  0  0  0  0  0  0  0  0  0
   20.0820   16.9790    7.9150 C   0  0  0  0  0  0  0  0  0  0  0  0
   20.4390   16.1110    8.9280 C   0  0  0  0  0  0  0  0  0  0  0  0
   21.7420   15.7950    8.6620 N   0  0  0  0  0  0  0  0  0  0  0  0
   22.7830   15.0060    9.7180 S   0  0  0  0  0  6  0  0  0  0  0  0
   23.2360   13.8420    8.9810 O   0  0  0  0  0  0  0  0  0  0  0  0
   23.6940   16.0210   10.2110 O   0  0  0  0  0  0  0  0  0  0  0  0
   21.8910   14.4210   11.0920 C   0  0  0  0  0  0  0  0  0  0  0  0
   21.0190   13.4260   11.0900 N   0  0  0  0  0  0  0  0  0  0  0  0
   20.5600   13.2570   12.3770 N   0  0  0  0  0  0  0  0  0  0  0  0
   21.1600   14.1460   13.1340 C   0  0  0  0  0  0  0  0  0  0  0  0
   21.0880   14.4270   14.5150 C   0  0  0  0  0  0  0  0  0  0  0  0
   21.8210   15.4310   15.0160 C   0  0  0  0  0  0  0  0  0  0  0  0
   22.6680   16.1990   14.0620 C   0  0  0  0  0  0  0  0  0  0  0  0
   23.4870   17.3460   14.6610 C   0  0  0  0  0  0  0  0  0  0  0  0
   23.0560   17.9690   15.6190 O   0  0  0  0  0  0  0  0  0  0  0  0
   24.6940   17.5700   14.0330 N   0  0  0  0  0  0  0  0  0  0  0  0
   25.7590   18.2660   14.7370 C   0  0  2  0  0  0  0  0  0  0  0  0
   25.7130   17.9720   16.2300 C   0  0  0  0  0  0  0  0  0  0  0  0
   26.8230   18.7360   16.9330 C   0  0  0  0  0  0  0  0  0  0  0  0
   26.7260   20.2190   16.6570 C   0  0  0  0  0  0  0  0  0  0  0  0
   27.0840   21.0620   17.4740 O   0  0  0  0  0  0  0  0  0  0  0  0
   26.2570   20.5850   15.4210 N   0  0  0  0  0  0  0  0  0  0  0  0
   25.6120   19.7810   14.5110 C   0  0  0  0  0  0  0  0  0  0  0  0
   24.9920   20.2730   13.5690 O   0  0  0  0  0  0  0  0  0  0  0  0
   22.7620   15.9750   12.7810 N   0  0  0  0  0  0  0  0  0  0  0  0
   22.0020   14.9220   12.3610 N   0  0  0  0  0  0  0  0  0  0  0  0
   22.1380   16.4550    7.5410 C   0  0  0  0  0  0  0  0  0  0  0  0
   21.1620   17.2170    7.0850 N   0  0  0  0  0  0  0  0  0  0  0  0
   18.9504   19.6134    8.5356 H   0  0  0  0  0  0  0  0  0  0  0  0
   19.8320   19.3891    6.9867 H   0  0  0  0  0  0  0  0  0  0  0  0
   18.0430   19.5504    6.9867 H   0  0  0  0  0  0  0  0  0  0  0  0
   18.1070   17.4290    8.5262 H   0  0  0  0  0  0  0  0  0  0  0  0
   18.3634   17.2561    6.7345 H   0  0  0  0  0  0  0  0  0  0  0  0
   19.8154   15.7543    9.7611 H   0  0  0  0  0  0  0  0  0  0  0  0
   20.4386   13.8297   15.1719 H   0  0  0  0  0  0  0  0  0  0  0  0
   21.7979   15.6775   16.0878 H   0  0  0  0  0  0  0  0  0  0  0  0
   24.8409   17.2448   13.0668 H   0  0  0  0  0  0  0  0  0  0  0  0
   26.7242   17.9143   14.3437 H   0  0  0  0  0  0  0  0  0  0  0  0
   24.7394   18.2849   16.6352 H   0  0  0  0  0  0  0  0  0  0  0  0
   25.8501   16.8931   16.3949 H   0  0  0  0  0  0  0  0  0  0  0  0
   26.7440   18.5669   18.0171 H   0  0  0  0  0  0  0  0  0  0  0  0
   27.7897   18.3737   16.5532 H   0  0  0  0  0  0  0  0  0  0  0  0
   26.4036   21.5665   15.1453 H   0  0  0  0  0  0  0  0  0  0  0  0
   23.1324   16.3661    7.0791 H   0  0  0  0  0  0  0  0  0  0  0  0
  1  2  1  0
  2  3  1  0
  3  4  2  0
  4  5  1  0
  5  6  1  0
  6  7  2  0
  6  8  2  0
  6  9  1  0
  9 10  2  0
 10 11  1  0
 11 12  2  0
 12 13  1  0
 13 14  2  0
 14 15  1  0
 15 16  1  0
 16 17  2  0
 16 18  1  0
 18 19  1  0
 19 20  1  0
 20 21  1  0
 21 22  1  0
 22 23  2  0
 22 24  1  0
 24 25  1  0
 25 26  2  0
 15 27  2  0
 27 28  1  0
  5 29  1  0
 29 30  2  0
 30  3  1  0
 28  9  1  0
 28 12  1  0
 25 19  1  0
  1 31  1  0
  1 32  1  0
  1 33  1  0
  2 34  1  0
  2 35  1  0
  4 36  1  0
 13 37  1  0
 14 38  1  0
 18 39  1  0
 19 40  1  6
 20 41  1  0
 20 42  1  0
 21 43  1  0
 21 44  1  0
 24 45  1  0
 29 46  1  0
M  END
>  <meeko>  (420) 
{"is_sidechain": [true], "free_energy": -10.84, "intermolecular_energy": 0.0, "internal_energy": -10.84, "cluster_size": 13, "cluster_id": 1, "rank_in_cluster": 1}

>  <_RMSD_MCS_to_ref>  (420) 
0.5611818877254607

$$$$
ligand
     RDKit          3D

 50 53  0  0  0  0  0  0  0  0999 V2000
   18.9090   19.1540    7.5370 C   0  0  0  0  0  0  0  0  0  0  0  0
   18.7730   17.6460    7.6780 C   0  0  0  0  0  0  0  0  0  0  0  0
   20.0810   16.9490    7.5410 C   0  0  0  0  0  0  0  0  0  0  0  0
   21.1030   16.8310    8.4620 C   0  0  0  0  0  0  0  0  0  0  0  0
   22.0640   16.1180    7.8040 N   0  0  0  0  0  0  0  0  0  0  0  0
   23.4600   15.4820    8.4910 S   0  0  0  0  0  6  0  0  0  0  0  0
   24.5090   16.4500    8.2430 O   0  0  0  0  0  0  0  0  0  0  0  0
   23.5420   14.1130    8.0230 O   0  0  0  0  0  0  0  0  0  0  0  0
   23.1100   15.4680   10.2250 C   0  0  0  0  0  0  0  0  0  0  0  0
   23.8780   16.2310   11.0950 C   0  0  0  0  0  0  0  0  0  0  0  0
   23.5680   16.2180   12.4600 C   0  0  0  0  0  0  0  0  0  0  0  0
   24.4140   17.0770   13.3200 C   0  0  0  0  0  0  0  0  0  0  0  0
   25.6290   17.0750   13.1770 O   0  0  0  0  0  0  0  0  0  0  0  0
   23.7460   17.8820   14.2080 N   0  0  0  0  0  0  0  0  0  0  0  0
   24.4550   18.7230   15.1600 C   0  0  1  0  0  0  0  0  0  0  0  0
   25.5070   17.9400   15.9380 C   0  0  0  0  0  0  0  0  0  0  0  0
   26.2330   18.8780   16.8910 C   0  0  0  0  0  0  0  0  0  0  0  0
   26.8310   20.0540   16.1540 C   0  0  0  0  0  0  0  0  0  0  0  0
   27.8850   20.5800   16.4990 O   0  0  0  0  0  0  0  0  0  0  0  0
   26.1200   20.5360   15.0850 N   0  0  0  0  0  0  0  0  0  0  0  0
   25.1360   19.8660   14.4010 C   0  0  0  0  0  0  0  0  0  0  0  0
   24.8250   20.1840   13.2540 O   0  0  0  0  0  0  0  0  0  0  0  0
   22.5100   15.4170   12.9680 C   0  0  0  0  0  0  0  0  0  0  0  0
   22.1750   15.2780   14.3340 C   0  0  0  0  0  0  0  0  0  0  0  0
   21.1110   14.4740   14.7260 C   0  0  0  0  0  0  0  0  0  0  0  0
   20.4080   13.8140   13.7430 C   0  0  0  0  0  0  0  0  0  0  0  0
   20.7040   13.8980   12.4280 N   0  0  0  0  0  0  0  0  0  0  0  0
   21.7320   14.6710   12.0530 C   0  0  0  0  0  0  0  0  0  0  0  0
   22.0350   14.7160   10.7020 C   0  0  0  0  0  0  0  0  0  0  0  0
   21.6070   15.7850    6.5710 C   0  0  0  0  0  0  0  0  0  0  0  0
   20.4060   16.2870    6.3740 N   0  0  0  0  0  0  0  0  0  0  0  0
   18.9504   19.6134    8.5356 H   0  0  0  0  0  0  0  0  0  0  0  0
   19.8320   19.3891    6.9867 H   0  0  0  0  0  0  0  0  0  0  0  0
   18.0430   19.5504    6.9867 H   0  0  0  0  0  0  0  0  0  0  0  0
   18.3527   17.4192    8.6689 H   0  0  0  0  0  0  0  0  0  0  0  0
   18.1139   17.2893    6.8728 H   0  0  0  0  0  0  0  0  0  0  0  0
   21.1356   17.2216    9.4898 H   0  0  0  0  0  0  0  0  0  0  0  0
   24.7160   16.8355   10.7177 H   0  0  0  0  0  0  0  0  0  0  0  0
   22.7161   17.8911   14.2003 H   0  0  0  0  0  0  0  0  0  0  0  0
   23.7236   19.1134   15.8830 H   0  0  0  0  0  0  0  0  0  0  0  0
   25.0182   17.1394   16.5125 H   0  0  0  0  0  0  0  0  0  0  0  0
   26.2295   17.4979   15.2362 H   0  0  0  0  0  0  0  0  0  0  0  0
   25.5192   19.2502   17.6406 H   0  0  0  0  0  0  0  0  0  0  0  0
   27.0485   18.3196   17.3740 H   0  0  0  0  0  0  0  0  0  0  0  0
   26.3450   21.4890   14.7656 H   0  0  0  0  0  0  0  0  0  0  0  0
   22.7627   15.8119   15.0953 H   0  0  0  0  0  0  0  0  0  0  0  0
   20.8395   14.3684   15.7867 H   0  0  0  0  0  0  0  0  0  0  0  0
   19.5587   13.1837   14.0454 H   0  0  0  0  0  0  0  0  0  0  0  0
   21.4165   14.1482    9.9913 H   0  0  0  0  0  0  0  0  0  0  0  0
   22.1620   15.1804    5.8386 H   0  0  0  0  0  0  0  0  0  0  0  0
  1  2  1  0
  2  3  1  0
  3  4  2  0
  4  5  1  0
  5  6  1  0
  6  7  2  0
  6  8  2  0
  6  9  1  0
  9 10  2  0
 10 11  1  0
 11 12  1  0
 12 13  2  0
 12 14  1  0
 14 15  1  0
 15 16  1  0
 16 17  1  0
 17 18  1  0
 18 19  2  0
 18 20  1  0
 20 21  1  0
 21 22  2  0
 11 23  2  0
 23 24  1  0
 24 25  2  0
 25 26  1  0
 26 27  2  0
 27 28  1  0
 28 29  2  0
  5 30  1  0
 30 31  2  0
 31  3  1  0
 29  9  1  0
 21 15  1  0
 28 23  1  0
  1 32  1  0
  1 33  1  0
  1 34  1  0
  2 35  1  0
  2 36  1  0
  4 37  1  0
 10 38  1  0
 14 39  1  0
 15 40  1  1
 16 41  1  0
 16 42  1  0
 17 43  1  0
 17 44  1  0
 20 45  1  0
 24 46  1  0
 25 47  1  0
 26 48  1  0
 29 49  1  0
 30 50  1  0
M  END
>  <meeko>  (421) 
{"is_sidechain": [true], "free_energy": -10.84, "intermolecular_energy": 0.0, "internal_energy": -10.84, "cluster_size": 20, "cluster_id": 1, "rank_in_cluster": 1}

>  <_RMSD_MCS_to_ref>  (421) 
0.6048566404988512

$$$$
ligand
     RDKit          3D

 49 52  0  0  0  0  0  0  0  0999 V2000
   18.9090   19.1540    7.5370 C   0  0  0  0  0  0  0  0  0  0  0  0
   18.7730   17.6460    7.6780 C   0  0  0  0  0  0  0  0  0  0  0  0
   20.0930   16.9600    7.6730 C   0  0  0  0  0  0  0  0  0  0  0  0
   21.0080   16.8290    8.7000 C   0  0  0  0  0  0  0  0  0  0  0  0
   22.0390   16.1270    8.1420 N   0  0  0  0  0  0  0  0  0  0  0  0
   23.4380   15.6440    8.9380 S   0  0  0  0  0  6  0  0  0  0  0  0
   23.8490   14.3860    8.3410 O   0  0  0  0  0  0  0  0  0  0  0  0
   24.2860   16.8240    8.8790 O   0  0  0  0  0  0  0  0  0  0  0  0
   22.9640   15.3660   10.6230 C   0  0  0  0  0  0  0  0  0  0  0  0
   23.8770   15.8470   11.5230 N   0  0  0  0  0  0  0  0  0  0  0  0
   23.5680   15.6700   12.8260 C   0  0  0  0  0  0  0  0  0  0  0  0
   24.5520   16.1910   13.8260 C   0  0  0  0  0  0  0  0  0  0  0  0
   25.0740   15.4510   14.6520 O   0  0  0  0  0  0  0  0  0  0  0  0
   24.8130   17.5380   13.7320 N   0  0  0  0  0  0  0  0  0  0  0  0
   25.8310   18.1910   14.5370 C   0  0  2  0  0  0  0  0  0  0  0  0
   25.6300   17.9250   16.0250 C   0  0  0  0  0  0  0  0  0  0  0  0
   26.7090   18.6410   16.8200 C   0  0  0  0  0  0  0  0  0  0  0  0
   26.7250   20.1200   16.5160 C   0  0  0  0  0  0  0  0  0  0  0  0
   27.0360   20.9610   17.3540 O   0  0  0  0  0  0  0  0  0  0  0  0
   26.4080   20.4850   15.2320 N   0  0  0  0  0  0  0  0  0  0  0  0
   25.7920   19.7030   14.2860 C   0  0  0  0  0  0  0  0  0  0  0  0
   25.2730   20.2070   13.2920 O   0  0  0  0  0  0  0  0  0  0  0  0
   22.4050   15.0480   13.2530 C   0  0  0  0  0  0  0  0  0  0  0  0
   21.5020   14.5700   12.2890 C   0  0  0  0  0  0  0  0  0  0  0  0
   20.3120   13.9350   12.6690 C   0  0  0  0  0  0  0  0  0  0  0  0
   19.4290   13.4740   11.7000 C   0  0  0  0  0  0  0  0  0  0  0  0
   19.7680   13.6610   10.3760 C   0  0  0  0  0  0  0  0  0  0  0  0
   20.9080   14.2660    9.9770 N   0  0  0  0  0  0  0  0  0  0  0  0
   21.7690   14.7210   10.9140 C   0  0  0  0  0  0  0  0  0  0  0  0
   21.7430   15.8550    6.8450 C   0  0  0  0  0  0  0  0  0  0  0  0
   20.5600   16.3440    6.5290 N   0  0  0  0  0  0  0  0  0  0  0  0
   18.9504   19.6134    8.5356 H   0  0  0  0  0  0  0  0  0  0  0  0
   19.8320   19.3891    6.9867 H   0  0  0  0  0  0  0  0  0  0  0  0
   18.0430   19.5504    6.9867 H   0  0  0  0  0  0  0  0  0  0  0  0
   18.2617   17.4235    8.6262 H   0  0  0  0  0  0  0  0  0  0  0  0
   18.1972   17.2768    6.8165 H   0  0  0  0  0  0  0  0  0  0  0  0
   20.9254   17.2040    9.7308 H   0  0  0  0  0  0  0  0  0  0  0  0
   24.2671   18.1043   13.0670 H   0  0  0  0  0  0  0  0  0  0  0  0
   26.8076   17.7786   14.2433 H   0  0  0  0  0  0  0  0  0  0  0  0
   24.6412   18.2957   16.3331 H   0  0  0  0  0  0  0  0  0  0  0  0
   25.6927   16.8433   16.2149 H   0  0  0  0  0  0  0  0  0  0  0  0
   26.5172   18.4980   17.8937 H   0  0  0  0  0  0  0  0  0  0  0  0
   27.6850   18.2185   16.5390 H   0  0  0  0  0  0  0  0  0  0  0  0
   26.6575   21.4433   14.9487 H   0  0  0  0  0  0  0  0  0  0  0  0
   22.1934   14.9310   14.3261 H   0  0  0  0  0  0  0  0  0  0  0  0
   20.0766   13.8013   13.7352 H   0  0  0  0  0  0  0  0  0  0  0  0
   18.4892   12.9756   11.9800 H   0  0  0  0  0  0  0  0  0  0  0  0
   19.0732   13.2982    9.6042 H   0  0  0  0  0  0  0  0  0  0  0  0
   22.3984   15.3038    6.1546 H   0  0  0  0  0  0  0  0  0  0  0  0
  1  2  1  0
  2  3  1  0
  3  4  2  0
  4  5  1  0
  5  6  1  0
  6  7  2  0
  6  8  2  0
  6  9  1  0
  9 10  2  0
 10 11  1  0
 11 12  1  0
 12 13  2  0
 12 14  1  0
 14 15  1  0
 15 16  1  0
 16 17  1  0
 17 18  1  0
 18 19  2  0
 18 20  1  0
 20 21  1  0
 21 22  2  0
 11 23  2  0
 23 24  1  0
 24 25  2  0
 25 26  1  0
 26 27  2  0
 27 28  1  0
 28 29  2  0
  5 30  1  0
 30 31  2  0
 31  3  1  0
 29  9  1  0
 21 15  1  0
 29 24  1  0
  1 32  1  0
  1 33  1  0
  1 34  1  0
  2 35  1  0
  2 36  1  0
  4 37  1  0
 14 38  1  0
 15 39  1  6
 16 40  1  0
 16 41  1  0
 17 42  1  0
 17 43  1  0
 20 44  1  0
 23 45  1  0
 25 46  1  0
 26 47  1  0
 27 48  1  0
 30 49  1  0
M  END
>  <meeko>  (422) 
{"is_sidechain": [true], "free_energy": -10.84, "intermolecular_energy": 0.0, "internal_energy": -10.84, "cluster_size": 20, "cluster_id": 1, "rank_in_cluster": 1}

>  <_RMSD_MCS_to_ref>  (422) 
0.563578743389067

$$$$
ligand
     RDKit          3D

 50 53  0  0  0  0  0  0  0  0999 V2000
   18.9090   19.1540    7.5370 C   0  0  0  0  0  0  0  0  0  0  0  0
   18.7730   17.6460    7.6780 C   0  0  0  0  0  0  0  0  0  0  0  0
   20.0910   16.9570    7.6330 C   0  0  0  0  0  0  0  0  0  0  0  0
   20.9540   16.6650    8.6700 C   0  0  0  0  0  0  0  0  0  0  0  0
   21.9980   16.0230    8.0670 N   0  0  0  0  0  0  0  0  0  0  0  0
   23.4680   15.6410    8.7870 S   0  0  0  0  0  6  0  0  0  0  0  0
   23.8630   14.3570    8.2440 O   0  0  0  0  0  0  0  0  0  0  0  0
   24.2880   16.8300    8.6440 O   0  0  0  0  0  0  0  0  0  0  0  0
   23.0570   15.4240   10.4850 C   0  0  0  0  0  0  0  0  0  0  0  0
   23.9060   15.9340   11.4760 C   0  0  0  0  0  0  0  0  0  0  0  0
   23.6010   15.7540   12.8430 C   0  0  0  0  0  0  0  0  0  0  0  0
   24.5620   16.2980   13.8440 C   0  0  0  0  0  0  0  0  0  0  0  0
   25.1310   15.5400   14.6190 O   0  0  0  0  0  0  0  0  0  0  0  0
   24.7830   17.6550   13.8190 N   0  0  0  0  0  0  0  0  0  0  0  0
   25.8180   18.2630   14.6460 C   0  0  2  0  0  0  0  0  0  0  0  0
   25.6350   17.9510   16.1270 C   0  0  0  0  0  0  0  0  0  0  0  0
   26.7190   18.6540   16.9300 C   0  0  0  0  0  0  0  0  0  0  0  0
   26.7230   20.1400   16.6630 C   0  0  0  0  0  0  0  0  0  0  0  0
   27.0070   20.9650   17.5270 O   0  0  0  0  0  0  0  0  0  0  0  0
   26.4180   20.5370   15.3850 N   0  0  0  0  0  0  0  0  0  0  0  0
   25.7640   19.7810   14.4460 C   0  0  0  0  0  0  0  0  0  0  0  0
   25.1800   20.3030   13.4960 O   0  0  0  0  0  0  0  0  0  0  0  0
   22.4460   15.0530   13.2260 C   0  0  0  0  0  0  0  0  0  0  0  0
   21.6120   14.5730   12.2290 C   0  0  0  0  0  0  0  0  0  0  0  0
   21.9130   14.7620   10.8790 C   0  0  0  0  0  0  0  0  0  0  0  0
   20.9080   14.1880   10.1090 N   0  0  0  0  0  0  0  0  0  0  0  0
   19.9200   13.6090   10.8950 C   0  0  0  0  0  0  0  0  0  0  0  0
   18.9190   13.0440   10.4880 O   0  0  0  0  0  0  0  0  0  0  0  0
   20.3230   13.8100   12.3570 C   0  0  0  0  0  0  0  0  0  0  0  0
   21.7790   15.9770    6.7280 C   0  0  0  0  0  0  0  0  0  0  0  0
   20.6210   16.5280    6.4310 N   0  0  0  0  0  0  0  0  0  0  0  0
   18.9504   19.6134    8.5356 H   0  0  0  0  0  0  0  0  0  0  0  0
   19.8320   19.3891    6.9867 H   0  0  0  0  0  0  0  0  0  0  0  0
   18.0430   19.5504    6.9867 H   0  0  0  0  0  0  0  0  0  0  0  0
   18.2888   17.4222    8.6400 H   0  0  0  0  0  0  0  0  0  0  0  0
   18.1713   17.2803    6.8328 H   0  0  0  0  0  0  0  0  0  0  0  0
   20.8294   16.8965    9.7381 H   0  0  0  0  0  0  0  0  0  0  0  0
   24.8169   16.4787   11.1871 H   0  0  0  0  0  0  0  0  0  0  0  0
   24.2083   18.2511   13.2064 H   0  0  0  0  0  0  0  0  0  0  0  0
   26.7896   17.8486   14.3388 H   0  0  0  0  0  0  0  0  0  0  0  0
   24.6468   18.3041   16.4569 H   0  0  0  0  0  0  0  0  0  0  0  0
   25.7073   16.8648   16.2850 H   0  0  0  0  0  0  0  0  0  0  0  0
   26.5389   18.4830   18.0016 H   0  0  0  0  0  0  0  0  0  0  0  0
   27.6946   18.2446   16.6291 H   0  0  0  0  0  0  0  0  0  0  0  0
   26.7056   21.4861   15.1067 H   0  0  0  0  0  0  0  0  0  0  0  0
   22.2100   14.8895   14.2879 H   0  0  0  0  0  0  0  0  0  0  0  0
   20.8973   14.1916    9.0791 H   0  0  0  0  0  0  0  0  0  0  0  0
   19.5667   14.3934   12.9026 H   0  0  0  0  0  0  0  0  0  0  0  0
   20.4199   12.8709   12.9215 H   0  0  0  0  0  0  0  0  0  0  0  0
   22.4722   15.5404    5.9940 H   0  0  0  0  0  0  0  0  0  0  0  0
  1  2  1  0
  2  3  1  0
  3  4  2  0
  4  5  1  0
  5  6  1  0
  6  7  2  0
  6  8  2  0
  6  9  1  0
  9 10  2  0
 10 11  1  0
 11 12  1  0
 12 13  2  0
 12 14  1  0
 14 15  1  0
 15 16  1  0
 16 17  1  0
 17 18  1  0
 18 19  2  0
 18 20  1  0
 20 21  1  0
 21 22  2  0
 11 23  2  0
 23 24  1  0
 24 25  2  0
 25 26  1  0
 26 27  1  0
 27 28  2  0
 27 29  1  0
  5 30  1  0
 30 31  2  0
 31  3  1  0
 25  9  1  0
 21 15  1  0
 29 24  1  0
  1 32  1  0
  1 33  1  0
  1 34  1  0
  2 35  1  0
  2 36  1  0
  4 37  1  0
 10 38  1  0
 14 39  1  0
 15 40  1  6
 16 41  1  0
 16 42  1  0
 17 43  1  0
 17 44  1  0
 20 45  1  0
 23 46  1  0
 26 47  1  0
 29 48  1  0
 29 49  1  0
 30 50  1  0
M  END
>  <meeko>  (423) 
{"is_sidechain": [true], "free_energy": -10.84, "intermolecular_energy": 0.0, "internal_energy": -10.84, "cluster_size": 20, "cluster_id": 1, "rank_in_cluster": 1}

>  <_RMSD_MCS_to_ref>  (423) 
0.6044373416657842

$$$$
ligand
     RDKit          3D

 49 52  0  0  0  0  0  0  0  0999 V2000
   18.9090   19.1540    7.5370 C   0  0  0  0  0  0  0  0  0  0  0  0
   18.7730   17.6460    7.6780 C   0  0  0  0  0  0  0  0  0  0  0  0
   20.0870   16.9530    7.5940 C   0  0  0  0  0  0  0  0  0  0  0  0
   20.9880   16.6740    8.6030 C   0  0  0  0  0  0  0  0  0  0  0  0
   22.0010   16.0080    7.9730 N   0  0  0  0  0  0  0  0  0  0  0  0
   23.4970   15.6350    8.6420 S   0  0  0  0  0  6  0  0  0  0  0  0
   23.8760   14.3500    8.0900 O   0  0  0  0  0  0  0  0  0  0  0  0
   24.3060   16.8270    8.4880 O   0  0  0  0  0  0  0  0  0  0  0  0
   23.1350   15.4080   10.3660 C   0  0  0  0  0  0  0  0  0  0  0  0
   24.0230   15.9540   11.3280 C   0  0  0  0  0  0  0  0  0  0  0  0
   23.7720   15.7960   12.7020 C   0  0  0  0  0  0  0  0  0  0  0  0
   24.6740   16.3260   13.7590 C   0  0  0  0  0  0  0  0  0  0  0  0
   25.1580   15.5770   14.5990 O   0  0  0  0  0  0  0  0  0  0  0  0
   24.9550   17.6740   13.7150 N   0  0  0  0  0  0  0  0  0  0  0  0
   25.9450   18.2670   14.6060 C   0  0  2  0  0  0  0  0  0  0  0  0
   25.6690   17.9580   16.0730 C   0  0  0  0  0  0  0  0  0  0  0  0
   26.7070   18.6530   16.9410 C   0  0  0  0  0  0  0  0  0  0  0  0
   26.7390   20.1400   16.6740 C   0  0  0  0  0  0  0  0  0  0  0  0
   26.9740   20.9640   17.5520 O   0  0  0  0  0  0  0  0  0  0  0  0
   26.5180   20.5370   15.3790 N   0  0  0  0  0  0  0  0  0  0  0  0
   25.9150   19.7850   14.4020 C   0  0  0  0  0  0  0  0  0  0  0  0
   25.3890   20.3090   13.4190 O   0  0  0  0  0  0  0  0  0  0  0  0
   22.6140   15.1230   13.0460 C   0  0  0  0  0  0  0  0  0  0  0  0
   22.0750   14.8290   14.2990 N   0  0  0  0  0  0  0  0  0  0  0  0
   20.8700   14.1370   14.1320 C   0  0  0  0  0  0  0  0  0  0  0  0
   20.1250   13.7360   15.0060 O   0  0  0  0  0  0  0  0  0  0  0  0
   20.6820   13.9980   12.7480 N   0  0  0  0  0  0  0  0  0  0  0  0
   21.7430   14.6050   12.0870 C   0  0  0  0  0  0  0  0  0  0  0  0
   21.9690   14.7260   10.7370 C   0  0  0  0  0  0  0  0  0  0  0  0
   21.7300   15.9380    6.6450 C   0  0  0  0  0  0  0  0  0  0  0  0
   20.5690   16.4990    6.3810 N   0  0  0  0  0  0  0  0  0  0  0  0
   18.9504   19.6134    8.5356 H   0  0  0  0  0  0  0  0  0  0  0  0
   19.8320   19.3891    6.9867 H   0  0  0  0  0  0  0  0  0  0  0  0
   18.0430   19.5504    6.9867 H   0  0  0  0  0  0  0  0  0  0  0  0
   18.3156   17.4212    8.6528 H   0  0  0  0  0  0  0  0  0  0  0  0
   18.1468   17.2844    6.8491 H   0  0  0  0  0  0  0  0  0  0  0  0
   20.9082   16.9296    9.6699 H   0  0  0  0  0  0  0  0  0  0  0  0
   24.9151   16.5054   10.9962 H   0  0  0  0  0  0  0  0  0  0  0  0
   24.4572   18.2731   13.0411 H   0  0  0  0  0  0  0  0  0  0  0  0
   26.9291   17.8403   14.3621 H   0  0  0  0  0  0  0  0  0  0  0  0
   24.6653   18.3192   16.3414 H   0  0  0  0  0  0  0  0  0  0  0  0
   25.7230   16.8714   16.2355 H   0  0  0  0  0  0  0  0  0  0  0  0
   26.4600   18.4842   17.9995 H   0  0  0  0  0  0  0  0  0  0  0  0
   27.6961   18.2357   16.7009 H   0  0  0  0  0  0  0  0  0  0  0  0
   26.8323   21.4823   15.1173 H   0  0  0  0  0  0  0  0  0  0  0  0
   22.4973   15.0814   15.2039 H   0  0  0  0  0  0  0  0  0  0  0  0
   19.8873   13.5235   12.2961 H   0  0  0  0  0  0  0  0  0  0  0  0
   21.2748   14.3115    9.9911 H   0  0  0  0  0  0  0  0  0  0  0  0
   22.3886   15.4769    5.8942 H   0  0  0  0  0  0  0  0  0  0  0  0
  1  2  1  0
  2  3  1  0
  3  4  2  0
  4  5  1  0
  5  6  1  0
  6  7  2  0
  6  8  2  0
  6  9  1  0
  9 10  2  0
 10 11  1  0
 11 12  1  0
 12 13  2  0
 12 14  1  0
 14 15  1  0
 15 16  1  0
 16 17  1  0
 17 18  1  0
 18 19  2  0
 18 20  1  0
 20 21  1  0
 21 22  2  0
 11 23  2  0
 23 24  1  0
 24 25  1  0
 25 26  2  0
 25 27  1  0
 27 28  1  0
 28 29  2  0
  5 30  1  0
 30 31  2  0
 31  3  1  0
 29  9  1  0
 21 15  1  0
 28 23  1  0
  1 32  1  0
  1 33  1  0
  1 34  1  0
  2 35  1  0
  2 36  1  0
  4 37  1  0
 10 38  1  0
 14 39  1  0
 15 40  1  6
 16 41  1  0
 16 42  1  0
 17 43  1  0
 17 44  1  0
 20 45  1  0
 24 46  1  0
 27 47  1  0
 29 48  1  0
 30 49  1  0
M  END
>  <meeko>  (424) 
{"is_sidechain": [true], "free_energy": -10.84, "intermolecular_energy": 0.0, "internal_energy": -10.84, "cluster_size": 20, "cluster_id": 1, "rank_in_cluster": 1}

>  <_RMSD_MCS_to_ref>  (424) 
0.6522446712017743

$$$$
ligand
     RDKit          3D

 50 53  0  0  0  0  0  0  0  0999 V2000
   18.9090   19.1540    7.5370 C   0  0  0  0  0  0  0  0  0  0  0  0
   18.7730   17.6460    7.6780 C   0  0  0  0  0  0  0  0  0  0  0  0
   20.0710   16.9440    7.4840 C   0  0  0  0  0  0  0  0  0  0  0  0
   21.1130   16.7820    8.3760 C   0  0  0  0  0  0  0  0  0  0  0  0
   22.0520   16.0850    7.6700 N   0  0  0  0  0  0  0  0  0  0  0  0
   23.4800   15.4490    8.2850 S   0  0  0  0  0  6  0  0  0  0  0  0
   24.5170   16.3950    7.9170 O   0  0  0  0  0  0  0  0  0  0  0  0
   23.5060   14.0590    7.8730 O   0  0  0  0  0  0  0  0  0  0  0  0
   23.2950   15.5000   10.0470 C   0  0  0  0  0  0  0  0  0  0  0  0
   24.2630   16.1000   10.8260 C   0  0  0  0  0  0  0  0  0  0  0  0
   24.0730   16.1290   12.2170 C   0  0  0  0  0  0  0  0  0  0  0  0
   25.1820   16.7840   12.9580 C   0  0  0  0  0  0  0  0  0  0  0  0
   26.3340   16.5840   12.5860 O   0  0  0  0  0  0  0  0  0  0  0  0
   24.8690   17.6490   13.9690 N   0  0  0  0  0  0  0  0  0  0  0  0
   25.8940   18.3230   14.7510 C   0  0  2  0  0  0  0  0  0  0  0  0
   25.7690   18.0170   16.2410 C   0  0  0  0  0  0  0  0  0  0  0  0
   26.8530   18.7580   17.0050 C   0  0  0  0  0  0  0  0  0  0  0  0
   26.7990   20.2430   16.7300 C   0  0  0  0  0  0  0  0  0  0  0  0
   27.0870   21.0810   17.5790 O   0  0  0  0  0  0  0  0  0  0  0  0
   26.4370   20.6200   15.4620 N   0  0  0  0  0  0  0  0  0  0  0  0
   25.7770   19.8380   14.5440 C   0  0  0  0  0  0  0  0  0  0  0  0
   25.1510   20.3520   13.6170 O   0  0  0  0  0  0  0  0  0  0  0  0
   22.9220   15.5370   12.7610 C   0  0  0  0  0  0  0  0  0  0  0  0
   22.5800   15.4430   14.1980 C   0  0  0  0  0  0  0  0  0  0  0  0
   23.2390   15.9880   15.0730 O   0  0  0  0  0  0  0  0  0  0  0  0
   21.4480   14.7390   14.5240 N   0  0  0  0  0  0  0  0  0  0  0  0
   20.5510   14.2120   13.6460 C   0  0  0  0  0  0  0  0  0  0  0  0
   19.5190   13.6690   14.0210 O   0  0  0  0  0  0  0  0  0  0  0  0
   20.8680   14.3310   12.3330 N   0  0  0  0  0  0  0  0  0  0  0  0
   22.0200   14.9520   11.8720 C   0  0  0  0  0  0  0  0  0  0  0  0
   22.1720   14.9290   10.5340 N   0  0  0  0  0  0  0  0  0  0  0  0
   21.5660   15.8120    6.4310 C   0  0  0  0  0  0  0  0  0  0  0  0
   20.3630   16.3270    6.2830 N   0  0  0  0  0  0  0  0  0  0  0  0
   18.9504   19.6134    8.5356 H   0  0  0  0  0  0  0  0  0  0  0  0
   19.8320   19.3891    6.9867 H   0  0  0  0  0  0  0  0  0  0  0  0
   18.0430   19.5504    6.9867 H   0  0  0  0  0  0  0  0  0  0  0  0
   18.3935   17.4171    8.6848 H   0  0  0  0  0  0  0  0  0  0  0  0
   18.0796   17.2951    6.8995 H   0  0  0  0  0  0  0  0  0  0  0  0
   21.1730   17.1337    9.4165 H   0  0  0  0  0  0  0  0  0  0  0  0
   25.1599   16.5439   10.3694 H   0  0  0  0  0  0  0  0  0  0  0  0
   23.8778   17.8290   14.1836 H   0  0  0  0  0  0  0  0  0  0  0  0
   26.8720   17.9556   14.4067 H   0  0  0  0  0  0  0  0  0  0  0  0
   24.7811   18.3413   16.5999 H   0  0  0  0  0  0  0  0  0  0  0  0
   25.8820   16.9349   16.4029 H   0  0  0  0  0  0  0  0  0  0  0  0
   26.7126   18.5875   18.0826 H   0  0  0  0  0  0  0  0  0  0  0  0
   27.8317   18.3786   16.6760 H   0  0  0  0  0  0  0  0  0  0  0  0
   26.6822   21.5771   15.1707 H   0  0  0  0  0  0  0  0  0  0  0  0
   21.2595   14.5960   15.5265 H   0  0  0  0  0  0  0  0  0  0  0  0
   20.2167   13.9381   11.6385 H   0  0  0  0  0  0  0  0  0  0  0  0
   22.1025   15.2406    5.6592 H   0  0  0  0  0  0  0  0  0  0  0  0
  1  2  1  0
  2  3  1  0
  3  4  2  0
  4  5  1  0
  5  6  1  0
  6  7  2  0
  6  8  2  0
  6  9  1  0
  9 10  2  0
 10 11  1  0
 11 12  1  0
 12 13  2  0
 12 14  1  0
 14 15  1  0
 15 16  1  0
 16 17  1  0
 17 18  1  0
 18 19  2  0
 18 20  1  0
 20 21  1  0
 21 22  2  0
 11 23  2  0
 23 24  1  0
 24 25  2  0
 24 26  1  0
 26 27  1  0
 27 28  2  0
 27 29  1  0
 29 30  1  0
 30 31  2  0
  5 32  1  0
 32 33  2  0
 33  3  1  0
 31  9  1  0
 21 15  1  0
 30 23  1  0
  1 34  1  0
  1 35  1  0
  1 36  1  0
  2 37  1  0
  2 38  1  0
  4 39  1  0
 10 40  1  0
 14 41  1  0
 15 42  1  6
 16 43  1  0
 16 44  1  0
 17 45  1  0
 17 46  1  0
 20 47  1  0
 26 48  1  0
 29 49  1  0
 32 50  1  0
M  END
>  <meeko>  (425) 
{"is_sidechain": [true], "free_energy": -10.84, "intermolecular_energy": 0.0, "internal_energy": -10.84, "cluster_size": 20, "cluster_id": 1, "rank_in_cluster": 1}

>  <_RMSD_MCS_to_ref>  (425) 
0.6532675136913243

$$$$
ligand
     RDKit          3D

 54 58  0  0  0  0  0  0  0  0999 V2000
   18.9090   19.1530    7.5370 C   0  0  0  0  0  0  0  0  0  0  0  0
   18.7730   17.6470    7.6780 C   0  0  0  0  0  0  0  0  0  0  0  0
   20.0960   16.9650    7.7420 C   0  0  0  0  0  0  0  0  0  0  0  0
   20.7990   16.5450    8.8530 C   0  0  0  0  0  0  0  0  0  0  0  0
   21.9390   15.9920    8.3420 N   0  0  0  0  0  0  0  0  0  0  0  0
   23.3280   15.6200    9.2170 S   0  0  0  0  0  6  0  0  0  0  0  0
   24.1280   16.8300    9.2410 O   0  0  0  0  0  0  0  0  0  0  0  0
   23.8260   14.3730    8.6640 O   0  0  0  0  0  0  0  0  0  0  0  0
   22.7360   15.2960   10.8510 C   0  0  0  0  0  0  0  0  0  0  0  0
   23.5110   15.8090   11.8400 N   0  0  0  0  0  0  0  0  0  0  0  0
   23.1130   15.6600   13.1300 C   0  0  0  0  0  0  0  0  0  0  0  0
   23.9930   16.3240   14.1470 C   0  0  0  0  0  0  0  0  0  0  0  0
   24.4170   15.7220   15.1260 O   0  0  0  0  0  0  0  0  0  0  0  0
   24.2460   17.6590   13.8880 N   0  0  0  0  0  0  0  0  0  0  0  0
   24.7120   18.5530   14.9330 C   0  0  1  0  0  0  0  0  0  0  0  0
   25.8520   17.9150   15.7160 C   0  0  0  0  0  0  0  0  0  0  0  0
   26.3350   18.8770   16.7890 C   0  0  0  0  0  0  0  0  0  0  0  0
   26.7300   20.2080   16.1940 C   0  0  0  0  0  0  0  0  0  0  0  0
   27.6570   20.8800   16.6360 O   0  0  0  0  0  0  0  0  0  0  0  0
   25.9780   20.6560   15.1370 N   0  0  0  0  0  0  0  0  0  0  0  0
   25.2140   19.8660   14.3100 C   0  0  0  0  0  0  0  0  0  0  0  0
   24.9720   20.2230   13.1580 O   0  0  0  0  0  0  0  0  0  0  0  0
   21.9620   14.9930   13.5270 C   0  0  0  0  0  0  0  0  0  0  0  0
   21.1570   14.4640   12.5030 C   0  0  0  0  0  0  0  0  0  0  0  0
   21.5570   14.6370   11.1770 C   0  0  0  0  0  0  0  0  0  0  0  0
   20.5900   14.0690   10.3790 N   0  0  0  0  0  0  0  0  0  0  0  0
   19.5940   13.5130   11.1460 C   0  0  0  0  0  0  0  0  0  0  0  0
   18.4330   12.8340   10.7580 C   0  0  0  0  0  0  0  0  0  0  0  0
   17.5810   12.3770   11.7690 C   0  0  0  0  0  0  0  0  0  0  0  0
   17.8790   12.5930   13.1110 C   0  0  0  0  0  0  0  0  0  0  0  0
   19.0430   13.2770   13.4820 C   0  0  0  0  0  0  0  0  0  0  0  0
   19.9200   13.7460   12.4820 C   0  0  0  0  0  0  0  0  0  0  0  0
   21.9120   16.1010    6.9870 C   0  0  0  0  0  0  0  0  0  0  0  0
   20.8070   16.6980    6.5890 N   0  0  0  0  0  0  0  0  0  0  0  0
   18.9505   19.6125    8.5356 H   0  0  0  0  0  0  0  0  0  0  0  0
   19.8320   19.3879    6.9867 H   0  0  0  0  0  0  0  0  0  0  0  0
   18.0430   19.5494    6.9867 H   0  0  0  0  0  0  0  0  0  0  0  0
   18.2161   17.4266    8.6006 H   0  0  0  0  0  0  0  0  0  0  0  0
   18.2427   17.2717    6.7903 H   0  0  0  0  0  0  0  0  0  0  0  0
   20.5076   16.6351    9.9099 H   0  0  0  0  0  0  0  0  0  0  0  0
   24.1012   18.0257   12.9364 H   0  0  0  0  0  0  0  0  0  0  0  0
   23.8717   18.7543   15.6137 H   0  0  0  0  0  0  0  0  0  0  0  0
   25.4971   16.9874   16.1889 H   0  0  0  0  0  0  0  0  0  0  0  0
   26.6817   17.6853   15.0312 H   0  0  0  0  0  0  0  0  0  0  0  0
   25.5268   19.0359   17.5181 H   0  0  0  0  0  0  0  0  0  0  0  0
   27.2180   18.4386   17.2769 H   0  0  0  0  0  0  0  0  0  0  0  0
   25.9865   21.6683   14.9472 H   0  0  0  0  0  0  0  0  0  0  0  0
   21.6937   14.8840   14.5882 H   0  0  0  0  0  0  0  0  0  0  0  0
   20.6099   14.0616    9.3492 H   0  0  0  0  0  0  0  0  0  0  0  0
   18.1991   12.6659    9.6964 H   0  0  0  0  0  0  0  0  0  0  0  0
   16.6608   11.8383   11.4988 H   0  0  0  0  0  0  0  0  0  0  0  0
   17.1936   12.2229   13.8877 H   0  0  0  0  0  0  0  0  0  0  0  0
   19.2715   13.4471   14.5445 H   0  0  0  0  0  0  0  0  0  0  0  0
   22.7045   15.7401    6.3149 H   0  0  0  0  0  0  0  0  0  0  0  0
  1  2  1  0
  2  3  1  0
  3  4  2  0
  4  5  1  0
  5  6  1  0
  6  7  2  0
  6  8  2  0
  6  9  1  0
  9 10  2  0
 10 11  1  0
 11 12  1  0
 12 13  2  0
 12 14  1  0
 14 15  1  0
 15 16  1  0
 16 17  1  0
 17 18  1  0
 18 19  2  0
 18 20  1  0
 20 21  1  0
 21 22  2  0
 11 23  2  0
 23 24  1  0
 24 25  2  0
 25 26  1  0
 26 27  1  0
 27 28  2  0
 28 29  1  0
 29 30  2  0
 30 31  1  0
 31 32  2  0
  5 33  1  0
 33 34  2  0
 34  3  1  0
 25  9  1  0
 32 27  1  0
 21 15  1  0
 32 24  1  0
  1 35  1  0
  1 36  1  0
  1 37  1  0
  2 38  1  0
  2 39  1  0
  4 40  1  0
 14 41  1  0
 15 42  1  1
 16 43  1  0
 16 44  1  0
 17 45  1  0
 17 46  1  0
 20 47  1  0
 23 48  1  0
 26 49  1  0
 28 50  1  0
 29 51  1  0
 30 52  1  0
 31 53  1  0
 33 54  1  0
M  END
>  <meeko>  (426) 
{"is_sidechain": [true], "free_energy": -10.84, "intermolecular_energy": 0.0, "internal_energy": -10.84, "cluster_size": 18, "cluster_id": 1, "rank_in_cluster": 1}

>  <_RMSD_MCS_to_ref>  (426) 
0.35410926985889546

$$$$
ligand
     RDKit          3D

 51 54  0  0  0  0  0  0  0  0999 V2000
   18.8250   19.0170    7.5350 C   0  0  0  0  0  0  0  0  0  0  0  0
   18.5200   17.5420    7.7330 C   0  0  0  0  0  0  0  0  0  0  0  0
   19.7560   16.7310    7.9010 C   0  0  0  0  0  0  0  0  0  0  0  0
   20.0150   15.7230    8.8090 C   0  0  0  0  0  0  0  0  0  0  0  0
   21.2900   15.3300    8.5210 N   0  0  0  0  0  0  0  0  0  0  0  0
   22.0970   14.0040    9.1630 S   0  0  0  0  0  6  0  0  0  0  0  0
   21.0550   13.1150    9.6430 O   0  0  0  0  0  0  0  0  0  0  0  0
   23.0610   13.5820    8.1610 O   0  0  0  0  0  0  0  0  0  0  0  0
   22.9650   14.6630   10.5510 C   0  0  0  0  0  0  0  0  0  0  0  0
   24.2080   15.2790   10.3640 C   0  0  0  0  0  0  0  0  0  0  0  0
   24.9140   15.7830   11.4670 C   0  0  0  0  0  0  0  0  0  0  0  0
   24.3960   15.6610   12.7640 C   0  0  0  0  0  0  0  0  0  0  0  0
   25.2010   16.1990   13.8860 C   0  0  0  0  0  0  0  0  0  0  0  0
   25.5360   15.4680   14.8100 O   0  0  0  0  0  0  0  0  0  0  0  0
   25.5010   17.5360   13.8330 N   0  0  0  0  0  0  0  0  0  0  0  0
   26.3610   18.1710   14.8190 C   0  0  2  0  0  0  0  0  0  0  0  0
   25.8680   17.9440   16.2430 C   0  0  0  0  0  0  0  0  0  0  0  0
   26.7930   18.6570   17.2180 C   0  0  0  0  0  0  0  0  0  0  0  0
   26.9120   20.1270   16.8860 C   0  0  0  0  0  0  0  0  0  0  0  0
   27.0450   20.9880   17.7490 O   0  0  0  0  0  0  0  0  0  0  0  0
   26.8930   20.4600   15.5550 N   0  0  0  0  0  0  0  0  0  0  0  0
   26.4050   19.6760   14.5390 C   0  0  0  0  0  0  0  0  0  0  0  0
   26.0350   20.1710   13.4740 O   0  0  0  0  0  0  0  0  0  0  0  0
   23.1420   15.0800   12.9270 C   0  0  0  0  0  0  0  0  0  0  0  0
   22.4170   14.6060   11.8250 C   0  0  0  0  0  0  0  0  0  0  0  0
   21.1850   14.0140   12.2080 N   0  0  0  0  0  0  0  0  0  0  0  0
   20.9580   14.5550   13.5580 C   0  0  0  0  0  0  0  0  0  0  0  0
   22.3350   14.8520   14.1660 C   0  0  0  0  0  0  0  0  0  0  0  0
   21.7490   16.0530    7.4660 C   0  0  0  0  0  0  0  0  0  0  0  0
   20.8430   16.9230    7.0700 N   0  0  0  0  0  0  0  0  0  0  0  0
   18.9260   19.5054    8.5155 H   0  0  0  0  0  0  0  0  0  0  0  0
   19.7645   19.1250    6.9731 H   0  0  0  0  0  0  0  0  0  0  0  0
   18.0054   19.4887    6.9731 H   0  0  0  0  0  0  0  0  0  0  0  0
   17.8956   17.4267    8.6312 H   0  0  0  0  0  0  0  0  0  0  0  0
   17.9984   17.1810    6.8343 H   0  0  0  0  0  0  0  0  0  0  0  0
   19.3460   15.3270    9.5872 H   0  0  0  0  0  0  0  0  0  0  0  0
   24.6313   15.3680    9.3526 H   0  0  0  0  0  0  0  0  0  0  0  0
   25.8837   16.2788   11.3124 H   0  0  0  0  0  0  0  0  0  0  0  0
   25.1057   18.1073   13.0726 H   0  0  0  0  0  0  0  0  0  0  0  0
   27.3619   17.7224   14.7359 H   0  0  0  0  0  0  0  0  0  0  0  0
   24.8481   18.3430   16.3462 H   0  0  0  0  0  0  0  0  0  0  0  0
   25.8632   16.8662   16.4626 H   0  0  0  0  0  0  0  0  0  0  0  0
   26.3909   18.5509   18.2364 H   0  0  0  0  0  0  0  0  0  0  0  0
   27.7920   18.2023   17.1451 H   0  0  0  0  0  0  0  0  0  0  0  0
   27.2788   21.3790   15.2952 H   0  0  0  0  0  0  0  0  0  0  0  0
   20.5934   13.3636   11.6714 H   0  0  0  0  0  0  0  0  0  0  0  0
   20.3650   15.4796   13.4986 H   0  0  0  0  0  0  0  0  0  0  0  0
   20.4044   13.8352   14.1788 H   0  0  0  0  0  0  0  0  0  0  0  0
   22.3115   15.7472   14.8048 H   0  0  0  0  0  0  0  0  0  0  0  0
   22.7234   14.0613   14.8247 H   0  0  0  0  0  0  0  0  0  0  0  0
   22.7405   15.9288    7.0061 H   0  0  0  0  0  0  0  0  0  0  0  0
  1  2  1  0
  2  3  1  0
  3  4  2  0
  4  5  1  0
  5  6  1  0
  6  7  2  0
  6  8  2  0
  6  9  1  0
  9 10  2  0
 10 11  1  0
 11 12  2  0
 12 13  1  0
 13 14  2  0
 13 15  1  0
 15 16  1  0
 16 17  1  0
 17 18  1  0
 18 19  1  0
 19 20  2  0
 19 21  1  0
 21 22  1  0
 22 23  2  0
 12 24  1  0
 24 25  2  0
 25 26  1  0
 26 27  1  0
 27 28  1  0
  5 29  1  0
 29 30  2  0
 30  3  1  0
 25  9  1  0
 22 16  1  0
 28 24  1  0
  1 31  1  0
  1 32  1  0
  1 33  1  0
  2 34  1  0
  2 35  1  0
  4 36  1  0
 10 37  1  0
 11 38  1  0
 15 39  1  0
 16 40  1  1
 17 41  1  0
 17 42  1  0
 18 43  1  0
 18 44  1  0
 21 45  1  0
 26 46  1  0
 27 47  1  0
 27 48  1  0
 28 49  1  0
 28 50  1  0
 29 51  1  0
M  END
>  <meeko>  (427) 
{"is_sidechain": [true], "free_energy": -10.83, "intermolecular_energy": 0.0, "internal_energy": -10.83, "cluster_size": 16, "cluster_id": 1, "rank_in_cluster": 1}

>  <_RMSD_MCS_to_ref>  (427) 
1.0196756564930072

$$$$
ligand
     RDKit          3D

 50 53  0  0  0  0  0  0  0  0999 V2000
   18.7970   18.8170    7.7190 C   0  0  0  0  0  0  0  0  0  0  0  0
   18.5280   17.3290    7.8810 C   0  0  0  0  0  0  0  0  0  0  0  0
   19.6890   16.4990    7.4600 C   0  0  0  0  0  0  0  0  0  0  0  0
   20.6780   15.9290    8.2380 C   0  0  0  0  0  0  0  0  0  0  0  0
   21.4870   15.2960    7.3390 N   0  0  0  0  0  0  0  0  0  0  0  0
   22.7330   14.2340    7.7210 S   0  0  0  0  0  6  0  0  0  0  0  0
   23.9500   15.0230    7.6520 O   0  0  0  0  0  0  0  0  0  0  0  0
   22.5260   13.0580    6.8990 O   0  0  0  0  0  0  0  0  0  0  0  0
   22.4140   13.8140    9.4110 C   0  0  0  0  0  0  0  0  0  0  0  0
   21.4080   12.8710    9.6690 C   0  0  0  0  0  0  0  0  0  0  0  0
   21.0920   12.5350   10.9830 C   0  0  0  0  0  0  0  0  0  0  0  0
   21.7790   13.1370   12.0370 C   0  0  0  0  0  0  0  0  0  0  0  0
   22.7940   14.0670   11.7930 C   0  0  0  0  0  0  0  0  0  0  0  0
   23.4350   14.6380   12.9050 N   0  0  0  0  0  0  0  0  0  0  0  0
   24.3990   15.4980   12.7000 C   0  0  0  0  0  0  0  0  0  0  0  0
   25.0250   16.1110   13.9400 C   0  0  0  0  0  0  0  0  0  0  0  0
   25.0780   15.4850   14.9850 O   0  0  0  0  0  0  0  0  0  0  0  0
   25.5550   17.3660   13.7350 N   0  0  0  0  0  0  0  0  0  0  0  0
   26.3890   18.0030   14.7400 C   0  0  2  0  0  0  0  0  0  0  0  0
   25.7960   17.8810   16.1400 C   0  0  0  0  0  0  0  0  0  0  0  0
   26.6950   18.5950   17.1370 C   0  0  0  0  0  0  0  0  0  0  0  0
   26.9150   20.0370   16.7440 C   0  0  0  0  0  0  0  0  0  0  0  0
   27.0650   20.9290   17.5730 O   0  0  0  0  0  0  0  0  0  0  0  0
   26.9730   20.3060   15.4000 N   0  0  0  0  0  0  0  0  0  0  0  0
   26.5430   19.4850   14.3870 C   0  0  0  0  0  0  0  0  0  0  0  0
   26.3200   19.9300   13.2610 O   0  0  0  0  0  0  0  0  0  0  0  0
   24.8870   15.8540   11.3090 C   0  0  0  0  0  0  0  0  0  0  0  0
   25.8710   16.5570   11.1450 O   0  0  0  0  0  0  0  0  0  0  0  0
   24.1770   15.3080   10.2670 N   0  0  0  0  0  0  0  0  0  0  0  0
   23.1240   14.4010   10.4670 C   0  0  0  0  0  0  0  0  0  0  0  0
   20.9740   15.4480    6.0920 C   0  0  0  0  0  0  0  0  0  0  0  0
   19.8820   16.1830    6.1290 N   0  0  0  0  0  0  0  0  0  0  0  0
   18.8815   19.2845    8.7111 H   0  0  0  0  0  0  0  0  0  0  0  0
   19.7359   18.9616    7.1643 H   0  0  0  0  0  0  0  0  0  0  0  0
   17.9682   19.2812    7.1643 H   0  0  0  0  0  0  0  0  0  0  0  0
   18.3093   17.1216    8.9389 H   0  0  0  0  0  0  0  0  0  0  0  0
   17.6751   17.0679    7.2373 H   0  0  0  0  0  0  0  0  0  0  0  0
   20.7883   15.9747    9.3315 H   0  0  0  0  0  0  0  0  0  0  0  0
   20.8696   12.3977    8.8347 H   0  0  0  0  0  0  0  0  0  0  0  0
   20.3028   11.7969   11.1891 H   0  0  0  0  0  0  0  0  0  0  0  0
   21.5189   12.8767   13.0736 H   0  0  0  0  0  0  0  0  0  0  0  0
   25.3566   17.8614   12.8540 H   0  0  0  0  0  0  0  0  0  0  0  0
   27.3644   17.4945   14.7449 H   0  0  0  0  0  0  0  0  0  0  0  0
   24.7958   18.3386   16.1554 H   0  0  0  0  0  0  0  0  0  0  0  0
   25.7181   16.8183   16.4131 H   0  0  0  0  0  0  0  0  0  0  0  0
   26.2246   18.5623   18.1308 H   0  0  0  0  0  0  0  0  0  0  0  0
   27.6703   18.0865   17.1508 H   0  0  0  0  0  0  0  0  0  0  0  0
   27.3785   21.2117   15.1241 H   0  0  0  0  0  0  0  0  0  0  0  0
   24.4264   15.5739    9.3037 H   0  0  0  0  0  0  0  0  0  0  0  0
   21.4094   15.0175    5.1781 H   0  0  0  0  0  0  0  0  0  0  0  0
  1  2  1  0
  2  3  1  0
  3  4  2  0
  4  5  1  0
  5  6  1  0
  6  7  2  0
  6  8  2  0
  6  9  1  0
  9 10  2  0
 10 11  1  0
 11 12  2  0
 12 13  1  0
 13 14  1  0
 14 15  2  0
 15 16  1  0
 16 17  2  0
 16 18  1  0
 18 19  1  0
 19 20  1  0
 20 21  1  0
 21 22  1  0
 22 23  2  0
 22 24  1  0
 24 25  1  0
 25 26  2  0
 15 27  1  0
 27 28  2  0
 27 29  1  0
 29 30  1  0
  5 31  1  0
 31 32  2  0
 32  3  1  0
 30  9  1  0
 30 13  2  0
 25 19  1  0
  1 33  1  0
  1 34  1  0
  1 35  1  0
  2 36  1  0
  2 37  1  0
  4 38  1  0
 10 39  1  0
 11 40  1  0
 12 41  1  0
 18 42  1  0
 19 43  1  1
 20 44  1  0
 20 45  1  0
 21 46  1  0
 21 47  1  0
 24 48  1  0
 29 49  1  0
 31 50  1  0
M  END
>  <meeko>  (428) 
{"is_sidechain": [true], "free_energy": -10.83, "intermolecular_energy": 0.0, "internal_energy": -10.83, "cluster_size": 18, "cluster_id": 1, "rank_in_cluster": 1}

>  <_RMSD_MCS_to_ref>  (428) 
0.9133623474710223

$$$$
ligand
     RDKit          3D

 55 58  0  0  0  0  0  0  0  0999 V2000
   18.7970   18.8170    7.7190 C   0  0  0  0  0  0  0  0  0  0  0  0
   18.5280   17.3290    7.8810 C   0  0  0  0  0  0  0  0  0  0  0  0
   19.7750   16.5200    7.8000 C   0  0  0  0  0  0  0  0  0  0  0  0
   20.8740   16.5320    8.6370 C   0  0  0  0  0  0  0  0  0  0  0  0
   21.7270   15.6230    8.0810 N   0  0  0  0  0  0  0  0  0  0  0  0
   23.1520   15.0560    8.7700 S   0  0  0  0  0  6  0  0  0  0  0  0
   23.3880   13.7610    8.1560 O   0  0  0  0  0  0  0  0  0  0  0  0
   24.1090   16.1390    8.6610 O   0  0  0  0  0  0  0  0  0  0  0  0
   22.7170   14.8350   10.4770 C   0  0  0  0  0  0  0  0  0  0  0  0
   23.6060   15.3740   11.4230 C   0  0  0  0  0  0  0  0  0  0  0  0
   23.3200   15.2970   12.7870 C   0  0  0  0  0  0  0  0  0  0  0  0
   24.2960   15.8860   13.7480 C   0  0  0  0  0  0  0  0  0  0  0  0
   24.8130   15.1800   14.6070 O   0  0  0  0  0  0  0  0  0  0  0  0
   24.6050   17.2180   13.5910 N   0  0  0  0  0  0  0  0  0  0  0  0
   25.6530   17.8430   14.3870 C   0  0  2  0  0  0  0  0  0  0  0  0
   25.4550   17.6230   15.8830 C   0  0  0  0  0  0  0  0  0  0  0  0
   26.5560   18.3370   16.6510 C   0  0  0  0  0  0  0  0  0  0  0  0
   26.6050   19.8050   16.3000 C   0  0  0  0  0  0  0  0  0  0  0  0
   26.9180   20.6680   17.1150 O   0  0  0  0  0  0  0  0  0  0  0  0
   26.3110   20.1380   15.0020 N   0  0  0  0  0  0  0  0  0  0  0  0
   25.6440   19.3470   14.1000 C   0  0  0  0  0  0  0  0  0  0  0  0
   25.0860   19.8320   13.1150 O   0  0  0  0  0  0  0  0  0  0  0  0
   22.1380   14.6750   13.1970 C   0  0  0  0  0  0  0  0  0  0  0  0
   21.2400   14.1310   12.2550 C   0  0  0  0  0  0  0  0  0  0  0  0
   21.5440   14.1620   10.8730 C   0  0  0  0  0  0  0  0  0  0  0  0
   20.6560   13.5570    9.9520 N   0  0  0  0  0  0  0  0  0  0  0  0
   19.3500   14.2520    9.8670 C   0  0  0  0  0  0  0  0  0  0  0  0
   18.3880   13.8500   10.9840 C   0  0  0  0  0  0  0  0  0  0  0  0
   18.8170   14.3190   12.2640 O   0  0  0  0  0  0  0  0  0  0  0  0
   19.9260   13.5740   12.7540 C   0  0  0  0  0  0  0  0  0  0  0  0
   21.1310   15.0560    7.0000 C   0  0  0  0  0  0  0  0  0  0  0  0
   19.9470   15.5930    6.7930 N   0  0  0  0  0  0  0  0  0  0  0  0
   18.8815   19.2845    8.7111 H   0  0  0  0  0  0  0  0  0  0  0  0
   19.7359   18.9616    7.1643 H   0  0  0  0  0  0  0  0  0  0  0  0
   17.9682   19.2812    7.1643 H   0  0  0  0  0  0  0  0  0  0  0  0
   18.0582   17.1586    8.8609 H   0  0  0  0  0  0  0  0  0  0  0  0
   17.8672   17.0140    7.0600 H   0  0  0  0  0  0  0  0  0  0  0  0
   21.0267   17.1358    9.5437 H   0  0  0  0  0  0  0  0  0  0  0  0
   24.5336   15.8599   11.0860 H   0  0  0  0  0  0  0  0  0  0  0  0
   24.0879   17.7811   12.9008 H   0  0  0  0  0  0  0  0  0  0  0  0
   26.6132   17.3837   14.1094 H   0  0  0  0  0  0  0  0  0  0  0  0
   24.4768   18.0246   16.1863 H   0  0  0  0  0  0  0  0  0  0  0  0
   25.4938   16.5460   16.1033 H   0  0  0  0  0  0  0  0  0  0  0  0
   26.3667   18.2324   17.7295 H   0  0  0  0  0  0  0  0  0  0  0  0
   27.5202   17.8823   16.3798 H   0  0  0  0  0  0  0  0  0  0  0  0
   26.6185   21.0650   14.6749 H   0  0  0  0  0  0  0  0  0  0  0  0
   21.9043   14.6086   14.2698 H   0  0  0  0  0  0  0  0  0  0  0  0
   20.8927   12.7211    9.3987 H   0  0  0  0  0  0  0  0  0  0  0  0
   19.5249   15.3363    9.9279 H   0  0  0  0  0  0  0  0  0  0  0  0
   18.8852   13.9650    8.9122 H   0  0  0  0  0  0  0  0  0  0  0  0
   17.3964   14.2734   10.7663 H   0  0  0  0  0  0  0  0  0  0  0  0
   18.3562   12.7511   11.0215 H   0  0  0  0  0  0  0  0  0  0  0  0
   19.9196   13.6072   13.8535 H   0  0  0  0  0  0  0  0  0  0  0  0
   19.8319   12.5404   12.3896 H   0  0  0  0  0  0  0  0  0  0  0  0
   21.5752   14.2601    6.3842 H   0  0  0  0  0  0  0  0  0  0  0  0
  1  2  1  0
  2  3  1  0
  3  4  2  0
  4  5  1  0
  5  6  1  0
  6  7  2  0
  6  8  2  0
  6  9  1  0
  9 10  2  0
 10 11  1  0
 11 12  1  0
 12 13  2  0
 12 14  1  0
 14 15  1  0
 15 16  1  0
 16 17  1  0
 17 18  1  0
 18 19  2  0
 18 20  1  0
 20 21  1  0
 21 22  2  0
 11 23  2  0
 23 24  1  0
 24 25  2  0
 25 26  1  0
 26 27  1  0
 27 28  1  0
 28 29  1  0
 29 30  1  0
  5 31  1  0
 31 32  2  0
 32  3  1  0
 25  9  1  0
 21 15  1  0
 30 24  1  0
  1 33  1  0
  1 34  1  0
  1 35  1  0
  2 36  1  0
  2 37  1  0
  4 38  1  0
 10 39  1  0
 14 40  1  0
 15 41  1  6
 16 42  1  0
 16 43  1  0
 17 44  1  0
 17 45  1  0
 20 46  1  0
 23 47  1  0
 26 48  1  0
 27 49  1  0
 27 50  1  0
 28 51  1  0
 28 52  1  0
 30 53  1  0
 30 54  1  0
 31 55  1  0
M  END
>  <meeko>  (429) 
{"is_sidechain": [true], "free_energy": -10.83, "intermolecular_energy": 0.03, "internal_energy": -10.85, "cluster_size": 14, "cluster_id": 1, "rank_in_cluster": 1}

>  <_RMSD_MCS_to_ref>  (429) 
0.6123590994397538

$$$$
ligand
     RDKit          3D

 46 49  0  0  0  0  0  0  0  0999 V2000
   18.9090   19.1540    7.5370 C   0  0  0  0  0  0  0  0  0  0  0  0
   18.7730   17.6460    7.6780 C   0  0  0  0  0  0  0  0  0  0  0  0
   20.0860   16.9520    7.5840 C   0  0  0  0  0  0  0  0  0  0  0  0
   21.0730   16.8290    8.5420 C   0  0  0  0  0  0  0  0  0  0  0  0
   22.0490   16.0980    7.9270 N   0  0  0  0  0  0  0  0  0  0  0  0
   23.3660   15.3790    8.6970 S   0  0  0  0  0  6  0  0  0  0  0  0
   23.2510   13.9620    8.3980 O   0  0  0  0  0  0  0  0  0  0  0  0
   24.5190   16.1430    8.2540 O   0  0  0  0  0  0  0  0  0  0  0  0
   23.1480   15.6260   10.4360 C   0  0  0  0  0  0  0  0  0  0  0  0
   22.1850   14.8830   11.0220 C   0  0  0  0  0  0  0  0  0  0  0  0
   21.9940   15.0280   12.3810 N   0  0  0  0  0  0  0  0  0  0  0  0
   21.1610   14.4400   13.2850 C   0  0  0  0  0  0  0  0  0  0  0  0
   21.4160   14.9140   14.4880 N   0  0  0  0  0  0  0  0  0  0  0  0
   22.4340   15.8440   14.3760 N   0  0  0  0  0  0  0  0  0  0  0  0
   22.7510   15.9060   13.1060 C   0  0  0  0  0  0  0  0  0  0  0  0
   23.7380   16.6740   12.4160 C   0  0  0  0  0  0  0  0  0  0  0  0
   24.5880   17.6530   13.2010 C   0  0  0  0  0  0  0  0  0  0  0  0
   25.7320   17.9040   12.8600 O   0  0  0  0  0  0  0  0  0  0  0  0
   23.9680   18.1320   14.3350 N   0  0  0  0  0  0  0  0  0  0  0  0
   24.7140   18.8600   15.3500 C   0  0  1  0  0  0  0  0  0  0  0  0
   25.7980   18.0070   16.0000 C   0  0  0  0  0  0  0  0  0  0  0  0
   26.5630   18.8450   17.0130 C   0  0  0  0  0  0  0  0  0  0  0  0
   27.1310   20.0930   16.3760 C   0  0  0  0  0  0  0  0  0  0  0  0
   28.2030   20.5800   16.7230 O   0  0  0  0  0  0  0  0  0  0  0  0
   26.3740   20.6830   15.3980 N   0  0  0  0  0  0  0  0  0  0  0  0
   25.3680   20.0770   14.6860 C   0  0  0  0  0  0  0  0  0  0  0  0
   25.0170   20.5030   13.5860 O   0  0  0  0  0  0  0  0  0  0  0  0
   23.9500   16.5370   11.1290 N   0  0  0  0  0  0  0  0  0  0  0  0
   21.6320   15.7620    6.6780 C   0  0  0  0  0  0  0  0  0  0  0  0
   20.4490   16.2850    6.4290 N   0  0  0  0  0  0  0  0  0  0  0  0
   18.9504   19.6134    8.5356 H   0  0  0  0  0  0  0  0  0  0  0  0
   19.8320   19.3891    6.9867 H   0  0  0  0  0  0  0  0  0  0  0  0
   18.0430   19.5504    6.9867 H   0  0  0  0  0  0  0  0  0  0  0  0
   18.3225   17.4208    8.6559 H   0  0  0  0  0  0  0  0  0  0  0  0
   18.1406   17.2854    6.8534 H   0  0  0  0  0  0  0  0  0  0  0  0
   21.0731   17.2287    9.5668 H   0  0  0  0  0  0  0  0  0  0  0  0
   21.5718   14.1839   10.4345 H   0  0  0  0  0  0  0  0  0  0  0  0
   20.3951   13.6870   13.0476 H   0  0  0  0  0  0  0  0  0  0  0  0
   22.9590   17.9718   14.4661 H   0  0  0  0  0  0  0  0  0  0  0  0
   24.0116   19.1589   16.1420 H   0  0  0  0  0  0  0  0  0  0  0  0
   25.3338   17.1496   16.5093 H   0  0  0  0  0  0  0  0  0  0  0  0
   26.4909   17.6431   15.2271 H   0  0  0  0  0  0  0  0  0  0  0  0
   25.8810   19.1360   17.8255 H   0  0  0  0  0  0  0  0  0  0  0  0
   27.3974   18.2432   17.4023 H   0  0  0  0  0  0  0  0  0  0  0  0
   26.5775   21.6683   15.1773 H   0  0  0  0  0  0  0  0  0  0  0  0
   22.2029   15.1398    5.9731 H   0  0  0  0  0  0  0  0  0  0  0  0
  1  2  1  0
  2  3  1  0
  3  4  2  0
  4  5  1  0
  5  6  1  0
  6  7  2  0
  6  8  2  0
  6  9  1  0
  9 10  2  0
 10 11  1  0
 11 12  1  0
 12 13  2  0
 13 14  1  0
 14 15  2  0
 15 16  1  0
 16 17  1  0
 17 18  2  0
 17 19  1  0
 19 20  1  0
 20 21  1  0
 21 22  1  0
 22 23  1  0
 23 24  2  0
 23 25  1  0
 25 26  1  0
 26 27  2  0
 16 28  2  0
  5 29  1  0
 29 30  2  0
 30  3  1  0
 28  9  1  0
 15 11  1  0
 26 20  1  0
  1 31  1  0
  1 32  1  0
  1 33  1  0
  2 34  1  0
  2 35  1  0
  4 36  1  0
 10 37  1  0
 12 38  1  0
 19 39  1  0
 20 40  1  1
 21 41  1  0
 21 42  1  0
 22 43  1  0
 22 44  1  0
 25 45  1  0
 29 46  1  0
M  END
>  <meeko>  (430) 
{"is_sidechain": [true], "free_energy": -10.83, "intermolecular_energy": 0.0, "internal_energy": -10.83, "cluster_size": 20, "cluster_id": 1, "rank_in_cluster": 1}

>  <_RMSD_MCS_to_ref>  (430) 
0.7074684131150705

$$$$
ligand
     RDKit          3D

 52 55  0  0  0  0  0  0  0  0999 V2000
   18.9090   19.1540    7.5370 C   0  0  0  0  0  0  0  0  0  0  0  0
   18.7730   17.6460    7.6780 C   0  0  0  0  0  0  0  0  0  0  0  0
   20.0920   16.9580    7.6580 C   0  0  0  0  0  0  0  0  0  0  0  0
   20.8370   16.4780    8.7180 C   0  0  0  0  0  0  0  0  0  0  0  0
   21.9510   15.9530    8.1320 N   0  0  0  0  0  0  0  0  0  0  0  0
   23.2870   15.3160    8.9240 S   0  0  0  0  0  6  0  0  0  0  0  0
   23.3110   13.9040    8.5940 O   0  0  0  0  0  0  0  0  0  0  0  0
   24.3900   16.2040    8.5990 O   0  0  0  0  0  0  0  0  0  0  0  0
   22.9600   15.4710   10.6610 C   0  0  0  0  0  0  0  0  0  0  0  0
   23.7900   16.3230   11.2970 N   0  0  0  0  0  0  0  0  0  0  0  0
   23.5750   16.4420   12.6150 C   0  0  0  0  0  0  0  0  0  0  0  0
   24.4520   17.3940   13.3900 C   0  0  0  0  0  0  0  0  0  0  0  0
   25.6030   17.6530   13.0500 O   0  0  0  0  0  0  0  0  0  0  0  0
   23.8650   17.9420   14.5160 N   0  0  0  0  0  0  0  0  0  0  0  0
   24.6130   18.7410   15.4700 C   0  0  1  0  0  0  0  0  0  0  0  0
   25.7170   17.9390   16.1510 C   0  0  0  0  0  0  0  0  0  0  0  0
   26.4780   18.8360   17.1140 C   0  0  0  0  0  0  0  0  0  0  0  0
   27.0220   20.0560   16.4120 C   0  0  0  0  0  0  0  0  0  0  0  0
   28.0850   20.5810   16.7300 O   0  0  0  0  0  0  0  0  0  0  0  0
   26.2510   20.5820   15.4060 N   0  0  0  0  0  0  0  0  0  0  0  0
   25.2410   19.9330   14.7390 C   0  0  0  0  0  0  0  0  0  0  0  0
   24.8680   20.3130   13.6300 O   0  0  0  0  0  0  0  0  0  0  0  0
   22.6380   15.7730   13.3220 N   0  0  0  0  0  0  0  0  0  0  0  0
   21.8390   14.9280   12.6310 C   0  0  0  0  0  0  0  0  0  0  0  0
   21.9440   14.7440   11.2610 C   0  0  0  0  0  0  0  0  0  0  0  0
   21.0630   13.7690   10.5320 C   0  0  0  0  0  0  0  0  0  0  0  0
   19.8580   13.4080   11.2870 N   0  0  0  0  0  0  0  0  0  0  0  0
   20.1990   13.0200   12.6560 C   0  0  0  0  0  0  0  0  0  0  0  0
   20.7680   14.2170   13.4170 C   0  0  0  0  0  0  0  0  0  0  0  0
   21.8790   16.1400    6.7890 C   0  0  0  0  0  0  0  0  0  0  0  0
   20.7480   16.7300    6.4630 N   0  0  0  0  0  0  0  0  0  0  0  0
   18.9504   19.6134    8.5356 H   0  0  0  0  0  0  0  0  0  0  0  0
   19.8320   19.3891    6.9867 H   0  0  0  0  0  0  0  0  0  0  0  0
   18.0430   19.5504    6.9867 H   0  0  0  0  0  0  0  0  0  0  0  0
   18.2718   17.4232    8.6315 H   0  0  0  0  0  0  0  0  0  0  0  0
   18.1876   17.2785    6.8223 H   0  0  0  0  0  0  0  0  0  0  0  0
   20.5886   16.5116    9.7891 H   0  0  0  0  0  0  0  0  0  0  0  0
   22.8621   17.7775   14.6837 H   0  0  0  0  0  0  0  0  0  0  0  0
   23.9129   19.0790   16.2482 H   0  0  0  0  0  0  0  0  0  0  0  0
   25.2713   17.1005   16.7062 H   0  0  0  0  0  0  0  0  0  0  0  0
   26.4089   17.5497   15.3896 H   0  0  0  0  0  0  0  0  0  0  0  0
   25.7987   19.1577   17.9171 H   0  0  0  0  0  0  0  0  0  0  0  0
   27.3239   18.2657   17.5254 H   0  0  0  0  0  0  0  0  0  0  0  0
   26.4480   21.5532   15.1252 H   0  0  0  0  0  0  0  0  0  0  0  0
   20.7559   14.2205    9.5771 H   0  0  0  0  0  0  0  0  0  0  0  0
   21.6455   12.8479   10.3829 H   0  0  0  0  0  0  0  0  0  0  0  0
   19.2214   14.2173   11.3141 H   0  0  0  0  0  0  0  0  0  0  0  0
   19.2942   12.6606   13.1680 H   0  0  0  0  0  0  0  0  0  0  0  0
   20.9550   12.2216   12.6253 H   0  0  0  0  0  0  0  0  0  0  0  0
   19.9525   14.9247   13.6268 H   0  0  0  0  0  0  0  0  0  0  0  0
   21.2204   13.8441   14.3477 H   0  0  0  0  0  0  0  0  0  0  0  0
   22.6579   15.8400    6.0725 H   0  0  0  0  0  0  0  0  0  0  0  0
  1  2  1  0
  2  3  1  0
  3  4  2  0
  4  5  1  0
  5  6  1  0
  6  7  2  0
  6  8  2  0
  6  9  1  0
  9 10  2  0
 10 11  1  0
 11 12  1  0
 12 13  2  0
 12 14  1  0
 14 15  1  0
 15 16  1  0
 16 17  1  0
 17 18  1  0
 18 19  2  0
 18 20  1  0
 20 21  1  0
 21 22  2  0
 11 23  2  0
 23 24  1  0
 24 25  2  0
 25 26  1  0
 26 27  1  0
 27 28  1  0
 28 29  1  0
  5 30  1  0
 30 31  2  0
 31  3  1  0
 25  9  1  0
 21 15  1  0
 29 24  1  0
  1 32  1  0
  1 33  1  0
  1 34  1  0
  2 35  1  0
  2 36  1  0
  4 37  1  0
 14 38  1  0
 15 39  1  1
 16 40  1  0
 16 41  1  0
 17 42  1  0
 17 43  1  0
 20 44  1  0
 26 45  1  0
 26 46  1  0
 27 47  1  0
 28 48  1  0
 28 49  1  0
 29 50  1  0
 29 51  1  0
 30 52  1  0
M  END
>  <meeko>  (431) 
{"is_sidechain": [true], "free_energy": -10.83, "intermolecular_energy": 0.0, "internal_energy": -10.83, "cluster_size": 20, "cluster_id": 1, "rank_in_cluster": 1}

>  <_RMSD_MCS_to_ref>  (431) 
0.6924277740112849

$$$$
ligand
     RDKit          3D

 47 50  0  0  0  0  0  0  0  0999 V2000
   18.9090   19.1540    7.5370 C   0  0  0  0  0  0  0  0  0  0  0  0
   18.7730   17.6460    7.6780 C   0  0  0  0  0  0  0  0  0  0  0  0
   20.0760   16.9480    7.8750 C   0  0  0  0  0  0  0  0  0  0  0  0
   20.6120   16.4090    9.0290 C   0  0  0  0  0  0  0  0  0  0  0  0
   21.8210   15.9090    8.6390 N   0  0  0  0  0  0  0  0  0  0  0  0
   22.8360   14.9530    9.5760 S   0  0  0  0  0  6  0  0  0  0  0  0
   23.8580   15.8670   10.0540 O   0  0  0  0  0  0  0  0  0  0  0  0
   23.1580   13.7920    8.7710 O   0  0  0  0  0  0  0  0  0  0  0  0
   21.9080   14.4090   10.9740 C   0  0  0  0  0  0  0  0  0  0  0  0
   20.9730   13.3780   10.7770 C   0  0  0  0  0  0  0  0  0  0  0  0
   20.2100   12.9070   11.8390 C   0  0  0  0  0  0  0  0  0  0  0  0
   20.3560   13.4500   13.1170 C   0  0  0  0  0  0  0  0  0  0  0  0
   21.2900   14.4820   13.3030 C   0  0  0  0  0  0  0  0  0  0  0  0
   21.6750   15.3340   14.7530 S   0  0  0  0  0  0  0  0  0  0  0  0
   22.8290   16.2620   13.9010 C   0  0  0  0  0  0  0  0  0  0  0  0
   23.6280   17.2870   14.5710 C   0  0  0  0  0  0  0  0  0  0  0  0
   23.2420   17.9670   15.5210 O   0  0  0  0  0  0  0  0  0  0  0  0
   24.8960   17.4480   14.0350 N   0  0  0  0  0  0  0  0  0  0  0  0
   25.9120   18.2160   14.7310 C   0  0  2  0  0  0  0  0  0  0  0  0
   25.8860   17.9150   16.2250 C   0  0  0  0  0  0  0  0  0  0  0  0
   26.9570   18.7340   16.9290 C   0  0  0  0  0  0  0  0  0  0  0  0
   26.7860   20.2090   16.6550 C   0  0  0  0  0  0  0  0  0  0  0  0
   27.0860   21.0700   17.4760 O   0  0  0  0  0  0  0  0  0  0  0  0
   26.3120   20.5520   15.4140 N   0  0  0  0  0  0  0  0  0  0  0  0
   25.6830   19.7200   14.5160 C   0  0  0  0  0  0  0  0  0  0  0  0
   25.0110   20.1900   13.5990 O   0  0  0  0  0  0  0  0  0  0  0  0
   22.9400   15.9920   12.6130 N   0  0  0  0  0  0  0  0  0  0  0  0
   22.0730   14.9750   12.2540 C   0  0  0  0  0  0  0  0  0  0  0  0
   22.0090   16.1770    7.3210 C   0  0  0  0  0  0  0  0  0  0  0  0
   20.9480   16.7730    6.8110 N   0  0  0  0  0  0  0  0  0  0  0  0
   18.9504   19.6134    8.5356 H   0  0  0  0  0  0  0  0  0  0  0  0
   19.8320   19.3891    6.9867 H   0  0  0  0  0  0  0  0  0  0  0  0
   18.0430   19.5504    6.9867 H   0  0  0  0  0  0  0  0  0  0  0  0
   18.1296   17.4338    8.5446 H   0  0  0  0  0  0  0  0  0  0  0  0
   18.3430   17.2702    6.7378 H   0  0  0  0  0  0  0  0  0  0  0  0
   20.1657   16.3876   10.0341 H   0  0  0  0  0  0  0  0  0  0  0  0
   20.8443   12.9411    9.7757 H   0  0  0  0  0  0  0  0  0  0  0  0
   19.4837   12.0982   11.6709 H   0  0  0  0  0  0  0  0  0  0  0  0
   19.7533   13.0780   13.9587 H   0  0  0  0  0  0  0  0  0  0  0  0
   25.1210   17.0154   13.1277 H   0  0  0  0  0  0  0  0  0  0  0  0
   26.8926   17.9304   14.3226 H   0  0  0  0  0  0  0  0  0  0  0  0
   24.8984   18.1751   16.6338 H   0  0  0  0  0  0  0  0  0  0  0  0
   26.0804   16.8443   16.3854 H   0  0  0  0  0  0  0  0  0  0  0  0
   26.8868   18.5601   18.0129 H   0  0  0  0  0  0  0  0  0  0  0  0
   27.9405   18.4212   16.5484 H   0  0  0  0  0  0  0  0  0  0  0  0
   26.4400   21.5323   15.1249 H   0  0  0  0  0  0  0  0  0  0  0  0
   22.9204   15.9311    6.7563 H   0  0  0  0  0  0  0  0  0  0  0  0
  1  2  1  0
  2  3  1  0
  3  4  2  0
  4  5  1  0
  5  6  1  0
  6  7  2  0
  6  8  2  0
  6  9  1  0
  9 10  2  0
 10 11  1  0
 11 12  2  0
 12 13  1  0
 13 14  1  0
 14 15  1  0
 15 16  1  0
 16 17  2  0
 16 18  1  0
 18 19  1  0
 19 20  1  0
 20 21  1  0
 21 22  1  0
 22 23  2  0
 22 24  1  0
 24 25  1  0
 25 26  2  0
 15 27  2  0
 27 28  1  0
  5 29  1  0
 29 30  2  0
 30  3  1  0
 28  9  1  0
 28 13  2  0
 25 19  1  0
  1 31  1  0
  1 32  1  0
  1 33  1  0
  2 34  1  0
  2 35  1  0
  4 36  1  0
 10 37  1  0
 11 38  1  0
 12 39  1  0
 18 40  1  0
 19 41  1  6
 20 42  1  0
 20 43  1  0
 21 44  1  0
 21 45  1  0
 24 46  1  0
 29 47  1  0
M  END
>  <meeko>  (432) 
{"is_sidechain": [true], "free_energy": -10.83, "intermolecular_energy": 0.0, "internal_energy": -10.83, "cluster_size": 14, "cluster_id": 1, "rank_in_cluster": 1}

>  <_RMSD_MCS_to_ref>  (432) 
0.615915398230778

$$$$
ligand
     RDKit          3D

 50 53  0  0  0  0  0  0  0  0999 V2000
   18.9090   19.1540    7.5370 C   0  0  0  0  0  0  0  0  0  0  0  0
   18.7730   17.6460    7.6780 C   0  0  0  0  0  0  0  0  0  0  0  0
   20.0090   16.9300    7.2590 C   0  0  0  0  0  0  0  0  0  0  0  0
   21.2540   16.9250    7.8550 C   0  0  0  0  0  0  0  0  0  0  0  0
   22.0080   16.1200    7.0510 N   0  0  0  0  0  0  0  0  0  0  0  0
   23.5480   15.5440    7.3970 S   0  0  0  0  0  6  0  0  0  0  0  0
   23.5600   14.1670    6.9410 O   0  0  0  0  0  0  0  0  0  0  0  0
   24.4770   16.5380    6.8990 O   0  0  0  0  0  0  0  0  0  0  0  0
   23.6210   15.5560    9.1690 C   0  0  0  0  0  0  0  0  0  0  0  0
   24.7060   16.1490    9.8200 C   0  0  0  0  0  0  0  0  0  0  0  0
   24.7540   16.1640   11.2180 C   0  0  0  0  0  0  0  0  0  0  0  0
   23.7190   15.5860   11.9650 C   0  0  0  0  0  0  0  0  0  0  0  0
   23.6900   15.5590   13.4420 C   0  0  0  0  0  0  0  0  0  0  0  0
   24.8450   16.1400   14.2540 C   0  0  0  0  0  0  0  0  0  0  0  0
   25.6120   15.4140   14.8650 O   0  0  0  0  0  0  0  0  0  0  0  0
   24.9040   17.5100   14.2210 N   0  0  0  0  0  0  0  0  0  0  0  0
   25.9210   18.2670   14.9270 C   0  0  2  0  0  0  0  0  0  0  0  0
   25.8680   18.0310   16.4330 C   0  0  0  0  0  0  0  0  0  0  0  0
   26.9420   18.8630   17.1160 C   0  0  0  0  0  0  0  0  0  0  0  0
   26.8070   20.3270   16.7680 C   0  0  0  0  0  0  0  0  0  0  0  0
   27.0870   21.2200   17.5620 O   0  0  0  0  0  0  0  0  0  0  0  0
   26.3810   20.6200   15.4980 N   0  0  0  0  0  0  0  0  0  0  0  0
   25.7240   19.7620   14.6500 C   0  0  0  0  0  0  0  0  0  0  0  0
   25.0330   20.1880   13.7270 O   0  0  0  0  0  0  0  0  0  0  0  0
   22.6990   15.0690   14.1350 N   0  0  0  0  0  0  0  0  0  0  0  0
   21.6480   14.5300   13.4560 N   0  0  0  0  0  0  0  0  0  0  0  0
   21.5330   14.4360   12.0900 C   0  0  0  0  0  0  0  0  0  0  0  0
   20.5730   13.9050   11.5420 O   0  0  0  0  0  0  0  0  0  0  0  0
   22.6330   15.0160   11.3030 C   0  0  0  0  0  0  0  0  0  0  0  0
   22.5710   14.9990    9.9030 C   0  0  0  0  0  0  0  0  0  0  0  0
   21.2290   15.6370    6.0500 C   0  0  0  0  0  0  0  0  0  0  0  0
   20.0080   16.1180    6.1410 N   0  0  0  0  0  0  0  0  0  0  0  0
   18.9504   19.6134    8.5356 H   0  0  0  0  0  0  0  0  0  0  0  0
   19.8320   19.3891    6.9867 H   0  0  0  0  0  0  0  0  0  0  0  0
   18.0430   19.5504    6.9867 H   0  0  0  0  0  0  0  0  0  0  0  0
   18.5637   17.4058    8.7309 H   0  0  0  0  0  0  0  0  0  0  0  0
   17.9529   17.3174    7.0227 H   0  0  0  0  0  0  0  0  0  0  0  0
   21.5671   17.4501    8.7695 H   0  0  0  0  0  0  0  0  0  0  0  0
   25.5197   16.6025    9.2351 H   0  0  0  0  0  0  0  0  0  0  0  0
   25.6068   16.6310   11.7324 H   0  0  0  0  0  0  0  0  0  0  0  0
   24.1980   18.0221   13.6730 H   0  0  0  0  0  0  0  0  0  0  0  0
   26.9022   17.9278   14.5634 H   0  0  0  0  0  0  0  0  0  0  0  0
   24.8791   18.3241   16.8152 H   0  0  0  0  0  0  0  0  0  0  0  0
   26.0418   16.9653   16.6429 H   0  0  0  0  0  0  0  0  0  0  0  0
   26.8488   18.7437   18.2055 H   0  0  0  0  0  0  0  0  0  0  0  0
   27.9253   18.5130   16.7687 H   0  0  0  0  0  0  0  0  0  0  0  0
   26.5709   21.5699   15.1480 H   0  0  0  0  0  0  0  0  0  0  0  0
   20.8685   14.1591   14.0179 H   0  0  0  0  0  0  0  0  0  0  0  0
   21.7069   14.5529    9.3889 H   0  0  0  0  0  0  0  0  0  0  0  0
   21.5712   14.9401    5.2708 H   0  0  0  0  0  0  0  0  0  0  0  0
  1  2  1  0
  2  3  1  0
  3  4  2  0
  4  5  1  0
  5  6  1  0
  6  7  2  0
  6  8  2  0
  6  9  1  0
  9 10  2  0
 10 11  1  0
 11 12  2  0
 12 13  1  0
 13 14  1  0
 14 15  2  0
 14 16  1  0
 16 17  1  0
 17 18  1  0
 18 19  1  0
 19 20  1  0
 20 21  2  0
 20 22  1  0
 22 23  1  0
 23 24  2  0
 13 25  2  0
 25 26  1  0
 26 27  1  0
 27 28  2  0
 27 29  1  0
 29 30  2  0
  5 31  1  0
 31 32  2  0
 32  3  1  0
 30  9  1  0
 29 12  1  0
 23 17  1  0
  1 33  1  0
  1 34  1  0
  1 35  1  0
  2 36  1  0
  2 37  1  0
  4 38  1  0
 10 39  1  0
 11 40  1  0
 16 41  1  0
 17 42  1  6
 18 43  1  0
 18 44  1  0
 19 45  1  0
 19 46  1  0
 22 47  1  0
 26 48  1  0
 30 49  1  0
 31 50  1  0
M  END
>  <meeko>  (433) 
{"is_sidechain": [true], "free_energy": -10.83, "intermolecular_energy": 0.0, "internal_energy": -10.83, "cluster_size": 13, "cluster_id": 1, "rank_in_cluster": 1}

>  <_RMSD_MCS_to_ref>  (433) 
0.7234262613117909

$$$$
ligand
     RDKit          3D

 50 53  0  0  0  0  0  0  0  0999 V2000
   18.9090   19.1540    7.5370 C   0  0  0  0  0  0  0  0  0  0  0  0
   18.7730   17.6460    7.6780 C   0  0  0  0  0  0  0  0  0  0  0  0
   20.0750   16.9910    7.9790 C   0  0  0  0  0  0  0  0  0  0  0  0
   20.4210   16.2000    9.0570 C   0  0  0  0  0  0  0  0  0  0  0  0
   21.7310   15.8830    8.8320 N   0  0  0  0  0  0  0  0  0  0  0  0
   22.6510   14.7880    9.7150 S   0  0  0  0  0  6  0  0  0  0  0  0
   21.9490   14.6610   10.9780 O   0  0  0  0  0  0  0  0  0  0  0  0
   22.8670   13.6640    8.8240 O   0  0  0  0  0  0  0  0  0  0  0  0
   24.2340   15.5440   10.0310 C   0  0  0  0  0  0  0  0  0  0  0  0
   25.2640   15.4570    9.0840 C   0  0  0  0  0  0  0  0  0  0  0  0
   26.4940   16.0640    9.3300 C   0  0  0  0  0  0  0  0  0  0  0  0
   26.7040   16.7620   10.5170 C   0  0  0  0  0  0  0  0  0  0  0  0
   25.6840   16.8640   11.4760 C   0  0  0  0  0  0  0  0  0  0  0  0
   24.4430   16.2320   11.2500 C   0  0  0  0  0  0  0  0  0  0  0  0
   23.3620   16.3680   12.3020 C   0  0  0  0  0  0  0  0  0  0  0  0
   23.8870   16.8390   13.6670 C   0  0  0  0  0  0  0  0  0  0  0  0
   24.7550   18.0080   13.4890 N   0  0  0  0  0  0  0  0  0  0  0  0
   25.0600   18.7620   14.7260 C   0  0  1  0  0  0  0  0  0  0  0  0
   26.1470   18.0320   15.5270 C   0  0  0  0  0  0  0  0  0  0  0  0
   26.4070   18.7730   16.8290 C   0  0  0  0  0  0  0  0  0  0  0  0
   26.8120   20.2010   16.5660 C   0  0  0  0  0  0  0  0  0  0  0  0
   27.4550   20.8610   17.3770 O   0  0  0  0  0  0  0  0  0  0  0  0
   26.3550   20.7640   15.4010 N   0  0  0  0  0  0  0  0  0  0  0  0
   25.4620   20.2330   14.4990 C   0  0  0  0  0  0  0  0  0  0  0  0
   24.9860   20.9550   13.6250 O   0  0  0  0  0  0  0  0  0  0  0  0
   25.9750   17.6040   12.7700 C   0  0  0  0  0  0  0  0  0  0  0  0
   22.1310   16.4410    7.6610 C   0  0  0  0  0  0  0  0  0  0  0  0
   21.1440   17.1190    7.1130 N   0  0  0  0  0  0  0  0  0  0  0  0
   18.9504   19.6134    8.5356 H   0  0  0  0  0  0  0  0  0  0  0  0
   19.8320   19.3891    6.9867 H   0  0  0  0  0  0  0  0  0  0  0  0
   18.0430   19.5504    6.9867 H   0  0  0  0  0  0  0  0  0  0  0  0
   18.0695   17.4284    8.4951 H   0  0  0  0  0  0  0  0  0  0  0  0
   18.4079   17.2483    6.7196 H   0  0  0  0  0  0  0  0  0  0  0  0
   19.7873   15.8951    9.9028 H   0  0  0  0  0  0  0  0  0  0  0  0
   25.1009   14.9084    8.1446 H   0  0  0  0  0  0  0  0  0  0  0  0
   27.3005   15.9918    8.5855 H   0  0  0  0  0  0  0  0  0  0  0  0
   27.6780   17.2376   10.7046 H   0  0  0  0  0  0  0  0  0  0  0  0
   22.6192   17.0965   11.9450 H   0  0  0  0  0  0  0  0  0  0  0  0
   22.9294   15.3676   12.4508 H   0  0  0  0  0  0  0  0  0  0  0  0
   23.0376   17.1096   14.3114 H   0  0  0  0  0  0  0  0  0  0  0  0
   24.4629   16.0268   14.1346 H   0  0  0  0  0  0  0  0  0  0  0  0
   24.1191   18.8000   15.2945 H   0  0  0  0  0  0  0  0  0  0  0  0
   25.8122   17.0081   15.7493 H   0  0  0  0  0  0  0  0  0  0  0  0
   27.0740   17.9967   14.9359 H   0  0  0  0  0  0  0  0  0  0  0  0
   25.4901   18.7652   17.4367 H   0  0  0  0  0  0  0  0  0  0  0  0
   27.2266   18.2686   17.3618 H   0  0  0  0  0  0  0  0  0  0  0  0
   26.7256   21.6979   15.1742 H   0  0  0  0  0  0  0  0  0  0  0  0
   26.5579   18.5065   12.5341 H   0  0  0  0  0  0  0  0  0  0  0  0
   26.5300   16.9160   13.4247 H   0  0  0  0  0  0  0  0  0  0  0  0
   23.1382   16.3409    7.2303 H   0  0  0  0  0  0  0  0  0  0  0  0
  1  2  1  0
  2  3  1  0
  3  4  2  0
  4  5  1  0
  5  6  1  0
  6  7  2  0
  6  8  2  0
  6  9  1  0
  9 10  2  0
 10 11  1  0
 11 12  2  0
 12 13  1  0
 13 14  2  0
 14 15  1  0
 15 16  1  0
 16 17  1  0
 17 18  1  0
 18 19  1  0
 19 20  1  0
 20 21  1  0
 21 22  2  0
 21 23  1  0
 23 24  1  0
 24 25  2  0
 17 26  1  0
  5 27  1  0
 27 28  2  0
 28  3  1  0
 14  9  1  0
 24 18  1  0
 26 13  1  0
  1 29  1  0
  1 30  1  0
  1 31  1  0
  2 32  1  0
  2 33  1  0
  4 34  1  0
 10 35  1  0
 11 36  1  0
 12 37  1  0
 15 38  1  0
 15 39  1  0
 16 40  1  0
 16 41  1  0
 18 42  1  1
 19 43  1  0
 19 44  1  0
 20 45  1  0
 20 46  1  0
 23 47  1  0
 26 48  1  0
 26 49  1  0
 27 50  1  0
M  END
>  <meeko>  (434) 
{"is_sidechain": [true], "free_energy": -10.83, "intermolecular_energy": 0.0, "internal_energy": -10.83, "cluster_size": 20, "cluster_id": 1, "rank_in_cluster": 1}

>  <_RMSD_MCS_to_ref>  (434) 
0.49822150361728307

$$$$
ligand
     RDKit          3D

 49 53  0  0  0  0  0  0  0  0999 V2000
   18.9090   19.1540    7.5370 C   0  0  0  0  0  0  0  0  0  0  0  0
   18.7730   17.6460    7.6780 C   0  0  0  0  0  0  0  0  0  0  0  0
   20.0670   16.9360    7.4740 C   0  0  0  0  0  0  0  0  0  0  0  0
   21.1440   16.8310    8.3340 C   0  0  0  0  0  0  0  0  0  0  0  0
   22.0710   16.1190    7.6290 N   0  0  0  0  0  0  0  0  0  0  0  0
   23.5150   15.4980    8.2130 S   0  0  0  0  0  6  0  0  0  0  0  0
   24.5280   16.5150    8.0000 O   0  0  0  0  0  0  0  0  0  0  0  0
   23.6030   14.1530    7.6770 O   0  0  0  0  0  0  0  0  0  0  0  0
   23.3320   15.3360    9.9490 C   0  0  0  0  0  0  0  0  0  0  0  0
   22.2900   14.6270   10.5310 N   0  0  0  0  0  0  0  0  0  0  0  0
   22.4110   14.9220   11.8060 C   0  0  0  0  0  0  0  0  0  0  0  0
   21.6100   14.5790   12.9610 C   0  0  0  0  0  0  0  0  0  0  0  0
   20.5160   13.7160   12.8890 C   0  0  0  0  0  0  0  0  0  0  0  0
   19.7890   13.4340   14.0450 C   0  0  0  0  0  0  0  0  0  0  0  0
   20.1550   14.0130   15.2620 C   0  0  0  0  0  0  0  0  0  0  0  0
   21.2490   14.8790   15.3310 C   0  0  0  0  0  0  0  0  0  0  0  0
   21.9880   15.1740   14.1860 C   0  0  0  0  0  0  0  0  0  0  0  0
   23.0910   16.0650   14.2920 N   0  0  0  0  0  0  0  0  0  0  0  0
   23.7970   16.3270   13.2280 C   0  0  0  0  0  0  0  0  0  0  0  0
   25.1560   17.4320   13.3910 S   0  0  0  0  0  0  0  0  0  0  0  0
   24.3960   18.6260   14.5510 C   0  0  1  0  0  0  0  0  0  0  0  0
   24.7930   18.3460   15.9980 C   0  0  0  0  0  0  0  0  0  0  0  0
   26.2660   18.6260   16.2490 C   0  0  0  0  0  0  0  0  0  0  0  0
   26.6620   20.0060   15.7850 C   0  0  0  0  0  0  0  0  0  0  0  0
   27.6590   20.5700   16.2320 O   0  0  0  0  0  0  0  0  0  0  0  0
   25.8890   20.5800   14.8070 N   0  0  0  0  0  0  0  0  0  0  0  0
   24.8020   20.0400   14.1590 C   0  0  0  0  0  0  0  0  0  0  0  0
   24.2190   20.6500   13.2620 O   0  0  0  0  0  0  0  0  0  0  0  0
   23.4830   15.7500   11.9900 N   0  0  0  0  0  0  0  0  0  0  0  0
   24.1350   15.9750   10.8260 N   0  0  0  0  0  0  0  0  0  0  0  0
   21.5430   15.7730    6.4250 C   0  0  0  0  0  0  0  0  0  0  0  0
   20.3100   16.2280    6.3090 N   0  0  0  0  0  0  0  0  0  0  0  0
   18.9504   19.6134    8.5356 H   0  0  0  0  0  0  0  0  0  0  0  0
   19.8320   19.3891    6.9867 H   0  0  0  0  0  0  0  0  0  0  0  0
   18.0430   19.5504    6.9867 H   0  0  0  0  0  0  0  0  0  0  0  0
   18.4006   17.4180    8.6876 H   0  0  0  0  0  0  0  0  0  0  0  0
   18.0748   17.2989    6.9021 H   0  0  0  0  0  0  0  0  0  0  0  0
   21.2337   17.2306    9.3549 H   0  0  0  0  0  0  0  0  0  0  0  0
   20.2296   13.2621   11.9288 H   0  0  0  0  0  0  0  0  0  0  0  0
   18.9255   12.7541   13.9982 H   0  0  0  0  0  0  0  0  0  0  0  0
   19.5788   13.7860   16.1711 H   0  0  0  0  0  0  0  0  0  0  0  0
   21.5290   15.3307   16.2941 H   0  0  0  0  0  0  0  0  0  0  0  0
   23.3033   18.5183   14.4853 H   0  0  0  0  0  0  0  0  0  0  0  0
   24.1920   18.9854   16.6612 H   0  0  0  0  0  0  0  0  0  0  0  0
   24.6106   17.2802   16.2001 H   0  0  0  0  0  0  0  0  0  0  0  0
   26.4654   18.5423   17.3275 H   0  0  0  0  0  0  0  0  0  0  0  0
   26.8550   17.8921   15.6794 H   0  0  0  0  0  0  0  0  0  0  0  0
   26.1557   21.5334   14.5228 H   0  0  0  0  0  0  0  0  0  0  0  0
   22.0711   15.1934    5.6536 H   0  0  0  0  0  0  0  0  0  0  0  0
  1  2  1  0
  2  3  1  0
  3  4  2  0
  4  5  1  0
  5  6  1  0
  6  7  2  0
  6  8  2  0
  6  9  1  0
  9 10  1  0
 10 11  2  0
 11 12  1  0
 12 13  2  0
 13 14  1  0
 14 15  2  0
 15 16  1  0
 16 17  2  0
 17 18  1  0
 18 19  2  0
 19 20  1  0
 20 21  1  0
 21 22  1  0
 22 23  1  0
 23 24  1  0
 24 25  2  0
 24 26  1  0
 26 27  1  0
 27 28  2  0
 19 29  1  0
 29 30  1  0
  5 31  1  0
 31 32  2  0
 32  3  1  0
 30  9  2  0
 29 11  1  0
 17 12  1  0
 27 21  1  0
  1 33  1  0
  1 34  1  0
  1 35  1  0
  2 36  1  0
  2 37  1  0
  4 38  1  0
 13 39  1  0
 14 40  1  0
 15 41  1  0
 16 42  1  0
 21 43  1  1
 22 44  1  0
 22 45  1  0
 23 46  1  0
 23 47  1  0
 26 48  1  0
 31 49  1  0
M  END
>  <meeko>  (435) 
{"is_sidechain": [true], "free_energy": -10.83, "intermolecular_energy": 0.0, "internal_energy": -10.83, "cluster_size": 17, "cluster_id": 1, "rank_in_cluster": 1}

>  <_RMSD_MCS_to_ref>  (435) 
0.7645666256121834

$$$$
ligand
     RDKit          3D

 54 58  0  0  0  0  0  0  0  0999 V2000
   18.9090   19.1540    7.5370 C   0  0  0  0  0  0  0  0  0  0  0  0
   18.7730   17.6460    7.6780 C   0  0  0  0  0  0  0  0  0  0  0  0
   19.9200   16.9190    7.0700 C   0  0  0  0  0  0  0  0  0  0  0  0
   20.9700   16.2740    7.6940 C   0  0  0  0  0  0  0  0  0  0  0  0
   21.7090   15.7640    6.6660 N   0  0  0  0  0  0  0  0  0  0  0  0
   23.2280   15.0590    6.7990 S   0  0  0  0  0  6  0  0  0  0  0  0
   24.1800   16.1240    6.5480 O   0  0  0  0  0  0  0  0  0  0  0  0
   23.1800   13.8530    5.9960 O   0  0  0  0  0  0  0  0  0  0  0  0
   23.3230   14.5990    8.5090 C   0  0  0  0  0  0  0  0  0  0  0  0
   22.8340   13.3560    8.9180 C   0  0  0  0  0  0  0  0  0  0  0  0
   22.9110   12.9960   10.2640 C   0  0  0  0  0  0  0  0  0  0  0  0
   23.4710   13.8900   11.1970 C   0  0  0  0  0  0  0  0  0  0  0  0
   23.9570   15.1580   10.7860 C   0  0  0  0  0  0  0  0  0  0  0  0
   23.8700   15.5020    9.4310 C   0  0  0  0  0  0  0  0  0  0  0  0
   24.5090   16.0400   11.7280 C   0  0  0  0  0  0  0  0  0  0  0  0
   24.6020   15.7010   13.0920 C   0  0  0  0  0  0  0  0  0  0  0  0
   25.2040   16.6710   14.0410 C   0  0  0  0  0  0  0  0  0  0  0  0
   26.3380   16.4880   14.4740 O   0  0  0  0  0  0  0  0  0  0  0  0
   24.4400   17.7540   14.4020 N   0  0  0  0  0  0  0  0  0  0  0  0
   24.8910   18.7320   15.3760 C   0  0  1  0  0  0  0  0  0  0  0  0
   25.7900   18.0970   16.4330 C   0  0  0  0  0  0  0  0  0  0  0  0
   26.2340   19.1580   17.4280 C   0  0  0  0  0  0  0  0  0  0  0  0
   26.9200   20.3080   16.7300 C   0  0  0  0  0  0  0  0  0  0  0  0
   27.8320   20.9450   17.2510 O   0  0  0  0  0  0  0  0  0  0  0  0
   26.4500   20.6390   15.4850 N   0  0  0  0  0  0  0  0  0  0  0  0
   25.6600   19.8580   14.6740 C   0  0  0  0  0  0  0  0  0  0  0  0
   25.5800   20.0930   13.4700 O   0  0  0  0  0  0  0  0  0  0  0  0
   24.1210   14.4460   13.5110 C   0  0  0  0  0  0  0  0  0  0  0  0
   24.0880   13.8780   14.7700 N   0  0  0  0  0  0  0  0  0  0  0  0
   23.5450   12.6950   14.6110 C   0  0  0  0  0  0  0  0  0  0  0  0
   23.2170   12.4670   13.3060 N   0  0  0  0  0  0  0  0  0  0  0  0
   23.5730   13.5740   12.5710 C   0  0  0  0  0  0  0  0  0  0  0  0
   21.1460   16.1340    5.4870 C   0  0  0  0  0  0  0  0  0  0  0  0
   20.0500   16.8310    5.6970 N   0  0  0  0  0  0  0  0  0  0  0  0
   18.9504   19.6134    8.5356 H   0  0  0  0  0  0  0  0  0  0  0  0
   19.8320   19.3891    6.9867 H   0  0  0  0  0  0  0  0  0  0  0  0
   18.0430   19.5504    6.9867 H   0  0  0  0  0  0  0  0  0  0  0  0
   18.7203   17.3935    8.7473 H   0  0  0  0  0  0  0  0  0  0  0  0
   17.8592   17.3383    7.1485 H   0  0  0  0  0  0  0  0  0  0  0  0
   21.1659   16.1904    8.7732 H   0  0  0  0  0  0  0  0  0  0  0  0
   22.3915   12.6661    8.1844 H   0  0  0  0  0  0  0  0  0  0  0  0
   22.5353   12.0167   10.5954 H   0  0  0  0  0  0  0  0  0  0  0  0
   24.2318   16.4831    9.0896 H   0  0  0  0  0  0  0  0  0  0  0  0
   24.8782   17.0204   11.3927 H   0  0  0  0  0  0  0  0  0  0  0  0
   23.5147   17.8767   13.9665 H   0  0  0  0  0  0  0  0  0  0  0  0
   23.9988   19.1386   15.8746 H   0  0  0  0  0  0  0  0  0  0  0  0
   25.2335   17.3091   16.9617 H   0  0  0  0  0  0  0  0  0  0  0  0
   26.6740   17.6594   15.9462 H   0  0  0  0  0  0  0  0  0  0  0  0
   25.3522   19.5384   17.9643 H   0  0  0  0  0  0  0  0  0  0  0  0
   26.9473   18.7009   18.1296 H   0  0  0  0  0  0  0  0  0  0  0  0
   26.7151   21.5652   15.1207 H   0  0  0  0  0  0  0  0  0  0  0  0
   23.3753   11.9768   15.4267 H   0  0  0  0  0  0  0  0  0  0  0  0
   22.7780   11.6123   12.9349 H   0  0  0  0  0  0  0  0  0  0  0  0
   21.5500   15.8856    4.4945 H   0  0  0  0  0  0  0  0  0  0  0  0
  1  2  1  0
  2  3  1  0
  3  4  2  0
  4  5  1  0
  5  6  1  0
  6  7  2  0
  6  8  2  0
  6  9  1  0
  9 10  2  0
 10 11  1  0
 11 12  2  0
 12 13  1  0
 13 14  2  0
 13 15  1  0
 15 16  2  0
 16 17  1  0
 17 18  2  0
 17 19  1  0
 19 20  1  0
 20 21  1  0
 21 22  1  0
 22 23  1  0
 23 24  2  0
 23 25  1  0
 25 26  1  0
 26 27  2  0
 16 28  1  0
 28 29  1  0
 29 30  2  0
 30 31  1  0
 31 32  1  0
  5 33  1  0
 33 34  2  0
 34  3  1  0
 14  9  1  0
 26 20  1  0
 32 28  2  0
 32 12  1  0
  1 35  1  0
  1 36  1  0
  1 37  1  0
  2 38  1  0
  2 39  1  0
  4 40  1  0
 10 41  1  0
 11 42  1  0
 14 43  1  0
 15 44  1  0
 19 45  1  0
 20 46  1  1
 21 47  1  0
 21 48  1  0
 22 49  1  0
 22 50  1  0
 25 51  1  0
 30 52  1  0
 31 53  1  0
 33 54  1  0
M  END
>  <meeko>  (436) 
{"is_sidechain": [true], "free_energy": -10.83, "intermolecular_energy": 0.0, "internal_energy": -10.83, "cluster_size": 20, "cluster_id": 1, "rank_in_cluster": 1}

>  <_RMSD_MCS_to_ref>  (436) 
0.7450730762072193

$$$$
ligand
     RDKit          3D

 59 63  0  0  0  0  0  0  0  0999 V2000
   18.8250   19.0180    7.5350 C   0  0  0  0  0  0  0  0  0  0  0  0
   18.5200   17.5410    7.7330 C   0  0  0  0  0  0  0  0  0  0  0  0
   19.7460   16.7020    7.6650 C   0  0  0  0  0  0  0  0  0  0  0  0
   20.2880   15.8750    8.6310 C   0  0  0  0  0  0  0  0  0  0  0  0
   21.4100   15.3660    8.0410 N   0  0  0  0  0  0  0  0  0  0  0  0
   22.5350   14.3640    8.7790 S   0  0  0  0  0  6  0  0  0  0  0  0
   23.7180   14.3700    7.9420 O   0  0  0  0  0  0  0  0  0  0  0  0
   21.7930   13.1470    9.0510 O   0  0  0  0  0  0  0  0  0  0  0  0
   22.9340   15.1330   10.3360 C   0  0  0  0  0  0  0  0  0  0  0  0
   21.8520   15.3770   11.2180 C   0  0  0  0  0  0  0  0  0  0  0  0
   22.0630   15.9880   12.4540 C   0  0  0  0  0  0  0  0  0  0  0  0
   23.3600   16.3290   12.7780 C   0  0  0  0  0  0  0  0  0  0  0  0
   24.4410   16.0890   11.9290 C   0  0  0  0  0  0  0  0  0  0  0  0
   24.2550   15.4880   10.6860 C   0  0  0  0  0  0  0  0  0  0  0  0
   25.4340   15.2460    9.8560 C   0  0  0  0  0  0  0  0  0  0  0  0
   25.9440   14.0230    9.6390 C   0  0  0  0  0  0  0  0  0  0  0  0
   27.1630   13.7690    8.8040 C   0  0  0  0  0  0  0  0  0  0  0  0
   27.5590   12.3660    9.2400 C   0  0  0  0  0  0  0  0  0  0  0  0
   26.2910   11.6860    9.5400 N   0  0  0  0  0  0  0  0  0  0  0  0
   25.4560   12.7130   10.1850 C   0  0  0  0  0  0  0  0  0  0  0  0
   25.6960   16.5870   12.5740 C   0  0  0  0  0  0  0  0  0  0  0  0
   25.2370   17.0340   13.8820 N   0  0  0  0  0  0  0  0  0  0  0  0
   26.1040   17.8160   14.7590 C   0  0  2  0  0  0  0  0  0  0  0  0
   25.6880   17.7810   16.2300 C   0  0  0  0  0  0  0  0  0  0  0  0
   26.6890   18.5740   17.0540 C   0  0  0  0  0  0  0  0  0  0  0  0
   26.8120   19.9940   16.5520 C   0  0  0  0  0  0  0  0  0  0  0  0
   27.2020   20.9110   17.2680 O   0  0  0  0  0  0  0  0  0  0  0  0
   26.5440   20.2030   15.2220 N   0  0  0  0  0  0  0  0  0  0  0  0
   26.2210   19.2650   14.2670 C   0  0  0  0  0  0  0  0  0  0  0  0
   26.1390   19.5880   13.0810 O   0  0  0  0  0  0  0  0  0  0  0  0
   23.8580   16.9810   13.9930 C   0  0  0  0  0  0  0  0  0  0  0  0
   23.1510   17.4000   14.8870 O   0  0  0  0  0  0  0  0  0  0  0  0
   21.5070   15.8430    6.7750 C   0  0  0  0  0  0  0  0  0  0  0  0
   20.5230   16.6810    6.5230 N   0  0  0  0  0  0  0  0  0  0  0  0
   18.9258   19.5062    8.5155 H   0  0  0  0  0  0  0  0  0  0  0  0
   19.7645   19.1263    6.9731 H   0  0  0  0  0  0  0  0  0  0  0  0
   18.0053   19.4896    6.9731 H   0  0  0  0  0  0  0  0  0  0  0  0
   18.0513   17.4048    8.7188 H   0  0  0  0  0  0  0  0  0  0  0  0
   17.8468   17.2229    6.9233 H   0  0  0  0  0  0  0  0  0  0  0  0
   19.9042   15.6733    9.6419 H   0  0  0  0  0  0  0  0  0  0  0  0
   20.8340   15.0811   10.9245 H   0  0  0  0  0  0  0  0  0  0  0  0
   21.2292   16.1898   13.1425 H   0  0  0  0  0  0  0  0  0  0  0  0
   25.9280   16.1090    9.3858 H   0  0  0  0  0  0  0  0  0  0  0  0
   26.9259   13.8018    7.7304 H   0  0  0  0  0  0  0  0  0  0  0  0
   27.9580   14.5168    8.9411 H   0  0  0  0  0  0  0  0  0  0  0  0
   28.0937   11.8467    8.4310 H   0  0  0  0  0  0  0  0  0  0  0  0
   28.2348   12.3795   10.1078 H   0  0  0  0  0  0  0  0  0  0  0  0
   25.8467   11.3485    8.6742 H   0  0  0  0  0  0  0  0  0  0  0  0
   24.3961   12.5616    9.9327 H   0  0  0  0  0  0  0  0  0  0  0  0
   25.5318   12.6728   11.2816 H   0  0  0  0  0  0  0  0  0  0  0  0
   26.4381   15.7807   12.6697 H   0  0  0  0  0  0  0  0  0  0  0  0
   26.1958   17.3785   11.9962 H   0  0  0  0  0  0  0  0  0  0  0  0
   27.0913   17.3337   14.7079 H   0  0  0  0  0  0  0  0  0  0  0  0
   24.6878   18.2254   16.3397 H   0  0  0  0  0  0  0  0  0  0  0  0
   25.6645   16.7390   16.5816 H   0  0  0  0  0  0  0  0  0  0  0  0
   26.3556   18.5922   18.1021 H   0  0  0  0  0  0  0  0  0  0  0  0
   27.6723   18.0887   16.9664 H   0  0  0  0  0  0  0  0  0  0  0  0
   26.5901   21.1800   14.8992 H   0  0  0  0  0  0  0  0  0  0  0  0
   22.2963   15.5685    6.0597 H   0  0  0  0  0  0  0  0  0  0  0  0
  1  2  1  0
  2  3  1  0
  3  4  2  0
  4  5  1  0
  5  6  1  0
  6  7  2  0
  6  8  2  0
  6  9  1  0
  9 10  2  0
 10 11  1  0
 11 12  2  0
 12 13  1  0
 13 14  2  0
 14 15  1  0
 15 16  2  0
 16 17  1  0
 17 18  1  0
 18 19  1  0
 19 20  1  0
 13 21  1  0
 21 22  1  0
 22 23  1  0
 23 24  1  0
 24 25  1  0
 25 26  1  0
 26 27  2  0
 26 28  1  0
 28 29  1  0
 29 30  2  0
 22 31  1  0
 31 32  2  0
  5 33  1  0
 33 34  2  0
 34  3  1  0
 14  9  1  0
 20 16  1  0
 29 23  1  0
 31 12  1  0
  1 35  1  0
  1 36  1  0
  1 37  1  0
  2 38  1  0
  2 39  1  0
  4 40  1  0
 10 41  1  0
 11 42  1  0
 15 43  1  0
 17 44  1  0
 17 45  1  0
 18 46  1  0
 18 47  1  0
 19 48  1  0
 20 49  1  0
 20 50  1  0
 21 51  1  0
 21 52  1  0
 23 53  1  1
 24 54  1  0
 24 55  1  0
 25 56  1  0
 25 57  1  0
 28 58  1  0
 33 59  1  0
M  END
>  <meeko>  (437) 
{"is_sidechain": [true], "free_energy": -10.82, "intermolecular_energy": 0.0, "internal_energy": -10.82, "cluster_size": 7, "cluster_id": 2, "rank_in_cluster": 1}

>  <_RMSD_MCS_to_ref>  (437) 
0.8448282534206453

$$$$
ligand
     RDKit          3D

 47 50  0  0  0  0  0  0  0  0999 V2000
   18.7970   18.8170    7.7190 C   0  0  0  0  0  0  0  0  0  0  0  0
   18.5280   17.3290    7.8810 C   0  0  0  0  0  0  0  0  0  0  0  0
   19.7170   16.5030    7.5350 C   0  0  0  0  0  0  0  0  0  0  0  0
   20.3560   15.5390    8.2900 C   0  0  0  0  0  0  0  0  0  0  0  0
   21.3560   15.0850    7.4760 N   0  0  0  0  0  0  0  0  0  0  0  0
   22.6480   14.1110    7.9560 S   0  0  0  0  0  6  0  0  0  0  0  0
   23.7300   14.4790    7.0610 O   0  0  0  0  0  0  0  0  0  0  0  0
   22.1120   12.7640    7.9840 O   0  0  0  0  0  0  0  0  0  0  0  0
   23.0900   14.6150    9.5760 C   0  0  0  0  0  0  0  0  0  0  0  0
   22.1940   14.4760   10.5670 C   0  0  0  0  0  0  0  0  0  0  0  0
   22.5370   14.8600   11.8550 N   0  0  0  0  0  0  0  0  0  0  0  0
   21.7850   14.8110   12.9690 N   0  0  0  0  0  0  0  0  0  0  0  0
   22.5100   15.2650   13.9800 N   0  0  0  0  0  0  0  0  0  0  0  0
   23.7570   15.6260   13.5130 C   0  0  0  0  0  0  0  0  0  0  0  0
   24.7680   16.1520   14.4310 C   0  0  0  0  0  0  0  0  0  0  0  0
   25.5690   15.4140   15.0020 O   0  0  0  0  0  0  0  0  0  0  0  0
   24.7820   17.5180   14.6420 N   0  0  0  0  0  0  0  0  0  0  0  0
   25.9450   18.1510   15.2450 C   0  0  2  0  0  0  0  0  0  0  0  0
   25.9010   18.0350   16.7630 C   0  0  0  0  0  0  0  0  0  0  0  0
   27.1180   18.7250   17.3590 C   0  0  0  0  0  0  0  0  0  0  0  0
   27.2100   20.1620   16.9010 C   0  0  0  0  0  0  0  0  0  0  0  0
   27.6280   21.0580   17.6300 O   0  0  0  0  0  0  0  0  0  0  0  0
   26.8230   20.4230   15.6120 N   0  0  0  0  0  0  0  0  0  0  0  0
   25.9760   19.6400   14.8640 C   0  0  0  0  0  0  0  0  0  0  0  0
   25.2980   20.1320   13.9630 O   0  0  0  0  0  0  0  0  0  0  0  0
   23.7820   15.3790   12.1530 C   0  0  0  0  0  0  0  0  0  0  0  0
   24.7610   15.5280   11.1180 C   0  0  0  0  0  0  0  0  0  0  0  0
   25.8890   15.9770   11.2900 O   0  0  0  0  0  0  0  0  0  0  0  0
   24.3450   15.1310    9.8630 N   0  0  0  0  0  0  0  0  0  0  0  0
   21.3420   15.7910    6.3170 C   0  0  0  0  0  0  0  0  0  0  0  0
   20.3520   16.6580    6.3180 N   0  0  0  0  0  0  0  0  0  0  0  0
   18.8815   19.2845    8.7111 H   0  0  0  0  0  0  0  0  0  0  0  0
   19.7359   18.9616    7.1643 H   0  0  0  0  0  0  0  0  0  0  0  0
   17.9682   19.2812    7.1643 H   0  0  0  0  0  0  0  0  0  0  0  0
   18.2508   17.1307    8.9269 H   0  0  0  0  0  0  0  0  0  0  0  0
   17.7144   17.0555    7.1931 H   0  0  0  0  0  0  0  0  0  0  0  0
   20.1154   15.2116    9.3122 H   0  0  0  0  0  0  0  0  0  0  0  0
   21.1967   14.0612   10.3589 H   0  0  0  0  0  0  0  0  0  0  0  0
   23.9680   18.0885   14.3720 H   0  0  0  0  0  0  0  0  0  0  0  0
   26.8457   17.6412   14.8723 H   0  0  0  0  0  0  0  0  0  0  0  0
   24.9859   18.5142   17.1411 H   0  0  0  0  0  0  0  0  0  0  0  0
   25.9040   16.9731   17.0501 H   0  0  0  0  0  0  0  0  0  0  0  0
   27.0420   18.7022   18.4561 H   0  0  0  0  0  0  0  0  0  0  0  0
   28.0200   18.1934   17.0217 H   0  0  0  0  0  0  0  0  0  0  0  0
   27.1968   21.2741   15.1683 H   0  0  0  0  0  0  0  0  0  0  0  0
   25.0136   15.2246    9.0851 H   0  0  0  0  0  0  0  0  0  0  0  0
   22.0577   15.6573    5.4925 H   0  0  0  0  0  0  0  0  0  0  0  0
  1  2  1  0
  2  3  1  0
  3  4  2  0
  4  5  1  0
  5  6  1  0
  6  7  2  0
  6  8  2  0
  6  9  1  0
  9 10  2  0
 10 11  1  0
 11 12  1  0
 12 13  2  0
 13 14  1  0
 14 15  1  0
 15 16  2  0
 15 17  1  0
 17 18  1  0
 18 19  1  0
 19 20  1  0
 20 21  1  0
 21 22  2  0
 21 23  1  0
 23 24  1  0
 24 25  2  0
 14 26  2  0
 26 27  1  0
 27 28  2  0
 27 29  1  0
  5 30  1  0
 30 31  2  0
 31  3  1  0
 29  9  1  0
 26 11  1  0
 24 18  1  0
  1 32  1  0
  1 33  1  0
  1 34  1  0
  2 35  1  0
  2 36  1  0
  4 37  1  0
 10 38  1  0
 17 39  1  0
 18 40  1  6
 19 41  1  0
 19 42  1  0
 20 43  1  0
 20 44  1  0
 23 45  1  0
 29 46  1  0
 30 47  1  0
M  END
>  <meeko>  (438) 
{"is_sidechain": [true], "free_energy": -10.82, "intermolecular_energy": 0.0, "internal_energy": -10.82, "cluster_size": 15, "cluster_id": 1, "rank_in_cluster": 1}

>  <_RMSD_MCS_to_ref>  (438) 
0.7287690534959156

$$$$
ligand
     RDKit          3D

 54 58  0  0  0  0  0  0  0  0999 V2000
   18.7970   18.8160    7.7190 C   0  0  0  0  0  0  0  0  0  0  0  0
   18.5280   17.3300    7.8810 C   0  0  0  0  0  0  0  0  0  0  0  0
   19.7650   16.5550    8.1700 C   0  0  0  0  0  0  0  0  0  0  0  0
   20.4080   16.3610    9.3770 C   0  0  0  0  0  0  0  0  0  0  0  0
   21.4700   15.5650    9.0640 N   0  0  0  0  0  0  0  0  0  0  0  0
   22.6450   14.9910   10.1120 S   0  0  0  0  0  6  0  0  0  0  0  0
   23.2830   16.1810   10.6400 O   0  0  0  0  0  0  0  0  0  0  0  0
   23.3710   13.9540    9.4060 O   0  0  0  0  0  0  0  0  0  0  0  0
   21.9030   14.1960   11.4520 C   0  0  0  0  0  0  0  0  0  0  0  0
   22.1710   14.4420   12.7910 C   0  0  0  0  0  0  0  0  0  0  0  0
   23.0430   15.4000   13.4530 C   0  0  0  0  0  0  0  0  0  0  0  0
   24.4270   15.3240   13.2940 C   0  0  0  0  0  0  0  0  0  0  0  0
   25.2660   16.2520   13.9260 C   0  0  0  0  0  0  0  0  0  0  0  0
   24.7460   17.2820   14.7240 C   0  0  0  0  0  0  0  0  0  0  0  0
   25.6060   18.2250   15.3840 N   0  0  0  0  0  0  0  0  0  0  0  0
   26.4960   17.7680   16.4480 C   0  0  0  0  0  0  0  0  0  0  0  0
   26.6170   18.8120   17.5390 C   0  0  0  0  0  0  0  0  0  0  0  0
   27.0270   20.1160   16.9310 C   0  0  0  0  0  0  0  0  0  0  0  0
   27.5930   20.9960   17.5740 O   0  0  0  0  0  0  0  0  0  0  0  0
   26.6540   20.3070   15.6300 N   0  0  0  0  0  0  0  0  0  0  0  0
   25.7850   19.5280   14.9030 C   0  0  0  0  0  0  0  0  0  0  0  0
   25.2610   20.0220   13.9090 O   0  0  0  0  0  0  0  0  0  0  0  0
   23.3520   17.3400   14.8720 C   0  0  0  0  0  0  0  0  0  0  0  0
   22.5100   16.4140   14.2450 C   0  0  0  0  0  0  0  0  0  0  0  0
   21.3900   13.5710   13.5170 N   0  0  0  0  0  0  0  0  0  0  0  0
   20.6150   12.8000   12.6850 C   0  0  0  0  0  0  0  0  0  0  0  0
   19.6780   11.8090   13.0060 C   0  0  0  0  0  0  0  0  0  0  0  0
   19.0150   11.1760   11.9520 C   0  0  0  0  0  0  0  0  0  0  0  0
   19.2790   11.5250   10.6320 C   0  0  0  0  0  0  0  0  0  0  0  0
   20.2180   12.5180   10.3300 C   0  0  0  0  0  0  0  0  0  0  0  0
   20.9080   13.1740   11.3730 C   0  0  0  0  0  0  0  0  0  0  0  0
   21.4470   15.2880    7.7360 C   0  0  0  0  0  0  0  0  0  0  0  0
   20.4300   15.8890    7.1560 N   0  0  0  0  0  0  0  0  0  0  0  0
   18.8816   19.2836    8.7111 H   0  0  0  0  0  0  0  0  0  0  0  0
   19.7359   18.9603    7.1643 H   0  0  0  0  0  0  0  0  0  0  0  0
   17.9683   19.2803    7.1643 H   0  0  0  0  0  0  0  0  0  0  0  0
   17.8207   17.1880    8.7114 H   0  0  0  0  0  0  0  0  0  0  0  0
   18.1159   16.9595    6.9308 H   0  0  0  0  0  0  0  0  0  0  0  0
   20.1277   16.7575   10.3640 H   0  0  0  0  0  0  0  0  0  0  0  0
   24.8625   14.5307   12.6687 H   0  0  0  0  0  0  0  0  0  0  0  0
   26.3550   16.1710   13.7935 H   0  0  0  0  0  0  0  0  0  0  0  0
   26.0931   16.8404   16.8806 H   0  0  0  0  0  0  0  0  0  0  0  0
   27.4935   17.5912   16.0193 H   0  0  0  0  0  0  0  0  0  0  0  0
   25.6468   18.9306   18.0436 H   0  0  0  0  0  0  0  0  0  0  0  0
   27.3723   18.4933   18.2724 H   0  0  0  0  0  0  0  0  0  0  0  0
   27.0658   21.1169   15.1448 H   0  0  0  0  0  0  0  0  0  0  0  0
   22.9104   18.1316   15.4953 H   0  0  0  0  0  0  0  0  0  0  0  0
   21.4206   16.4877   14.3787 H   0  0  0  0  0  0  0  0  0  0  0  0
   21.3872   13.5062   14.5450 H   0  0  0  0  0  0  0  0  0  0  0  0
   19.4716   11.5387   14.0521 H   0  0  0  0  0  0  0  0  0  0  0  0
   18.2748   10.3917   12.1688 H   0  0  0  0  0  0  0  0  0  0  0  0
   18.7444   11.0154    9.8169 H   0  0  0  0  0  0  0  0  0  0  0  0
   20.4181   12.7869    9.2823 H   0  0  0  0  0  0  0  0  0  0  0  0
   22.1769   14.6498    7.2164 H   0  0  0  0  0  0  0  0  0  0  0  0
  1  2  1  0
  2  3  1  0
  3  4  2  0
  4  5  1  0
  5  6  1  0
  6  7  2  0
  6  8  2  0
  6  9  1  0
  9 10  2  0
 10 11  1  0
 11 12  2  0
 12 13  1  0
 13 14  2  0
 14 15  1  0
 15 16  1  0
 16 17  1  0
 17 18  1  0
 18 19  2  0
 18 20  1  0
 20 21  1  0
 21 22  2  0
 14 23  1  0
 23 24  2  0
 10 25  1  0
 25 26  1  0
 26 27  2  0
 27 28  1  0
 28 29  2  0
 29 30  1  0
 30 31  2  0
  5 32  1  0
 32 33  2  0
 33  3  1  0
 31  9  1  0
 24 11  1  0
 31 26  1  0
 21 15  1  0
  1 34  1  0
  1 35  1  0
  1 36  1  0
  2 37  1  0
  2 38  1  0
  4 39  1  0
 12 40  1  0
 13 41  1  0
 16 42  1  0
 16 43  1  0
 17 44  1  0
 17 45  1  0
 20 46  1  0
 23 47  1  0
 24 48  1  0
 25 49  1  0
 27 50  1  0
 28 51  1  0
 29 52  1  0
 30 53  1  0
 32 54  1  0
M  END
>  <meeko>  (439) 
{"is_sidechain": [true], "free_energy": -10.82, "intermolecular_energy": 0.0, "internal_energy": -10.82, "cluster_size": 13, "cluster_id": 1, "rank_in_cluster": 1}

>  <_RMSD_MCS_to_ref>  (439) 
0.5480791457444817

$$$$
ligand
     RDKit          3D

 55 59  0  0  0  0  0  0  0  0999 V2000
   18.7970   18.8170    7.7190 C   0  0  0  0  0  0  0  0  0  0  0  0
   18.5280   17.3290    7.8810 C   0  0  0  0  0  0  0  0  0  0  0  0
   19.7700   16.5180    7.7650 C   0  0  0  0  0  0  0  0  0  0  0  0
   20.6590   16.1440    8.7540 C   0  0  0  0  0  0  0  0  0  0  0  0
   21.6150   15.4270    8.0910 N   0  0  0  0  0  0  0  0  0  0  0  0
   22.9240   14.6300    8.7840 S   0  0  0  0  0  6  0  0  0  0  0  0
   23.7200   14.1790    7.6560 O   0  0  0  0  0  0  0  0  0  0  0  0
   23.4410   15.5480    9.7850 O   0  0  0  0  0  0  0  0  0  0  0  0
   22.2360   13.2150    9.6100 C   0  0  0  0  0  0  0  0  0  0  0  0
   21.3520   12.5140    8.8460 N   0  0  0  0  0  0  0  0  0  0  0  0
   20.8140   11.4120    9.4040 C   0  0  0  0  0  0  0  0  0  0  0  0
   21.1180   10.9810   10.6830 C   0  0  0  0  0  0  0  0  0  0  0  0
   22.0270   11.7230   11.4370 C   0  0  0  0  0  0  0  0  0  0  0  0
   22.6190   12.8810   10.9100 C   0  0  0  0  0  0  0  0  0  0  0  0
   23.5770   13.6410   11.7190 C   0  0  0  0  0  0  0  0  0  0  0  0
   24.9640   13.3570   11.6540 C   0  0  0  0  0  0  0  0  0  0  0  0
   25.8990   14.0680   12.4190 C   0  0  0  0  0  0  0  0  0  0  0  0
   25.4350   15.0720   13.2460 C   0  0  0  0  0  0  0  0  0  0  0  0
   24.0730   15.3580   13.3010 C   0  0  0  0  0  0  0  0  0  0  0  0
   23.1310   14.6720   12.5580 C   0  0  0  0  0  0  0  0  0  0  0  0
   23.8770   16.4670   14.2400 C   0  0  0  0  0  0  0  0  0  0  0  0
   22.8130   17.0100   14.4670 O   0  0  0  0  0  0  0  0  0  0  0  0
   25.1200   16.7600   14.7810 N   0  0  0  0  0  0  0  0  0  0  0  0
   25.3540   17.9640   15.5680 C   0  0  1  0  0  0  0  0  0  0  0  0
   26.1750   17.6910   16.8250 C   0  0  0  0  0  0  0  0  0  0  0  0
   26.3000   18.9720   17.6350 C   0  0  0  0  0  0  0  0  0  0  0  0
   26.8920   20.0870   16.8040 C   0  0  0  0  0  0  0  0  0  0  0  0
   27.6510   20.9270   17.2770 O   0  0  0  0  0  0  0  0  0  0  0  0
   26.5250   20.1290   15.4830 N   0  0  0  0  0  0  0  0  0  0  0  0
   26.0460   19.0680   14.7490 C   0  0  0  0  0  0  0  0  0  0  0  0
   26.1910   19.0420   13.5290 O   0  0  0  0  0  0  0  0  0  0  0  0
   26.1870   15.9900   14.1530 C   0  0  0  0  0  0  0  0  0  0  0  0
   21.2810   15.3510    6.7770 C   0  0  0  0  0  0  0  0  0  0  0  0
   20.1700   16.0180    6.5400 N   0  0  0  0  0  0  0  0  0  0  0  0
   18.8815   19.2845    8.7111 H   0  0  0  0  0  0  0  0  0  0  0  0
   19.7359   18.9616    7.1643 H   0  0  0  0  0  0  0  0  0  0  0  0
   17.9682   19.2812    7.1643 H   0  0  0  0  0  0  0  0  0  0  0  0
   18.0826   17.1552    8.8716 H   0  0  0  0  0  0  0  0  0  0  0  0
   17.8457   17.0193    7.0757 H   0  0  0  0  0  0  0  0  0  0  0  0
   20.6089   16.3713    9.8291 H   0  0  0  0  0  0  0  0  0  0  0  0
   20.0962   10.8249    8.8123 H   0  0  0  0  0  0  0  0  0  0  0  0
   20.6533   10.0735   11.0960 H   0  0  0  0  0  0  0  0  0  0  0  0
   22.2826   11.3969   12.4560 H   0  0  0  0  0  0  0  0  0  0  0  0
   25.3161   12.5575   10.9856 H   0  0  0  0  0  0  0  0  0  0  0  0
   26.9721   13.8329   12.3622 H   0  0  0  0  0  0  0  0  0  0  0  0
   22.0630   14.9273   12.6229 H   0  0  0  0  0  0  0  0  0  0  0  0
   24.3545   18.3117   15.8683 H   0  0  0  0  0  0  0  0  0  0  0  0
   25.6740   16.9214   17.4305 H   0  0  0  0  0  0  0  0  0  0  0  0
   27.1768   17.3375   16.5398 H   0  0  0  0  0  0  0  0  0  0  0  0
   25.3017   19.2752   17.9837 H   0  0  0  0  0  0  0  0  0  0  0  0
   26.9669   18.7813   18.4887 H   0  0  0  0  0  0  0  0  0  0  0  0
   26.6158   21.0333   14.9983 H   0  0  0  0  0  0  0  0  0  0  0  0
   26.8657   16.6424   13.5840 H   0  0  0  0  0  0  0  0  0  0  0  0
   26.8296   15.4635   14.8740 H   0  0  0  0  0  0  0  0  0  0  0  0
   21.8588   14.8072    6.0151 H   0  0  0  0  0  0  0  0  0  0  0  0
  1  2  1  0
  2  3  1  0
  3  4  2  0
  4  5  1  0
  5  6  1  0
  6  7  2  0
  6  8  2  0
  6  9  1  0
  9 10  2  0
 10 11  1  0
 11 12  2  0
 12 13  1  0
 13 14  2  0
 14 15  1  0
 15 16  2  0
 16 17  1  0
 17 18  2  0
 18 19  1  0
 19 20  2  0
 19 21  1  0
 21 22  2  0
 21 23  1  0
 23 24  1  0
 24 25  1  0
 25 26  1  0
 26 27  1  0
 27 28  2  0
 27 29  1  0
 29 30  1  0
 30 31  2  0
 23 32  1  0
  5 33  1  0
 33 34  2  0
 34  3  1  0
 14  9  1  0
 20 15  1  0
 30 24  1  0
 32 18  1  0
  1 35  1  0
  1 36  1  0
  1 37  1  0
  2 38  1  0
  2 39  1  0
  4 40  1  0
 11 41  1  0
 12 42  1  0
 13 43  1  0
 16 44  1  0
 17 45  1  0
 20 46  1  0
 24 47  1  1
 25 48  1  0
 25 49  1  0
 26 50  1  0
 26 51  1  0
 29 52  1  0
 32 53  1  0
 32 54  1  0
 33 55  1  0
M  END
>  <meeko>  (440) 
{"is_sidechain": [true], "free_energy": -10.82, "intermolecular_energy": 0.0, "internal_energy": -10.82, "cluster_size": 20, "cluster_id": 1, "rank_in_cluster": 1}

>  <_RMSD_MCS_to_ref>  (440) 
1.3105105239307822

$$$$
ligand
     RDKit          3D

 49 52  0  0  0  0  0  0  0  0999 V2000
   18.9090   19.1540    7.5370 C   0  0  0  0  0  0  0  0  0  0  0  0
   18.7730   17.6460    7.6780 C   0  0  0  0  0  0  0  0  0  0  0  0
   20.0600   16.9410    7.4360 C   0  0  0  0  0  0  0  0  0  0  0  0
   20.7980   16.1570    8.3010 C   0  0  0  0  0  0  0  0  0  0  0  0
   21.8860   15.7800    7.5660 N   0  0  0  0  0  0  0  0  0  0  0  0
   23.1420   14.8050    8.1070 S   0  0  0  0  0  6  0  0  0  0  0  0
   24.2340   15.0830    7.1890 O   0  0  0  0  0  0  0  0  0  0  0  0
   22.6070   13.4670    8.2650 O   0  0  0  0  0  0  0  0  0  0  0  0
   23.6190   15.4070    9.6890 C   0  0  0  0  0  0  0  0  0  0  0  0
   22.7900   15.1740   10.7970 C   0  0  0  0  0  0  0  0  0  0  0  0
   23.1550   15.6490   12.0700 C   0  0  0  0  0  0  0  0  0  0  0  0
   24.3460   16.3680   12.2520 C   0  0  0  0  0  0  0  0  0  0  0  0
   24.7640   16.8850   13.5820 C   0  0  0  0  0  0  0  0  0  0  0  0
   24.9130   16.1190   14.5260 O   0  0  0  0  0  0  0  0  0  0  0  0
   24.9860   18.2380   13.6760 N   0  0  0  0  0  0  0  0  0  0  0  0
   25.2950   18.8780   14.9460 C   0  0  1  0  0  0  0  0  0  0  0  0
   26.3920   18.1470   15.7130 C   0  0  0  0  0  0  0  0  0  0  0  0
   26.6840   18.8890   17.0090 C   0  0  0  0  0  0  0  0  0  0  0  0
   27.0400   20.3330   16.7450 C   0  0  0  0  0  0  0  0  0  0  0  0
   27.8600   20.9440   17.4250 O   0  0  0  0  0  0  0  0  0  0  0  0
   26.3790   20.9520   15.7150 N   0  0  0  0  0  0  0  0  0  0  0  0
   25.7560   20.3130   14.6710 C   0  0  0  0  0  0  0  0  0  0  0  0
   25.5900   20.8720   13.5880 O   0  0  0  0  0  0  0  0  0  0  0  0
   25.1540   16.5730   11.1400 C   0  0  0  0  0  0  0  0  0  0  0  0
   24.7950   16.1070    9.8670 C   0  0  0  0  0  0  0  0  0  0  0  0
   25.7480   16.4530    8.8970 N   0  0  0  0  0  0  0  0  0  0  0  0
   26.6830   17.1040    9.5220 C   0  0  0  0  0  0  0  0  0  0  0  0
   26.4640   17.2770   11.0110 C   0  0  0  0  0  0  0  0  0  0  0  0
   21.7850   16.3050    6.3190 C   0  0  0  0  0  0  0  0  0  0  0  0
   20.6850   17.0250    6.2070 N   0  0  0  0  0  0  0  0  0  0  0  0
   18.9504   19.6134    8.5356 H   0  0  0  0  0  0  0  0  0  0  0  0
   19.8320   19.3891    6.9867 H   0  0  0  0  0  0  0  0  0  0  0  0
   18.0430   19.5504    6.9867 H   0  0  0  0  0  0  0  0  0  0  0  0
   18.4287   17.4151    8.6969 H   0  0  0  0  0  0  0  0  0  0  0  0
   18.0512   17.2999    6.9235 H   0  0  0  0  0  0  0  0  0  0  0  0
   20.5633   15.8959    9.3435 H   0  0  0  0  0  0  0  0  0  0  0  0
   21.8500   14.6171   10.6696 H   0  0  0  0  0  0  0  0  0  0  0  0
   22.4996   15.4546   12.9318 H   0  0  0  0  0  0  0  0  0  0  0  0
   24.9322   18.8148   12.8244 H   0  0  0  0  0  0  0  0  0  0  0  0
   24.3855   18.8582   15.5644 H   0  0  0  0  0  0  0  0  0  0  0  0
   26.0596   17.1239   15.9429 H   0  0  0  0  0  0  0  0  0  0  0  0
   27.3042   18.1065   15.0996 H   0  0  0  0  0  0  0  0  0  0  0  0
   25.7926   18.8513   17.6524 H   0  0  0  0  0  0  0  0  0  0  0  0
   27.5397   18.4044   17.5019 H   0  0  0  0  0  0  0  0  0  0  0  0
   26.3471   21.9815   15.7252 H   0  0  0  0  0  0  0  0  0  0  0  0
   27.5700   17.5011    9.0067 H   0  0  0  0  0  0  0  0  0  0  0  0
   27.2533   16.7905   11.6029 H   0  0  0  0  0  0  0  0  0  0  0  0
   26.4796   18.3156   11.3731 H   0  0  0  0  0  0  0  0  0  0  0  0
   22.5182   16.1517    5.5134 H   0  0  0  0  0  0  0  0  0  0  0  0
  1  2  1  0
  2  3  1  0
  3  4  2  0
  4  5  1  0
  5  6  1  0
  6  7  2  0
  6  8  2  0
  6  9  1  0
  9 10  2  0
 10 11  1  0
 11 12  2  0
 12 13  1  0
 13 14  2  0
 13 15  1  0
 15 16  1  0
 16 17  1  0
 17 18  1  0
 18 19  1  0
 19 20  2  0
 19 21  1  0
 21 22  1  0
 22 23  2  0
 12 24  1  0
 24 25  2  0
 25 26  1  0
 26 27  2  0
 27 28  1  0
  5 29  1  0
 29 30  2  0
 30  3  1  0
 25  9  1  0
 22 16  1  0
 28 24  1  0
  1 31  1  0
  1 32  1  0
  1 33  1  0
  2 34  1  0
  2 35  1  0
  4 36  1  0
 10 37  1  0
 11 38  1  0
 15 39  1  0
 16 40  1  1
 17 41  1  0
 17 42  1  0
 18 43  1  0
 18 44  1  0
 21 45  1  0
 27 46  1  0
 28 47  1  0
 28 48  1  0
 29 49  1  0
M  END
>  <meeko>  (441) 
{"is_sidechain": [true], "free_energy": -10.82, "intermolecular_energy": 0.0, "internal_energy": -10.82, "cluster_size": 16, "cluster_id": 1, "rank_in_cluster": 1}

>  <_RMSD_MCS_to_ref>  (441) 
0.7805752152526154

$$$$
ligand
     RDKit          3D

 48 51  0  0  0  0  0  0  0  0999 V2000
   18.9090   19.1540    7.5370 C   0  0  0  0  0  0  0  0  0  0  0  0
   18.7730   17.6460    7.6780 C   0  0  0  0  0  0  0  0  0  0  0  0
   20.0860   16.9520    7.5830 C   0  0  0  0  0  0  0  0  0  0  0  0
   20.9100   16.5100    8.6000 C   0  0  0  0  0  0  0  0  0  0  0  0
   21.9630   15.9320    7.9510 N   0  0  0  0  0  0  0  0  0  0  0  0
   23.3950   15.4100    8.6580 S   0  0  0  0  0  6  0  0  0  0  0  0
   24.3830   16.4140    8.3180 O   0  0  0  0  0  0  0  0  0  0  0  0
   23.5430   14.0150    8.2940 O   0  0  0  0  0  0  0  0  0  0  0  0
   23.0680   15.5010   10.4000 C   0  0  0  0  0  0  0  0  0  0  0  0
   23.8220   16.3780   11.1890 C   0  0  0  0  0  0  0  0  0  0  0  0
   23.5940   16.4820   12.5720 C   0  0  0  0  0  0  0  0  0  0  0  0
   24.4190   17.4060   13.3830 C   0  0  0  0  0  0  0  0  0  0  0  0
   25.5490   17.7010   13.0030 O   0  0  0  0  0  0  0  0  0  0  0  0
   23.8770   17.8930   14.5460 N   0  0  0  0  0  0  0  0  0  0  0  0
   24.6460   18.7070   15.4750 C   0  0  1  0  0  0  0  0  0  0  0  0
   25.7730   17.9160   16.1320 C   0  0  0  0  0  0  0  0  0  0  0  0
   26.5490   18.8240   17.0730 C   0  0  0  0  0  0  0  0  0  0  0  0
   27.0660   20.0470   16.3510 C   0  0  0  0  0  0  0  0  0  0  0  0
   28.1330   20.5810   16.6410 O   0  0  0  0  0  0  0  0  0  0  0  0
   26.2660   20.5610   15.3630 N   0  0  0  0  0  0  0  0  0  0  0  0
   25.2490   19.8980   14.7220 C   0  0  0  0  0  0  0  0  0  0  0  0
   24.8560   20.2650   13.6150 O   0  0  0  0  0  0  0  0  0  0  0  0
   22.5770   15.6780   13.0980 C   0  0  0  0  0  0  0  0  0  0  0  0
   22.1810   15.6120   14.4040 O   0  0  0  0  0  0  0  0  0  0  0  0
   21.1700   14.7120   14.4780 C   0  0  0  0  0  0  0  0  0  0  0  0
   20.8960   14.1910   13.2360 C   0  0  0  0  0  0  0  0  0  0  0  0
   21.8030   14.8060   12.3320 C   0  0  0  0  0  0  0  0  0  0  0  0
   22.0460   14.7130   10.9500 C   0  0  0  0  0  0  0  0  0  0  0  0
   21.7880   16.0680    6.6100 C   0  0  0  0  0  0  0  0  0  0  0  0
   20.6510   16.6770    6.3520 N   0  0  0  0  0  0  0  0  0  0  0  0
   18.9504   19.6134    8.5356 H   0  0  0  0  0  0  0  0  0  0  0  0
   19.8320   19.3891    6.9867 H   0  0  0  0  0  0  0  0  0  0  0  0
   18.0430   19.5504    6.9867 H   0  0  0  0  0  0  0  0  0  0  0  0
   18.3232   17.4208    8.6562 H   0  0  0  0  0  0  0  0  0  0  0  0
   18.1400   17.2854    6.8538 H   0  0  0  0  0  0  0  0  0  0  0  0
   20.7535   16.6026    9.6849 H   0  0  0  0  0  0  0  0  0  0  0  0
   24.6035   16.9940   10.7202 H   0  0  0  0  0  0  0  0  0  0  0  0
   22.8951   17.6754   14.7682 H   0  0  0  0  0  0  0  0  0  0  0  0
   23.9625   19.0477   16.2667 H   0  0  0  0  0  0  0  0  0  0  0  0
   25.3479   17.0760   16.7009 H   0  0  0  0  0  0  0  0  0  0  0  0
   26.4495   17.5287   15.3559 H   0  0  0  0  0  0  0  0  0  0  0  0
   25.8862   19.1436   17.8907 H   0  0  0  0  0  0  0  0  0  0  0  0
   27.4092   18.2631   17.4672 H   0  0  0  0  0  0  0  0  0  0  0  0
   26.4445   21.5338   15.0754 H   0  0  0  0  0  0  0  0  0  0  0  0
   20.6424   14.4370   15.4032 H   0  0  0  0  0  0  0  0  0  0  0  0
   20.1260   13.4448   12.9904 H   0  0  0  0  0  0  0  0  0  0  0  0
   21.4500   14.0396   10.3165 H   0  0  0  0  0  0  0  0  0  0  0  0
   22.4983   15.7176    5.8467 H   0  0  0  0  0  0  0  0  0  0  0  0
  1  2  1  0
  2  3  1  0
  3  4  2  0
  4  5  1  0
  5  6  1  0
  6  7  2  0
  6  8  2  0
  6  9  1  0
  9 10  2  0
 10 11  1  0
 11 12  1  0
 12 13  2  0
 12 14  1  0
 14 15  1  0
 15 16  1  0
 16 17  1  0
 17 18  1  0
 18 19  2  0
 18 20  1  0
 20 21  1  0
 21 22  2  0
 11 23  2  0
 23 24  1  0
 24 25  1  0
 25 26  2  0
 26 27  1  0
 27 28  2  0
  5 29  1  0
 29 30  2  0
 30  3  1  0
 28  9  1  0
 21 15  1  0
 27 23  1  0
  1 31  1  0
  1 32  1  0
  1 33  1  0
  2 34  1  0
  2 35  1  0
  4 36  1  0
 10 37  1  0
 14 38  1  0
 15 39  1  1
 16 40  1  0
 16 41  1  0
 17 42  1  0
 17 43  1  0
 20 44  1  0
 25 45  1  0
 26 46  1  0
 28 47  1  0
 29 48  1  0
M  END
>  <meeko>  (442) 
{"is_sidechain": [true], "free_energy": -10.82, "intermolecular_energy": 0.0, "internal_energy": -10.82, "cluster_size": 20, "cluster_id": 1, "rank_in_cluster": 1}

>  <_RMSD_MCS_to_ref>  (442) 
0.6980958227763422

$$$$
ligand
     RDKit          3D

 48 51  0  0  0  0  0  0  0  0999 V2000
   18.9090   19.1540    7.5370 C   0  0  0  0  0  0  0  0  0  0  0  0
   18.7730   17.6460    7.6780 C   0  0  0  0  0  0  0  0  0  0  0  0
   20.0560   16.9400    7.4180 C   0  0  0  0  0  0  0  0  0  0  0  0
   20.7310   16.0420    8.2210 C   0  0  0  0  0  0  0  0  0  0  0  0
   21.8350   15.7040    7.4890 N   0  0  0  0  0  0  0  0  0  0  0  0
   23.0760   14.6820    8.0030 S   0  0  0  0  0  6  0  0  0  0  0  0
   22.3600   13.5700    8.6150 O   0  0  0  0  0  0  0  0  0  0  0  0
   23.8910   14.4500    6.8230 O   0  0  0  0  0  0  0  0  0  0  0  0
   24.0160   15.4870    9.2170 C   0  0  0  0  0  0  0  0  0  0  0  0
   25.1710   16.0860    8.8550 C   0  0  0  0  0  0  0  0  0  0  0  0
   25.9880   16.7930    9.8260 C   0  0  0  0  0  0  0  0  0  0  0  0
   25.5710   16.8610   11.1010 C   0  0  0  0  0  0  0  0  0  0  0  0
   24.3670   16.2540   11.4750 N   0  0  0  0  0  0  0  0  0  0  0  0
   23.7330   16.1770   12.7080 C   0  0  0  0  0  0  0  0  0  0  0  0
   24.2080   16.7600   13.9400 C   0  0  0  0  0  0  0  0  0  0  0  0
   24.2010   16.1750   15.0190 O   0  0  0  0  0  0  0  0  0  0  0  0
   24.6730   18.0520   13.8430 N   0  0  0  0  0  0  0  0  0  0  0  0
   25.0620   18.8140   15.0230 C   0  0  1  0  0  0  0  0  0  0  0  0
   26.0820   18.0710   15.8800 C   0  0  0  0  0  0  0  0  0  0  0  0
   26.4740   18.9380   17.0660 C   0  0  0  0  0  0  0  0  0  0  0  0
   26.9900   20.2840   16.6160 C   0  0  0  0  0  0  0  0  0  0  0  0
   27.8670   20.8890   17.2250 O   0  0  0  0  0  0  0  0  0  0  0  0
   26.4060   20.8240   15.4990 N   0  0  0  0  0  0  0  0  0  0  0  0
   25.6730   20.1400   14.5610 C   0  0  0  0  0  0  0  0  0  0  0  0
   25.5140   20.5830   13.4250 O   0  0  0  0  0  0  0  0  0  0  0  0
   22.5810   15.4520   12.4520 C   0  0  0  0  0  0  0  0  0  0  0  0
   22.4910   15.0790   11.1400 N   0  0  0  0  0  0  0  0  0  0  0  0
   23.5660   15.5610   10.5630 C   0  0  0  0  0  0  0  0  0  0  0  0
   21.8300   16.4040    6.3260 C   0  0  0  0  0  0  0  0  0  0  0  0
   20.7470   17.1510    6.2410 N   0  0  0  0  0  0  0  0  0  0  0  0
   18.9504   19.6134    8.5356 H   0  0  0  0  0  0  0  0  0  0  0  0
   19.8320   19.3891    6.9867 H   0  0  0  0  0  0  0  0  0  0  0  0
   18.0430   19.5504    6.9867 H   0  0  0  0  0  0  0  0  0  0  0  0
   18.4420   17.4142    8.7011 H   0  0  0  0  0  0  0  0  0  0  0  0
   18.0407   17.3016    6.9329 H   0  0  0  0  0  0  0  0  0  0  0  0
   20.4458   15.6814    9.2203 H   0  0  0  0  0  0  0  0  0  0  0  0
   25.4989   16.0377    7.8061 H   0  0  0  0  0  0  0  0  0  0  0  0
   26.9337   17.2654    9.5218 H   0  0  0  0  0  0  0  0  0  0  0  0
   26.1753   17.3933   11.8503 H   0  0  0  0  0  0  0  0  0  0  0  0
   24.7478   18.4908   12.9142 H   0  0  0  0  0  0  0  0  0  0  0  0
   24.1648   18.9753   15.6386 H   0  0  0  0  0  0  0  0  0  0  0  0
   25.6409   17.1309   16.2428 H   0  0  0  0  0  0  0  0  0  0  0  0
   26.9748   17.8482   15.2773 H   0  0  0  0  0  0  0  0  0  0  0  0
   25.5925   19.0883   17.7067 H   0  0  0  0  0  0  0  0  0  0  0  0
   27.2754   18.4267   17.6195 H   0  0  0  0  0  0  0  0  0  0  0  0
   26.5285   21.8358   15.3500 H   0  0  0  0  0  0  0  0  0  0  0  0
   21.8274   15.2054   13.2145 H   0  0  0  0  0  0  0  0  0  0  0  0
   22.6192   16.3549    5.5614 H   0  0  0  0  0  0  0  0  0  0  0  0
  1  2  1  0
  2  3  1  0
  3  4  2  0
  4  5  1  0
  5  6  1  0
  6  7  2  0
  6  8  2  0
  6  9  1  0
  9 10  2  0
 10 11  1  0
 11 12  2  0
 12 13  1  0
 13 14  1  0
 14 15  1  0
 15 16  2  0
 15 17  1  0
 17 18  1  0
 18 19  1  0
 19 20  1  0
 20 21  1  0
 21 22  2  0
 21 23  1  0
 23 24  1  0
 24 25  2  0
 14 26  2  0
 26 27  1  0
 27 28  2  0
  5 29  1  0
 29 30  2  0
 30  3  1  0
 28  9  1  0
 28 13  1  0
 24 18  1  0
  1 31  1  0
  1 32  1  0
  1 33  1  0
  2 34  1  0
  2 35  1  0
  4 36  1  0
 10 37  1  0
 11 38  1  0
 12 39  1  0
 17 40  1  0
 18 41  1  1
 19 42  1  0
 19 43  1  0
 20 44  1  0
 20 45  1  0
 23 46  1  0
 26 47  1  0
 29 48  1  0
M  END
>  <meeko>  (443) 
{"is_sidechain": [true], "free_energy": -10.82, "intermolecular_energy": 0.0, "internal_energy": -10.82, "cluster_size": 11, "cluster_id": 1, "rank_in_cluster": 1}

>  <_RMSD_MCS_to_ref>  (443) 
0.623831619019819

$$$$
ligand
     RDKit          3D

 48 51  0  0  0  0  0  0  0  0999 V2000
   18.9090   19.1540    7.5370 C   0  0  0  0  0  0  0  0  0  0  0  0
   18.7730   17.6460    7.6780 C   0  0  0  0  0  0  0  0  0  0  0  0
   20.0030   16.9280    7.2460 C   0  0  0  0  0  0  0  0  0  0  0  0
   20.8350   16.1090    7.9840 C   0  0  0  0  0  0  0  0  0  0  0  0
   21.7910   15.7130    7.0930 N   0  0  0  0  0  0  0  0  0  0  0  0
   23.2030   14.8820    7.4660 S   0  0  0  0  0  6  0  0  0  0  0  0
   22.8940   13.4740    7.3060 O   0  0  0  0  0  0  0  0  0  0  0  0
   24.2550   15.5380    6.7140 O   0  0  0  0  0  0  0  0  0  0  0  0
   23.4390   15.2190    9.1980 C   0  0  0  0  0  0  0  0  0  0  0  0
   24.6190   15.9220    9.6020 C   0  0  0  0  0  0  0  0  0  0  0  0
   24.9100   16.2480   10.9440 C   0  0  0  0  0  0  0  0  0  0  0  0
   23.9190   15.7900   11.8160 C   0  0  0  0  0  0  0  0  0  0  0  0
   23.8790   15.9300   13.1860 C   0  0  0  0  0  0  0  0  0  0  0  0
   24.7310   16.4810   14.2030 C   0  0  0  0  0  0  0  0  0  0  0  0
   25.2020   15.7890   15.1010 O   0  0  0  0  0  0  0  0  0  0  0  0
   25.0430   17.8110   14.0760 N   0  0  0  0  0  0  0  0  0  0  0  0
   26.0310   18.4460   14.9380 C   0  0  2  0  0  0  0  0  0  0  0  0
   25.7340   18.2290   16.4180 C   0  0  0  0  0  0  0  0  0  0  0  0
   26.7720   18.9600   17.2560 C   0  0  0  0  0  0  0  0  0  0  0  0
   26.8300   20.4270   16.9030 C   0  0  0  0  0  0  0  0  0  0  0  0
   27.0760   21.2960   17.7330 O   0  0  0  0  0  0  0  0  0  0  0  0
   26.6190   20.7500   15.5860 N   0  0  0  0  0  0  0  0  0  0  0  0
   26.0260   19.9490   14.6440 C   0  0  0  0  0  0  0  0  0  0  0  0
   25.5320   20.4200   13.6200 O   0  0  0  0  0  0  0  0  0  0  0  0
   22.6630   15.3910   13.5310 N   0  0  0  0  0  0  0  0  0  0  0  0
   21.9700   14.8440   12.5180 N   0  0  0  0  0  0  0  0  0  0  0  0
   22.7110   15.0860   11.4310 C   0  0  0  0  0  0  0  0  0  0  0  0
   22.4440   14.7660   10.0910 C   0  0  0  0  0  0  0  0  0  0  0  0
   21.5580   16.3080    5.8960 C   0  0  0  0  0  0  0  0  0  0  0  0
   20.4700   17.0480    5.9510 N   0  0  0  0  0  0  0  0  0  0  0  0
   18.9504   19.6134    8.5356 H   0  0  0  0  0  0  0  0  0  0  0  0
   19.8320   19.3891    6.9867 H   0  0  0  0  0  0  0  0  0  0  0  0
   18.0430   19.5504    6.9867 H   0  0  0  0  0  0  0  0  0  0  0  0
   18.5742   17.4053    8.7328 H   0  0  0  0  0  0  0  0  0  0  0  0
   17.9461   17.3194    7.0303 H   0  0  0  0  0  0  0  0  0  0  0  0
   20.7475   15.8378    9.0464 H   0  0  0  0  0  0  0  0  0  0  0  0
   25.3369   16.2241    8.8252 H   0  0  0  0  0  0  0  0  0  0  0  0
   25.8082   16.7962   11.2646 H   0  0  0  0  0  0  0  0  0  0  0  0
   24.5682   18.3730   13.3552 H   0  0  0  0  0  0  0  0  0  0  0  0
   27.0120   17.9945   14.7288 H   0  0  0  0  0  0  0  0  0  0  0  0
   24.7326   18.6195   16.6521 H   0  0  0  0  0  0  0  0  0  0  0  0
   25.7705   17.1534   16.6454 H   0  0  0  0  0  0  0  0  0  0  0  0
   26.5102   18.8577   18.3195 H   0  0  0  0  0  0  0  0  0  0  0  0
   27.7573   18.5154   17.0525 H   0  0  0  0  0  0  0  0  0  0  0  0
   26.9353   21.6801   15.2764 H   0  0  0  0  0  0  0  0  0  0  0  0
   22.3078   15.4053   14.4977 H   0  0  0  0  0  0  0  0  0  0  0  0
   21.5476   14.2163    9.7682 H   0  0  0  0  0  0  0  0  0  0  0  0
   22.1901   16.1888    5.0036 H   0  0  0  0  0  0  0  0  0  0  0  0
  1  2  1  0
  2  3  1  0
  3  4  2  0
  4  5  1  0
  5  6  1  0
  6  7  2  0
  6  8  2  0
  6  9  1  0
  9 10  1  0
 10 11  2  0
 11 12  1  0
 12 13  2  0
 13 14  1  0
 14 15  2  0
 14 16  1  0
 16 17  1  0
 17 18  1  0
 18 19  1  0
 19 20  1  0
 20 21  2  0
 20 22  1  0
 22 23  1  0
 23 24  2  0
 13 25  1  0
 25 26  1  0
 26 27  2  0
 27 28  1  0
  5 29  1  0
 29 30  2  0
 30  3  1  0
 28  9  2  0
 27 12  1  0
 23 17  1  0
  1 31  1  0
  1 32  1  0
  1 33  1  0
  2 34  1  0
  2 35  1  0
  4 36  1  0
 10 37  1  0
 11 38  1  0
 16 39  1  0
 17 40  1  6
 18 41  1  0
 18 42  1  0
 19 43  1  0
 19 44  1  0
 22 45  1  0
 25 46  1  0
 28 47  1  0
 29 48  1  0
M  END
>  <meeko>  (444) 
{"is_sidechain": [true], "free_energy": -10.82, "intermolecular_energy": 0.0, "internal_energy": -10.82, "cluster_size": 19, "cluster_id": 1, "rank_in_cluster": 1}

>  <_RMSD_MCS_to_ref>  (444) 
0.882156070847632

$$$$
ligand
     RDKit          3D

 48 51  0  0  0  0  0  0  0  0999 V2000
   18.9090   19.1540    7.5370 C   0  0  0  0  0  0  0  0  0  0  0  0
   18.7730   17.6460    7.6780 C   0  0  0  0  0  0  0  0  0  0  0  0
   20.0620   16.9410    7.4390 C   0  0  0  0  0  0  0  0  0  0  0  0
   21.1290   16.7660    8.2990 C   0  0  0  0  0  0  0  0  0  0  0  0
   22.0480   16.0810    7.5570 N   0  0  0  0  0  0  0  0  0  0  0  0
   23.4430   15.3420    8.1570 S   0  0  0  0  0  6  0  0  0  0  0  0
   23.3100   13.9520    7.7580 O   0  0  0  0  0  0  0  0  0  0  0  0
   24.5310   16.1580    7.6490 O   0  0  0  0  0  0  0  0  0  0  0  0
   23.3620   15.4920    9.9020 C   0  0  0  0  0  0  0  0  0  0  0  0
   24.3830   16.2420   10.6280 C   0  0  0  0  0  0  0  0  0  0  0  0
   24.3000   16.3690   11.9720 C   0  0  0  0  0  0  0  0  0  0  0  0
   25.3750   17.1560   12.6470 C   0  0  0  0  0  0  0  0  0  0  0  0
   26.3630   17.5510   12.0320 O   0  0  0  0  0  0  0  0  0  0  0  0
   25.1920   17.4190   13.9760 N   0  0  0  0  0  0  0  0  0  0  0  0
   26.1240   18.2240   14.7470 C   0  0  2  0  0  0  0  0  0  0  0  0
   26.0060   17.9420   16.2420 C   0  0  0  0  0  0  0  0  0  0  0  0
   26.9950   18.8080   17.0050 C   0  0  0  0  0  0  0  0  0  0  0  0
   26.7920   20.2720   16.6960 C   0  0  0  0  0  0  0  0  0  0  0  0
   26.9980   21.1530   17.5250 O   0  0  0  0  0  0  0  0  0  0  0  0
   26.3960   20.5810   15.4200 N   0  0  0  0  0  0  0  0  0  0  0  0
   25.8630   19.7150   14.4950 C   0  0  0  0  0  0  0  0  0  0  0  0
   25.2430   20.1400   13.5230 O   0  0  0  0  0  0  0  0  0  0  0  0
   23.2290   15.7600   12.6470 N   0  0  0  0  0  0  0  0  0  0  0  0
   22.9700   15.7600   13.9870 N   0  0  0  0  0  0  0  0  0  0  0  0
   21.8430   15.0620   14.1270 C   0  0  0  0  0  0  0  0  0  0  0  0
   21.3450   14.5820   12.9080 C   0  0  0  0  0  0  0  0  0  0  0  0
   22.2400   15.0330   11.9680 C   0  0  0  0  0  0  0  0  0  0  0  0
   22.3320   14.9090   10.5510 C   0  0  0  0  0  0  0  0  0  0  0  0
   21.5180   15.8060    6.3370 C   0  0  0  0  0  0  0  0  0  0  0  0
   20.3140   16.3290    6.2270 N   0  0  0  0  0  0  0  0  0  0  0  0
   18.9504   19.6134    8.5356 H   0  0  0  0  0  0  0  0  0  0  0  0
   19.8320   19.3891    6.9867 H   0  0  0  0  0  0  0  0  0  0  0  0
   18.0430   19.5504    6.9867 H   0  0  0  0  0  0  0  0  0  0  0  0
   18.4263   17.4151    8.6961 H   0  0  0  0  0  0  0  0  0  0  0  0
   18.0530   17.2995    6.9220 H   0  0  0  0  0  0  0  0  0  0  0  0
   21.2179   17.1017    9.3427 H   0  0  0  0  0  0  0  0  0  0  0  0
   25.2192   16.7034   10.0822 H   0  0  0  0  0  0  0  0  0  0  0  0
   24.3625   17.0321   14.4484 H   0  0  0  0  0  0  0  0  0  0  0  0
   27.1404   17.9578   14.4213 H   0  0  0  0  0  0  0  0  0  0  0  0
   24.9839   18.1711   16.5780 H   0  0  0  0  0  0  0  0  0  0  0  0
   26.2276   16.8814   16.4318 H   0  0  0  0  0  0  0  0  0  0  0  0
   26.8552   18.6465   18.0840 H   0  0  0  0  0  0  0  0  0  0  0  0
   28.0131   18.5257   16.6988 H   0  0  0  0  0  0  0  0  0  0  0  0
   26.5094   21.5612   15.1248 H   0  0  0  0  0  0  0  0  0  0  0  0
   21.3555   14.8818   15.0965 H   0  0  0  0  0  0  0  0  0  0  0  0
   20.4402   13.9791   12.7411 H   0  0  0  0  0  0  0  0  0  0  0  0
   21.5714   14.3440    9.9921 H   0  0  0  0  0  0  0  0  0  0  0  0
   22.0238   15.2271    5.5503 H   0  0  0  0  0  0  0  0  0  0  0  0
  1  2  1  0
  2  3  1  0
  3  4  2  0
  4  5  1  0
  5  6  1  0
  6  7  2  0
  6  8  2  0
  6  9  1  0
  9 10  1  0
 10 11  2  0
 11 12  1  0
 12 13  2  0
 12 14  1  0
 14 15  1  0
 15 16  1  0
 16 17  1  0
 17 18  1  0
 18 19  2  0
 18 20  1  0
 20 21  1  0
 21 22  2  0
 11 23  1  0
 23 24  1  0
 24 25  2  0
 25 26  1  0
 26 27  2  0
 27 28  1  0
  5 29  1  0
 29 30  2  0
 30  3  1  0
 28  9  2  0
 21 15  1  0
 27 23  1  0
  1 31  1  0
  1 32  1  0
  1 33  1  0
  2 34  1  0
  2 35  1  0
  4 36  1  0
 10 37  1  0
 14 38  1  0
 15 39  1  6
 16 40  1  0
 16 41  1  0
 17 42  1  0
 17 43  1  0
 20 44  1  0
 25 45  1  0
 26 46  1  0
 28 47  1  0
 29 48  1  0
M  END
>  <meeko>  (445) 
{"is_sidechain": [true], "free_energy": -10.82, "intermolecular_energy": 0.0, "internal_energy": -10.82, "cluster_size": 20, "cluster_id": 1, "rank_in_cluster": 1}

>  <_RMSD_MCS_to_ref>  (445) 
0.738081522145984

$$$$
ligand
     RDKit          3D

 48 51  0  0  0  0  0  0  0  0999 V2000
   18.9090   19.1540    7.5370 C   0  0  0  0  0  0  0  0  0  0  0  0
   18.7730   17.6460    7.6780 C   0  0  0  0  0  0  0  0  0  0  0  0
   19.9120   16.9190    7.0550 C   0  0  0  0  0  0  0  0  0  0  0  0
   21.2280   16.8480    7.4660 C   0  0  0  0  0  0  0  0  0  0  0  0
   21.8350   16.0780    6.5150 N   0  0  0  0  0  0  0  0  0  0  0  0
   23.3870   15.4540    6.6090 S   0  0  0  0  0  6  0  0  0  0  0  0
   24.2920   16.5440    6.3060 O   0  0  0  0  0  0  0  0  0  0  0  0
   23.3790   14.1980    5.8930 O   0  0  0  0  0  0  0  0  0  0  0  0
   23.7350   15.0370    8.2900 C   0  0  0  0  0  0  0  0  0  0  0  0
   23.7450   13.8390    8.9900 C   0  0  0  0  0  0  0  0  0  0  0  0
   24.0960   14.1160   10.3370 C   0  0  0  0  0  0  0  0  0  0  0  0
   24.2680   13.3590   11.5070 C   0  0  0  0  0  0  0  0  0  0  0  0
   24.6290   14.0400   12.6710 C   0  0  0  0  0  0  0  0  0  0  0  0
   24.8020   15.4210   12.6180 C   0  0  0  0  0  0  0  0  0  0  0  0
   25.1830   16.1560   13.8720 C   0  0  0  0  0  0  0  0  0  0  0  0
   25.4850   15.5680   14.9040 O   0  0  0  0  0  0  0  0  0  0  0  0
   25.1510   17.5290   13.7640 N   0  0  0  0  0  0  0  0  0  0  0  0
   25.3200   18.4070   14.9070 C   0  0  1  0  0  0  0  0  0  0  0  0
   26.3300   17.8550   15.9070 C   0  0  0  0  0  0  0  0  0  0  0  0
   26.4790   18.8270   17.0670 C   0  0  0  0  0  0  0  0  0  0  0  0
   26.8650   20.2040   16.5820 C   0  0  0  0  0  0  0  0  0  0  0  0
   27.5830   20.9550   17.2360 O   0  0  0  0  0  0  0  0  0  0  0  0
   26.3420   20.6000   15.3780 N   0  0  0  0  0  0  0  0  0  0  0  0
   25.7970   19.7800   14.4200 C   0  0  0  0  0  0  0  0  0  0  0  0
   25.6920   20.1560   13.2530 O   0  0  0  0  0  0  0  0  0  0  0  0
   24.6480   16.2010   11.5080 N   0  0  0  0  0  0  0  0  0  0  0  0
   24.3010   15.4880   10.4230 C   0  0  0  0  0  0  0  0  0  0  0  0
   24.0890   16.0230    9.1840 N   0  0  0  0  0  0  0  0  0  0  0  0
   20.9030   15.6570    5.6220 C   0  0  0  0  0  0  0  0  0  0  0  0
   19.7240   16.1650    5.9120 N   0  0  0  0  0  0  0  0  0  0  0  0
   18.9504   19.6134    8.5356 H   0  0  0  0  0  0  0  0  0  0  0  0
   19.8320   19.3891    6.9867 H   0  0  0  0  0  0  0  0  0  0  0  0
   18.0430   19.5504    6.9867 H   0  0  0  0  0  0  0  0  0  0  0  0
   18.7331   17.3922    8.7476 H   0  0  0  0  0  0  0  0  0  0  0  0
   17.8524   17.3397    7.1597 H   0  0  0  0  0  0  0  0  0  0  0  0
   21.6836   17.3067    8.3559 H   0  0  0  0  0  0  0  0  0  0  0  0
   23.5198   12.8463    8.5731 H   0  0  0  0  0  0  0  0  0  0  0  0
   24.1235   12.2685   11.5065 H   0  0  0  0  0  0  0  0  0  0  0  0
   24.7745   13.4945   13.6151 H   0  0  0  0  0  0  0  0  0  0  0  0
   25.0012   17.9489   12.8355 H   0  0  0  0  0  0  0  0  0  0  0  0
   24.3485   18.4879   15.4165 H   0  0  0  0  0  0  0  0  0  0  0  0
   25.9780   16.8839   16.2854 H   0  0  0  0  0  0  0  0  0  0  0  0
   27.3031   17.7247   15.4109 H   0  0  0  0  0  0  0  0  0  0  0  0
   25.5220   18.8918   17.6055 H   0  0  0  0  0  0  0  0  0  0  0  0
   27.2743   18.4567   17.7306 H   0  0  0  0  0  0  0  0  0  0  0  0
   26.3594   21.6091   15.1721 H   0  0  0  0  0  0  0  0  0  0  0  0
   24.1809   17.0222    8.9514 H   0  0  0  0  0  0  0  0  0  0  0  0
   21.1050   14.9853    4.7747 H   0  0  0  0  0  0  0  0  0  0  0  0
  1  2  1  0
  2  3  1  0
  3  4  2  0
  4  5  1  0
  5  6  1  0
  6  7  2  0
  6  8  2  0
  6  9  1  0
  9 10  2  0
 10 11  1  0
 11 12  2  0
 12 13  1  0
 13 14  2  0
 14 15  1  0
 15 16  2  0
 15 17  1  0
 17 18  1  0
 18 19  1  0
 19 20  1  0
 20 21  1  0
 21 22  2  0
 21 23  1  0
 23 24  1  0
 24 25  2  0
 14 26  1  0
 26 27  2  0
 27 28  1  0
  5 29  1  0
 29 30  2  0
 30  3  1  0
 28  9  1  0
 27 11  1  0
 24 18  1  0
  1 31  1  0
  1 32  1  0
  1 33  1  0
  2 34  1  0
  2 35  1  0
  4 36  1  0
 10 37  1  0
 12 38  1  0
 13 39  1  0
 17 40  1  0
 18 41  1  1
 19 42  1  0
 19 43  1  0
 20 44  1  0
 20 45  1  0
 23 46  1  0
 28 47  1  0
 29 48  1  0
M  END
>  <meeko>  (446) 
{"is_sidechain": [true], "free_energy": -10.82, "intermolecular_energy": 0.0, "internal_energy": -10.82, "cluster_size": 19, "cluster_id": 1, "rank_in_cluster": 1}

>  <_RMSD_MCS_to_ref>  (446) 
0.5686687182456149

$$$$
ligand
     RDKit          3D

 48 51  0  0  0  0  0  0  0  0999 V2000
   18.9090   19.1540    7.5370 C   0  0  0  0  0  0  0  0  0  0  0  0
   18.7730   17.6460    7.6780 C   0  0  0  0  0  0  0  0  0  0  0  0
   20.0920   16.9580    7.6460 C   0  0  0  0  0  0  0  0  0  0  0  0
   21.0350   16.8400    8.6480 C   0  0  0  0  0  0  0  0  0  0  0  0
   22.0540   16.1390    8.0700 N   0  0  0  0  0  0  0  0  0  0  0  0
   23.3810   15.4620    8.8680 S   0  0  0  0  0  6  0  0  0  0  0  0
   24.4510   16.4260    8.6850 O   0  0  0  0  0  0  0  0  0  0  0  0
   23.4920   14.1370    8.2840 O   0  0  0  0  0  0  0  0  0  0  0  0
   22.9450   15.3460   10.5420 C   0  0  0  0  0  0  0  0  0  0  0  0
   23.7940   15.8480   11.4630 C   0  0  0  0  0  0  0  0  0  0  0  0
   23.4750   15.7390   12.8860 C   0  0  0  0  0  0  0  0  0  0  0  0
   24.4530   16.2610   13.8910 C   0  0  0  0  0  0  0  0  0  0  0  0
   25.0020   15.5060   14.6850 O   0  0  0  0  0  0  0  0  0  0  0  0
   24.7260   17.6020   13.8090 N   0  0  0  0  0  0  0  0  0  0  0  0
   25.7810   18.2090   14.6090 C   0  0  2  0  0  0  0  0  0  0  0  0
   25.6010   17.9450   16.1000 C   0  0  0  0  0  0  0  0  0  0  0  0
   26.7100   18.6390   16.8750 C   0  0  0  0  0  0  0  0  0  0  0  0
   26.7540   20.1180   16.5670 C   0  0  0  0  0  0  0  0  0  0  0  0
   27.0730   20.9570   17.4030 O   0  0  0  0  0  0  0  0  0  0  0  0
   26.4450   20.4860   15.2810 N   0  0  0  0  0  0  0  0  0  0  0  0
   25.7680   19.7210   14.3650 C   0  0  0  0  0  0  0  0  0  0  0  0
   25.1970   20.2320   13.4020 O   0  0  0  0  0  0  0  0  0  0  0  0
   22.3560   15.1060   13.2890 C   0  0  0  0  0  0  0  0  0  0  0  0
   21.4510   14.5810   12.3270 C   0  0  0  0  0  0  0  0  0  0  0  0
   20.3130   13.9450   12.4980 N   0  0  0  0  0  0  0  0  0  0  0  0
   19.8530   13.6750   11.2410 C   0  0  0  0  0  0  0  0  0  0  0  0
   20.7250   14.1450   10.2880 C   0  0  0  0  0  0  0  0  0  0  0  0
   21.7690   14.7230   10.9720 N   0  0  0  0  0  0  0  0  0  0  0  0
   21.7050   15.8170    6.7970 C   0  0  0  0  0  0  0  0  0  0  0  0
   20.5190   16.3070    6.5070 N   0  0  0  0  0  0  0  0  0  0  0  0
   18.9504   19.6134    8.5356 H   0  0  0  0  0  0  0  0  0  0  0  0
   19.8320   19.3891    6.9867 H   0  0  0  0  0  0  0  0  0  0  0  0
   18.0430   19.5504    6.9867 H   0  0  0  0  0  0  0  0  0  0  0  0
   18.2799   17.4226    8.6356 H   0  0  0  0  0  0  0  0  0  0  0  0
   18.1797   17.2791    6.8275 H   0  0  0  0  0  0  0  0  0  0  0  0
   20.9781   17.2235    9.6774 H   0  0  0  0  0  0  0  0  0  0  0  0
   24.7252   16.3388   11.1436 H   0  0  0  0  0  0  0  0  0  0  0  0
   24.1745   18.1916   13.1694 H   0  0  0  0  0  0  0  0  0  0  0  0
   26.7391   17.7616   14.3058 H   0  0  0  0  0  0  0  0  0  0  0  0
   24.6258   18.3354   16.4264 H   0  0  0  0  0  0  0  0  0  0  0  0
   25.6441   16.8621   16.2885 H   0  0  0  0  0  0  0  0  0  0  0  0
   26.5337   18.5026   17.9522 H   0  0  0  0  0  0  0  0  0  0  0  0
   27.6713   18.1942   16.5781 H   0  0  0  0  0  0  0  0  0  0  0  0
   26.7491   21.4216   14.9760 H   0  0  0  0  0  0  0  0  0  0  0  0
   22.1428   14.9955   14.3625 H   0  0  0  0  0  0  0  0  0  0  0  0
   18.9110   13.1516   11.0206 H   0  0  0  0  0  0  0  0  0  0  0  0
   20.6107   14.0732    9.1963 H   0  0  0  0  0  0  0  0  0  0  0  0
   22.3268   15.2291    6.1058 H   0  0  0  0  0  0  0  0  0  0  0  0
  1  2  1  0
  2  3  1  0
  3  4  2  0
  4  5  1  0
  5  6  1  0
  6  7  2  0
  6  8  2  0
  6  9  1  0
  9 10  2  0
 10 11  1  0
 11 12  1  0
 12 13  2  0
 12 14  1  0
 14 15  1  0
 15 16  1  0
 16 17  1  0
 17 18  1  0
 18 19  2  0
 18 20  1  0
 20 21  1  0
 21 22  2  0
 11 23  2  0
 23 24  1  0
 24 25  2  0
 25 26  1  0
 26 27  2  0
 27 28  1  0
  5 29  1  0
 29 30  2  0
 30  3  1  0
 28  9  1  0
 21 15  1  0
 28 24  1  0
  1 31  1  0
  1 32  1  0
  1 33  1  0
  2 34  1  0
  2 35  1  0
  4 36  1  0
 10 37  1  0
 14 38  1  0
 15 39  1  6
 16 40  1  0
 16 41  1  0
 17 42  1  0
 17 43  1  0
 20 44  1  0
 23 45  1  0
 26 46  1  0
 27 47  1  0
 29 48  1  0
M  END
>  <meeko>  (447) 
{"is_sidechain": [true], "free_energy": -10.82, "intermolecular_energy": 0.0, "internal_energy": -10.82, "cluster_size": 20, "cluster_id": 1, "rank_in_cluster": 1}

>  <_RMSD_MCS_to_ref>  (447) 
0.5529358009751223

$$$$
ligand
     RDKit          3D

 47 50  0  0  0  0  0  0  0  0999 V2000
   18.9090   19.1540    7.5370 C   0  0  0  0  0  0  0  0  0  0  0  0
   18.7730   17.6460    7.6780 C   0  0  0  0  0  0  0  0  0  0  0  0
   20.0920   16.9580    7.6380 C   0  0  0  0  0  0  0  0  0  0  0  0
   21.0170   16.7960    8.6500 C   0  0  0  0  0  0  0  0  0  0  0  0
   22.0310   16.0930    8.0640 N   0  0  0  0  0  0  0  0  0  0  0  0
   23.4640   15.6360    8.8110 S   0  0  0  0  0  6  0  0  0  0  0  0
   23.7620   14.3270    8.2550 O   0  0  0  0  0  0  0  0  0  0  0  0
   24.3850   16.7470    8.6850 O   0  0  0  0  0  0  0  0  0  0  0  0
   23.1090   15.4070   10.5230 C   0  0  0  0  0  0  0  0  0  0  0  0
   24.0120   15.9340   11.4650 C   0  0  0  0  0  0  0  0  0  0  0  0
   23.7770   15.7740   12.8300 C   0  0  0  0  0  0  0  0  0  0  0  0
   24.7040   16.3220   13.8600 C   0  0  0  0  0  0  0  0  0  0  0  0
   25.2230   15.5750   14.6810 O   0  0  0  0  0  0  0  0  0  0  0  0
   24.9590   17.6730   13.8070 N   0  0  0  0  0  0  0  0  0  0  0  0
   25.9590   18.2800   14.6770 C   0  0  2  0  0  0  0  0  0  0  0  0
   25.6780   18.0120   16.1510 C   0  0  0  0  0  0  0  0  0  0  0  0
   26.7310   18.7040   17.0020 C   0  0  0  0  0  0  0  0  0  0  0  0
   26.7950   20.1840   16.7020 C   0  0  0  0  0  0  0  0  0  0  0  0
   27.0710   21.0180   17.5590 O   0  0  0  0  0  0  0  0  0  0  0  0
   26.5620   20.5580   15.4030 N   0  0  0  0  0  0  0  0  0  0  0  0
   25.9610   19.7920   14.4350 C   0  0  0  0  0  0  0  0  0  0  0  0
   25.4740   20.3030   13.4260 O   0  0  0  0  0  0  0  0  0  0  0  0
   22.6250   15.1080   13.2760 C   0  0  0  0  0  0  0  0  0  0  0  0
   21.7320   14.5930   12.3200 C   0  0  0  0  0  0  0  0  0  0  0  0
   20.2600   13.7320   12.5780 S   0  0  0  0  0  0  0  0  0  0  0  0
   20.0390   13.6210   10.8870 C   0  0  0  0  0  0  0  0  0  0  0  0
   20.9730   14.1730   10.1460 N   0  0  0  0  0  0  0  0  0  0  0  0
   21.9520   14.7300   10.9460 C   0  0  0  0  0  0  0  0  0  0  0  0
   21.7220   15.8610    6.7630 C   0  0  0  0  0  0  0  0  0  0  0  0
   20.5420   16.3710    6.4710 N   0  0  0  0  0  0  0  0  0  0  0  0
   18.9504   19.6134    8.5356 H   0  0  0  0  0  0  0  0  0  0  0  0
   19.8320   19.3891    6.9867 H   0  0  0  0  0  0  0  0  0  0  0  0
   18.0430   19.5504    6.9867 H   0  0  0  0  0  0  0  0  0  0  0  0
   18.2854   17.4222    8.6383 H   0  0  0  0  0  0  0  0  0  0  0  0
   18.1744   17.2796    6.8310 H   0  0  0  0  0  0  0  0  0  0  0  0
   20.9523   17.1513    9.6890 H   0  0  0  0  0  0  0  0  0  0  0  0
   24.9070   16.4744   11.1230 H   0  0  0  0  0  0  0  0  0  0  0  0
   24.4366   18.2632   13.1440 H   0  0  0  0  0  0  0  0  0  0  0  0
   26.9364   17.8354   14.4383 H   0  0  0  0  0  0  0  0  0  0  0  0
   24.6826   18.4012   16.4111 H   0  0  0  0  0  0  0  0  0  0  0  0
   25.7088   16.9286   16.3389 H   0  0  0  0  0  0  0  0  0  0  0  0
   26.4815   18.5643   18.0642 H   0  0  0  0  0  0  0  0  0  0  0  0
   27.7106   18.2605   16.7703 H   0  0  0  0  0  0  0  0  0  0  0  0
   26.8667   21.5026   15.1278 H   0  0  0  0  0  0  0  0  0  0  0  0
   22.4249   14.9913   14.3513 H   0  0  0  0  0  0  0  0  0  0  0  0
   19.1666   13.1173   10.4452 H   0  0  0  0  0  0  0  0  0  0  0  0
   22.3659   15.3228    6.0519 H   0  0  0  0  0  0  0  0  0  0  0  0
  1  2  1  0
  2  3  1  0
  3  4  2  0
  4  5  1  0
  5  6  1  0
  6  7  2  0
  6  8  2  0
  6  9  1  0
  9 10  2  0
 10 11  1  0
 11 12  1  0
 12 13  2  0
 12 14  1  0
 14 15  1  0
 15 16  1  0
 16 17  1  0
 17 18  1  0
 18 19  2  0
 18 20  1  0
 20 21  1  0
 21 22  2  0
 11 23  2  0
 23 24  1  0
 24 25  1  0
 25 26  1  0
 26 27  2  0
 27 28  1  0
  5 29  1  0
 29 30  2  0
 30  3  1  0
 28  9  1  0
 21 15  1  0
 28 24  2  0
  1 31  1  0
  1 32  1  0
  1 33  1  0
  2 34  1  0
  2 35  1  0
  4 36  1  0
 10 37  1  0
 14 38  1  0
 15 39  1  6
 16 40  1  0
 16 41  1  0
 17 42  1  0
 17 43  1  0
 20 44  1  0
 23 45  1  0
 26 46  1  0
 29 47  1  0
M  END
>  <meeko>  (448) 
{"is_sidechain": [true], "free_energy": -10.82, "intermolecular_energy": 0.0, "internal_energy": -10.82, "cluster_size": 20, "cluster_id": 1, "rank_in_cluster": 1}

>  <_RMSD_MCS_to_ref>  (448) 
0.6926693134373558

$$$$
ligand
     RDKit          3D

 51 54  0  0  0  0  0  0  0  0999 V2000
   18.9090   19.1540    7.5370 C   0  0  0  0  0  0  0  0  0  0  0  0
   18.7730   17.6460    7.6780 C   0  0  0  0  0  0  0  0  0  0  0  0
   20.0170   16.9310    7.2820 C   0  0  0  0  0  0  0  0  0  0  0  0
   21.2100   16.8170    7.9680 C   0  0  0  0  0  0  0  0  0  0  0  0
   22.0050   16.0800    7.1370 N   0  0  0  0  0  0  0  0  0  0  0  0
   23.5090   15.4450    7.5270 S   0  0  0  0  0  6  0  0  0  0  0  0
   24.4820   16.4000    7.0310 O   0  0  0  0  0  0  0  0  0  0  0  0
   23.4860   14.0620    7.0930 O   0  0  0  0  0  0  0  0  0  0  0  0
   23.5340   15.4810    9.2980 C   0  0  0  0  0  0  0  0  0  0  0  0
   24.5670   16.1480    9.9610 C   0  0  0  0  0  0  0  0  0  0  0  0
   24.5810   16.1820   11.3590 C   0  0  0  0  0  0  0  0  0  0  0  0
   23.5690   15.5590   12.1020 C   0  0  0  0  0  0  0  0  0  0  0  0
   23.5260   15.5680   13.5780 C   0  0  0  0  0  0  0  0  0  0  0  0
   24.6010   16.1620   14.4230 C   0  0  0  0  0  0  0  0  0  0  0  0
   25.4130   15.4690   15.0220 O   0  0  0  0  0  0  0  0  0  0  0  0
   24.6300   17.5340   14.4290 N   0  0  0  0  0  0  0  0  0  0  0  0
   25.7120   18.2680   15.0710 C   0  0  2  0  0  0  0  0  0  0  0  0
   25.7050   18.0970   16.5860 C   0  0  0  0  0  0  0  0  0  0  0  0
   26.8330   18.9180   17.1940 C   0  0  0  0  0  0  0  0  0  0  0  0
   26.7350   20.3690   16.7900 C   0  0  0  0  0  0  0  0  0  0  0  0
   27.0780   21.2850   17.5330 O   0  0  0  0  0  0  0  0  0  0  0  0
   26.2680   20.6260   15.5250 N   0  0  0  0  0  0  0  0  0  0  0  0
   25.5600   19.7550   14.7360 C   0  0  0  0  0  0  0  0  0  0  0  0
   24.8590   20.1580   13.8090 O   0  0  0  0  0  0  0  0  0  0  0  0
   22.5260   14.9470   14.2240 C   0  0  0  0  0  0  0  0  0  0  0  0
   21.4310   14.2800   13.4900 C   0  0  0  0  0  0  0  0  0  0  0  0
   20.5130   13.7370   14.0960 O   0  0  0  0  0  0  0  0  0  0  0  0
   21.4960   14.3000   12.1270 N   0  0  0  0  0  0  0  0  0  0  0  0
   22.5310   14.9120   11.4090 C   0  0  0  0  0  0  0  0  0  0  0  0
   22.5030   14.8700   10.0150 C   0  0  0  0  0  0  0  0  0  0  0  0
   21.2950   15.7340    6.0330 C   0  0  0  0  0  0  0  0  0  0  0  0
   20.0820   16.2440    6.0850 N   0  0  0  0  0  0  0  0  0  0  0  0
   18.9504   19.6134    8.5356 H   0  0  0  0  0  0  0  0  0  0  0  0
   19.8320   19.3891    6.9867 H   0  0  0  0  0  0  0  0  0  0  0  0
   18.0430   19.5504    6.9867 H   0  0  0  0  0  0  0  0  0  0  0  0
   18.5457   17.4072    8.7274 H   0  0  0  0  0  0  0  0  0  0  0  0
   17.9651   17.3152    7.0087 H   0  0  0  0  0  0  0  0  0  0  0  0
   21.4624   17.2261    8.9574 H   0  0  0  0  0  0  0  0  0  0  0  0
   25.3642   16.6432    9.3872 H   0  0  0  0  0  0  0  0  0  0  0  0
   25.3960   16.7040   11.8817 H   0  0  0  0  0  0  0  0  0  0  0  0
   23.8702   18.0560   13.9696 H   0  0  0  0  0  0  0  0  0  0  0  0
   26.6653   17.8686   14.6946 H   0  0  0  0  0  0  0  0  0  0  0  0
   24.7416   18.4420   16.9896 H   0  0  0  0  0  0  0  0  0  0  0  0
   25.8480   17.0354   16.8360 H   0  0  0  0  0  0  0  0  0  0  0  0
   26.7773   18.8468   18.2903 H   0  0  0  0  0  0  0  0  0  0  0  0
   27.7898   18.5192   16.8261 H   0  0  0  0  0  0  0  0  0  0  0  0
   26.4672   21.5572   15.1325 H   0  0  0  0  0  0  0  0  0  0  0  0
   22.5220   14.9346   15.3239 H   0  0  0  0  0  0  0  0  0  0  0  0
   20.7423   13.8396   11.5971 H   0  0  0  0  0  0  0  0  0  0  0  0
   21.6810   14.3631    9.4883 H   0  0  0  0  0  0  0  0  0  0  0  0
   21.6793   15.1140    5.2097 H   0  0  0  0  0  0  0  0  0  0  0  0
  1  2  1  0
  2  3  1  0
  3  4  2  0
  4  5  1  0
  5  6  1  0
  6  7  2  0
  6  8  2  0
  6  9  1  0
  9 10  2  0
 10 11  1  0
 11 12  2  0
 12 13  1  0
 13 14  1  0
 14 15  2  0
 14 16  1  0
 16 17  1  0
 17 18  1  0
 18 19  1  0
 19 20  1  0
 20 21  2  0
 20 22  1  0
 22 23  1  0
 23 24  2  0
 13 25  2  0
 25 26  1  0
 26 27  2  0
 26 28  1  0
 28 29  1  0
 29 30  2  0
  5 31  1  0
 31 32  2  0
 32  3  1  0
 30  9  1  0
 29 12  1  0
 23 17  1  0
  1 33  1  0
  1 34  1  0
  1 35  1  0
  2 36  1  0
  2 37  1  0
  4 38  1  0
 10 39  1  0
 11 40  1  0
 16 41  1  0
 17 42  1  6
 18 43  1  0
 18 44  1  0
 19 45  1  0
 19 46  1  0
 22 47  1  0
 25 48  1  0
 28 49  1  0
 30 50  1  0
 31 51  1  0
M  END
>  <meeko>  (449) 
{"is_sidechain": [true], "free_energy": -10.82, "intermolecular_energy": 0.0, "internal_energy": -10.82, "cluster_size": 20, "cluster_id": 1, "rank_in_cluster": 1}

>  <_RMSD_MCS_to_ref>  (449) 
0.7305825681529013

$$$$
ligand
     RDKit          3D

 51 54  0  0  0  0  0  0  0  0999 V2000
   18.9090   19.1540    7.5370 C   0  0  0  0  0  0  0  0  0  0  0  0
   18.7730   17.6460    7.6780 C   0  0  0  0  0  0  0  0  0  0  0  0
   20.0870   16.9530    7.5930 C   0  0  0  0  0  0  0  0  0  0  0  0
   20.9690   16.6350    8.6080 C   0  0  0  0  0  0  0  0  0  0  0  0
   21.9930   15.9950    7.9730 N   0  0  0  0  0  0  0  0  0  0  0  0
   23.4700   15.5710    8.6550 S   0  0  0  0  0  6  0  0  0  0  0  0
   24.3650   16.6710    8.3570 O   0  0  0  0  0  0  0  0  0  0  0  0
   23.7370   14.2110    8.2370 O   0  0  0  0  0  0  0  0  0  0  0  0
   23.1520   15.5610   10.3990 C   0  0  0  0  0  0  0  0  0  0  0  0
   22.1710   14.7180   10.9220 C   0  0  0  0  0  0  0  0  0  0  0  0
   21.9330   14.7240   12.2960 C   0  0  0  0  0  0  0  0  0  0  0  0
   22.6520   15.5720   13.1540 C   0  0  0  0  0  0  0  0  0  0  0  0
   23.6230   16.4400   12.6180 C   0  0  0  0  0  0  0  0  0  0  0  0
   24.4490   17.3920   13.4250 C   0  0  0  0  0  0  0  0  0  0  0  0
   25.5860   17.6770   13.0580 O   0  0  0  0  0  0  0  0  0  0  0  0
   23.8960   17.9180   14.5640 N   0  0  0  0  0  0  0  0  0  0  0  0
   24.6610   18.7230   15.5020 C   0  0  1  0  0  0  0  0  0  0  0  0
   25.7830   17.9260   16.1580 C   0  0  0  0  0  0  0  0  0  0  0  0
   26.5640   18.8310   17.1000 C   0  0  0  0  0  0  0  0  0  0  0  0
   27.0870   20.0510   16.3790 C   0  0  0  0  0  0  0  0  0  0  0  0
   28.1530   20.5820   16.6730 O   0  0  0  0  0  0  0  0  0  0  0  0
   26.2920   20.5680   15.3880 N   0  0  0  0  0  0  0  0  0  0  0  0
   25.2670   19.9130   14.7500 C   0  0  0  0  0  0  0  0  0  0  0  0
   24.8650   20.2870   13.6470 O   0  0  0  0  0  0  0  0  0  0  0  0
   23.8670   16.4250   11.2330 C   0  0  0  0  0  0  0  0  0  0  0  0
   22.3930   15.6210   14.4990 O   0  0  0  0  0  0  0  0  0  0  0  0
   21.6820   14.5140   15.0360 C   0  0  0  0  0  0  0  0  0  0  0  0
   20.7080   13.7590   14.1420 C   0  0  0  0  0  0  0  0  0  0  0  0
   19.8130   13.0360   14.5720 O   0  0  0  0  0  0  0  0  0  0  0  0
   20.9410   13.8820   12.8010 N   0  0  0  0  0  0  0  0  0  0  0  0
   21.7480   15.9750    6.6380 C   0  0  0  0  0  0  0  0  0  0  0  0
   20.5910   16.5460    6.3730 N   0  0  0  0  0  0  0  0  0  0  0  0
   18.9504   19.6134    8.5356 H   0  0  0  0  0  0  0  0  0  0  0  0
   19.8320   19.3891    6.9867 H   0  0  0  0  0  0  0  0  0  0  0  0
   18.0430   19.5504    6.9867 H   0  0  0  0  0  0  0  0  0  0  0  0
   18.3163   17.4211    8.6531 H   0  0  0  0  0  0  0  0  0  0  0  0
   18.1462   17.2844    6.8495 H   0  0  0  0  0  0  0  0  0  0  0  0
   20.8685   16.8489    9.6823 H   0  0  0  0  0  0  0  0  0  0  0  0
   21.5929   14.0573   10.2592 H   0  0  0  0  0  0  0  0  0  0  0  0
   22.9018   17.7360   14.7624 H   0  0  0  0  0  0  0  0  0  0  0  0
   23.9796   19.0609   16.2967 H   0  0  0  0  0  0  0  0  0  0  0  0
   25.3536   17.0880   16.7266 H   0  0  0  0  0  0  0  0  0  0  0  0
   26.4574   17.5349   15.3819 H   0  0  0  0  0  0  0  0  0  0  0  0
   25.9026   19.1537   17.9176 H   0  0  0  0  0  0  0  0  0  0  0  0
   27.4214   18.2657   17.4940 H   0  0  0  0  0  0  0  0  0  0  0  0
   26.4812   21.5372   15.0951 H   0  0  0  0  0  0  0  0  0  0  0  0
   24.6248   17.0970   10.8038 H   0  0  0  0  0  0  0  0  0  0  0  0
   22.4312   13.7871   15.3827 H   0  0  0  0  0  0  0  0  0  0  0  0
   21.0389   14.9624   15.8076 H   0  0  0  0  0  0  0  0  0  0  0  0
   20.3668   13.3364   12.1426 H   0  0  0  0  0  0  0  0  0  0  0  0
   22.4213   15.5425    5.8833 H   0  0  0  0  0  0  0  0  0  0  0  0
  1  2  1  0
  2  3  1  0
  3  4  2  0
  4  5  1  0
  5  6  1  0
  6  7  2  0
  6  8  2  0
  6  9  1  0
  9 10  2  0
 10 11  1  0
 11 12  2  0
 12 13  1  0
 13 14  1  0
 14 15  2  0
 14 16  1  0
 16 17  1  0
 17 18  1  0
 18 19  1  0
 19 20  1  0
 20 21  2  0
 20 22  1  0
 22 23  1  0
 23 24  2  0
 13 25  2  0
 12 26  1  0
 26 27  1  0
 27 28  1  0
 28 29  2  0
 28 30  1  0
  5 31  1  0
 31 32  2  0
 32  3  1  0
 25  9  1  0
 30 11  1  0
 23 17  1  0
  1 33  1  0
  1 34  1  0
  1 35  1  0
  2 36  1  0
  2 37  1  0
  4 38  1  0
 10 39  1  0
 16 40  1  0
 17 41  1  1
 18 42  1  0
 18 43  1  0
 19 44  1  0
 19 45  1  0
 22 46  1  0
 25 47  1  0
 27 48  1  0
 27 49  1  0
 30 50  1  0
 31 51  1  0
M  END
>  <meeko>  (450) 
{"is_sidechain": [true], "free_energy": -10.82, "intermolecular_energy": 0.0, "internal_energy": -10.82, "cluster_size": 20, "cluster_id": 1, "rank_in_cluster": 1}

>  <_RMSD_MCS_to_ref>  (450) 
0.7147314180865424

$$$$
ligand
     RDKit          3D

 54 57  0  0  0  0  0  0  0  0999 V2000
   18.9090   19.1540    7.5370 C   0  0  0  0  0  0  0  0  0  0  0  0
   18.7730   17.6460    7.6780 C   0  0  0  0  0  0  0  0  0  0  0  0
   20.0930   16.9600    7.6410 C   0  0  0  0  0  0  0  0  0  0  0  0
   21.0360   16.8350    8.6420 C   0  0  0  0  0  0  0  0  0  0  0  0
   22.0370   16.1040    8.0680 N   0  0  0  0  0  0  0  0  0  0  0  0
   23.4060   15.5340    8.8550 S   0  0  0  0  0  6  0  0  0  0  0  0
   24.3500   16.6330    8.7460 O   0  0  0  0  0  0  0  0  0  0  0  0
   23.6890   14.2200    8.3150 O   0  0  0  0  0  0  0  0  0  0  0  0
   22.9580   15.3580   10.5690 C   0  0  0  0  0  0  0  0  0  0  0  0
   23.8550   15.8760   11.5120 C   0  0  0  0  0  0  0  0  0  0  0  0
   23.5630   15.7800   12.8680 C   0  0  0  0  0  0  0  0  0  0  0  0
   24.5360   16.3350   13.8480 C   0  0  0  0  0  0  0  0  0  0  0  0
   25.0650   15.5990   14.6710 O   0  0  0  0  0  0  0  0  0  0  0  0
   24.8210   17.6780   13.7490 N   0  0  0  0  0  0  0  0  0  0  0  0
   25.8570   18.2870   14.5720 C   0  0  2  0  0  0  0  0  0  0  0  0
   25.6610   17.9870   16.0550 C   0  0  0  0  0  0  0  0  0  0  0  0
   26.7490   18.6800   16.8600 C   0  0  0  0  0  0  0  0  0  0  0  0
   26.7740   20.1670   16.5860 C   0  0  0  0  0  0  0  0  0  0  0  0
   27.0830   20.9900   17.4420 O   0  0  0  0  0  0  0  0  0  0  0  0
   26.4640   20.5610   15.3090 N   0  0  0  0  0  0  0  0  0  0  0  0
   25.8240   19.8040   14.3590 C   0  0  0  0  0  0  0  0  0  0  0  0
   25.2750   20.3260   13.3890 O   0  0  0  0  0  0  0  0  0  0  0  0
   22.3900   15.1320   13.2650 C   0  0  0  0  0  0  0  0  0  0  0  0
   21.4740   14.5880   12.3290 C   0  0  0  0  0  0  0  0  0  0  0  0
   21.7560   14.7290   10.9590 C   0  0  0  0  0  0  0  0  0  0  0  0
   21.0090   14.2400    9.9300 O   0  0  0  0  0  0  0  0  0  0  0  0
   19.5940   14.3410   10.0710 C   0  0  0  0  0  0  0  0  0  0  0  0
   19.1050   13.1530   10.8620 C   0  0  0  0  0  0  0  0  0  0  0  0
   19.2680   13.3490   12.2790 N   0  0  0  0  0  0  0  0  0  0  0  0
   20.3170   13.8820   12.9690 C   0  0  0  0  0  0  0  0  0  0  0  0
   20.2730   13.7840   14.1960 O   0  0  0  0  0  0  0  0  0  0  0  0
   21.7130   15.8370    6.7770 C   0  0  0  0  0  0  0  0  0  0  0  0
   20.5210   16.3220    6.4920 N   0  0  0  0  0  0  0  0  0  0  0  0
   18.9504   19.6134    8.5356 H   0  0  0  0  0  0  0  0  0  0  0  0
   19.8320   19.3891    6.9867 H   0  0  0  0  0  0  0  0  0  0  0  0
   18.0430   19.5504    6.9867 H   0  0  0  0  0  0  0  0  0  0  0  0
   18.2834   17.4220    8.6372 H   0  0  0  0  0  0  0  0  0  0  0  0
   18.1759   17.2786    6.8303 H   0  0  0  0  0  0  0  0  0  0  0  0
   20.9913   17.2328    9.6666 H   0  0  0  0  0  0  0  0  0  0  0  0
   24.7872   16.3571   11.1809 H   0  0  0  0  0  0  0  0  0  0  0  0
   24.2939   18.2609   13.0832 H   0  0  0  0  0  0  0  0  0  0  0  0
   26.8267   17.8644   14.2703 H   0  0  0  0  0  0  0  0  0  0  0  0
   24.6757   18.3555   16.3766 H   0  0  0  0  0  0  0  0  0  0  0  0
   25.7178   16.9010   16.2202 H   0  0  0  0  0  0  0  0  0  0  0  0
   26.5610   18.5164   17.9314 H   0  0  0  0  0  0  0  0  0  0  0  0
   27.7208   18.2568   16.5658 H   0  0  0  0  0  0  0  0  0  0  0  0
   26.7375   21.5160   15.0369 H   0  0  0  0  0  0  0  0  0  0  0  0
   22.1701   15.0410   14.3389 H   0  0  0  0  0  0  0  0  0  0  0  0
   19.3395   15.2702   10.6018 H   0  0  0  0  0  0  0  0  0  0  0  0
   19.1169   14.3558    9.0800 H   0  0  0  0  0  0  0  0  0  0  0  0
   18.0382   12.9957   10.6449 H   0  0  0  0  0  0  0  0  0  0  0  0
   19.7023   12.2775   10.5675 H   0  0  0  0  0  0  0  0  0  0  0  0
   18.4740   13.0407   12.8581 H   0  0  0  0  0  0  0  0  0  0  0  0
   22.3548   15.2926    6.0686 H   0  0  0  0  0  0  0  0  0  0  0  0
  1  2  1  0
  2  3  1  0
  3  4  2  0
  4  5  1  0
  5  6  1  0
  6  7  2  0
  6  8  2  0
  6  9  1  0
  9 10  2  0
 10 11  1  0
 11 12  1  0
 12 13  2  0
 12 14  1  0
 14 15  1  0
 15 16  1  0
 16 17  1  0
 17 18  1  0
 18 19  2  0
 18 20  1  0
 20 21  1  0
 21 22  2  0
 11 23  2  0
 23 24  1  0
 24 25  2  0
 25 26  1  0
 26 27  1  0
 27 28  1  0
 28 29  1  0
 29 30  1  0
 30 31  2  0
  5 32  1  0
 32 33  2  0
 33  3  1  0
 25  9  1  0
 21 15  1  0
 30 24  1  0
  1 34  1  0
  1 35  1  0
  1 36  1  0
  2 37  1  0
  2 38  1  0
  4 39  1  0
 10 40  1  0
 14 41  1  0
 15 42  1  6
 16 43  1  0
 16 44  1  0
 17 45  1  0
 17 46  1  0
 20 47  1  0
 23 48  1  0
 27 49  1  0
 27 50  1  0
 28 51  1  0
 28 52  1  0
 29 53  1  0
 32 54  1  0
M  END
>  <meeko>  (451) 
{"is_sidechain": [true], "free_energy": -10.82, "intermolecular_energy": 0.16, "internal_energy": -10.98, "cluster_size": 20, "cluster_id": 1, "rank_in_cluster": 1}

>  <_RMSD_MCS_to_ref>  (451) 
0.5941859043168969

$$$$
ligand
     RDKit          3D

 55 59  0  0  0  0  0  0  0  0999 V2000
   18.9090   19.1540    7.5370 C   0  0  0  0  0  0  0  0  0  0  0  0
   18.7730   17.6460    7.6780 C   0  0  0  0  0  0  0  0  0  0  0  0
   19.7090   16.9110    6.7830 C   0  0  0  0  0  0  0  0  0  0  0  0
   21.0790   17.0410    6.6640 C   0  0  0  0  0  0  0  0  0  0  0  0
   21.4150   16.1480    5.6870 N   0  0  0  0  0  0  0  0  0  0  0  0
   22.9760   15.7040    5.2570 S   0  0  0  0  0  6  0  0  0  0  0  0
   22.8310   14.7110    4.2090 O   0  0  0  0  0  0  0  0  0  0  0  0
   23.6980   16.9440    5.0530 O   0  0  0  0  0  0  0  0  0  0  0  0
   23.5960   14.9150    6.6950 C   0  0  0  0  0  0  0  0  0  0  0  0
   24.2680   13.7150    6.5750 C   0  0  0  0  0  0  0  0  0  0  0  0
   24.7820   13.0560    7.6360 N   0  0  0  0  0  0  0  0  0  0  0  0
   24.5940   13.6180    8.8580 C   0  0  0  0  0  0  0  0  0  0  0  0
   23.9130   14.8160    9.0910 C   0  0  0  0  0  0  0  0  0  0  0  0
   23.7410   15.3630   10.4450 C   0  0  0  0  0  0  0  0  0  0  0  0
   22.7290   14.8610   11.3070 C   0  0  0  0  0  0  0  0  0  0  0  0
   22.5400   15.3590   12.6050 C   0  0  0  0  0  0  0  0  0  0  0  0
   23.3700   16.3730   13.0390 C   0  0  0  0  0  0  0  0  0  0  0  0
   24.3620   16.8690   12.1980 C   0  0  0  0  0  0  0  0  0  0  0  0
   24.5720   16.3930   10.9170 C   0  0  0  0  0  0  0  0  0  0  0  0
   25.0840   17.9230   12.9170 C   0  0  0  0  0  0  0  0  0  0  0  0
   26.0490   18.5250   12.4870 O   0  0  0  0  0  0  0  0  0  0  0  0
   24.4560   18.0760   14.1440 N   0  0  0  0  0  0  0  0  0  0  0  0
   25.0530   18.8540   15.2230 C   0  0  1  0  0  0  0  0  0  0  0  0
   26.1770   18.1050   15.9310 C   0  0  0  0  0  0  0  0  0  0  0  0
   26.6870   18.9410   17.0940 C   0  0  0  0  0  0  0  0  0  0  0  0
   27.1250   20.3110   16.6300 C   0  0  0  0  0  0  0  0  0  0  0  0
   28.0860   20.8950   17.1220 O   0  0  0  0  0  0  0  0  0  0  0  0
   26.3820   20.8870   15.6310 N   0  0  0  0  0  0  0  0  0  0  0  0
   25.5880   20.2110   14.7330 C   0  0  0  0  0  0  0  0  0  0  0  0
   25.3590   20.6900   13.6250 O   0  0  0  0  0  0  0  0  0  0  0  0
   23.4150   17.0760   14.3550 C   0  0  0  0  0  0  0  0  0  0  0  0
   23.4020   15.4700    7.9620 C   0  0  0  0  0  0  0  0  0  0  0  0
   20.3000   15.4860    5.2850 C   0  0  0  0  0  0  0  0  0  0  0  0
   19.2410   15.9350    5.9260 N   0  0  0  0  0  0  0  0  0  0  0  0
   18.9504   19.6134    8.5356 H   0  0  0  0  0  0  0  0  0  0  0  0
   19.8320   19.3891    6.9867 H   0  0  0  0  0  0  0  0  0  0  0  0
   18.0430   19.5504    6.9867 H   0  0  0  0  0  0  0  0  0  0  0  0
   18.9868   17.3669    8.7203 H   0  0  0  0  0  0  0  0  0  0  0  0
   17.7468   17.3712    7.3926 H   0  0  0  0  0  0  0  0  0  0  0  0
   21.7462   17.7102    7.2270 H   0  0  0  0  0  0  0  0  0  0  0  0
   24.3899   13.2772    5.5733 H   0  0  0  0  0  0  0  0  0  0  0  0
   25.0088   13.0907    9.7297 H   0  0  0  0  0  0  0  0  0  0  0  0
   22.0726   14.0560   10.9450 H   0  0  0  0  0  0  0  0  0  0  0  0
   21.7532   14.9532   13.2579 H   0  0  0  0  0  0  0  0  0  0  0  0
   25.3690   16.8099   10.2838 H   0  0  0  0  0  0  0  0  0  0  0  0
   24.2374   19.0265   15.9407 H   0  0  0  0  0  0  0  0  0  0  0  0
   25.7969   17.1443   16.3086 H   0  0  0  0  0  0  0  0  0  0  0  0
   26.9985   17.9207   15.2231 H   0  0  0  0  0  0  0  0  0  0  0  0
   25.8823   19.0533   17.8355 H   0  0  0  0  0  0  0  0  0  0  0  0
   27.5538   18.4293   17.5377 H   0  0  0  0  0  0  0  0  0  0  0  0
   26.4218   21.9127   15.5458 H   0  0  0  0  0  0  0  0  0  0  0  0
   23.6869   16.3843   15.1660 H   0  0  0  0  0  0  0  0  0  0  0  0
   22.4482   17.5064   14.6553 H   0  0  0  0  0  0  0  0  0  0  0  0
   22.8510   16.4155    8.0729 H   0  0  0  0  0  0  0  0  0  0  0  0
   20.2835   14.6865    4.5296 H   0  0  0  0  0  0  0  0  0  0  0  0
  1  2  1  0
  2  3  1  0
  3  4  2  0
  4  5  1  0
  5  6  1  0
  6  7  2  0
  6  8  2  0
  6  9  1  0
  9 10  2  0
 10 11  1  0
 11 12  2  0
 12 13  1  0
 13 14  1  0
 14 15  2  0
 15 16  1  0
 16 17  2  0
 17 18  1  0
 18 19  2  0
 18 20  1  0
 20 21  2  0
 20 22  1  0
 22 23  1  0
 23 24  1  0
 24 25  1  0
 25 26  1  0
 26 27  2  0
 26 28  1  0
 28 29  1  0
 29 30  2  0
 22 31  1  0
 13 32  2  0
  5 33  1  0
 33 34  2  0
 34  3  1  0
 32  9  1  0
 19 14  1  0
 29 23  1  0
 31 17  1  0
  1 35  1  0
  1 36  1  0
  1 37  1  0
  2 38  1  0
  2 39  1  0
  4 40  1  0
 10 41  1  0
 12 42  1  0
 15 43  1  0
 16 44  1  0
 19 45  1  0
 23 46  1  1
 24 47  1  0
 24 48  1  0
 25 49  1  0
 25 50  1  0
 28 51  1  0
 31 52  1  0
 31 53  1  0
 32 54  1  0
 33 55  1  0
M  END
>  <meeko>  (452) 
{"is_sidechain": [true], "free_energy": -10.82, "intermolecular_energy": 0.0, "internal_energy": -10.82, "cluster_size": 19, "cluster_id": 1, "rank_in_cluster": 1}

>  <_RMSD_MCS_to_ref>  (452) 
1.9628835789329035

$$$$
ligand
     RDKit          3D

 46 49  0  0  0  0  0  0  0  0999 V2000
   18.9090   19.1540    7.5370 C   0  0  0  0  0  0  0  0  0  0  0  0
   18.7730   17.6460    7.6780 C   0  0  0  0  0  0  0  0  0  0  0  0
   20.0670   16.9930    8.0100 C   0  0  0  0  0  0  0  0  0  0  0  0
   20.3980   16.2340    9.1160 C   0  0  0  0  0  0  0  0  0  0  0  0
   21.7030   15.8900    8.9080 N   0  0  0  0  0  0  0  0  0  0  0  0
   22.6450   14.9440    9.9260 S   0  0  0  0  0  6  0  0  0  0  0  0
   21.9730   14.8970   11.2110 O   0  0  0  0  0  0  0  0  0  0  0  0
   22.8940   13.7370    9.1550 O   0  0  0  0  0  0  0  0  0  0  0  0
   24.1920   15.7750   10.1350 C   0  0  0  0  0  0  0  0  0  0  0  0
   25.1180   15.7110    9.0800 C   0  0  0  0  0  0  0  0  0  0  0  0
   26.3480   16.3540    9.1910 C   0  0  0  0  0  0  0  0  0  0  0  0
   26.6560   17.0550   10.3540 C   0  0  0  0  0  0  0  0  0  0  0  0
   25.7290   17.1020   11.4040 C   0  0  0  0  0  0  0  0  0  0  0  0
   26.0440   17.8450   12.6420 C   0  0  0  0  0  0  0  0  0  0  0  0
   27.0910   18.4830   12.7180 O   0  0  0  0  0  0  0  0  0  0  0  0
   25.0950   17.7890   13.6520 N   0  0  0  0  0  0  0  0  0  0  0  0
   25.3070   18.5460   14.8910 C   0  0  1  0  0  0  0  0  0  0  0  0
   26.3180   17.9220   15.8560 C   0  0  0  0  0  0  0  0  0  0  0  0
   26.4290   18.7910   17.0990 C   0  0  0  0  0  0  0  0  0  0  0  0
   26.8030   20.2120   16.7480 C   0  0  0  0  0  0  0  0  0  0  0  0
   27.3700   20.9550   17.5430 O   0  0  0  0  0  0  0  0  0  0  0  0
   26.4040   20.6670   15.5150 N   0  0  0  0  0  0  0  0  0  0  0  0
   25.6730   19.9980   14.5620 C   0  0  0  0  0  0  0  0  0  0  0  0
   25.2650   20.5840   13.5600 O   0  0  0  0  0  0  0  0  0  0  0  0
   23.8910   17.1660   13.4380 C   0  0  0  0  0  0  0  0  0  0  0  0
   23.5700   16.5210   12.3690 N   0  0  0  0  0  0  0  0  0  0  0  0
   24.4880   16.4640   11.3140 C   0  0  0  0  0  0  0  0  0  0  0  0
   22.1270   16.4350    7.7380 C   0  0  0  0  0  0  0  0  0  0  0  0
   21.1510   17.1090    7.1610 N   0  0  0  0  0  0  0  0  0  0  0  0
   18.9504   19.6134    8.5356 H   0  0  0  0  0  0  0  0  0  0  0  0
   19.8320   19.3891    6.9867 H   0  0  0  0  0  0  0  0  0  0  0  0
   18.0430   19.5504    6.9867 H   0  0  0  0  0  0  0  0  0  0  0  0
   18.0511   17.4290    8.4791 H   0  0  0  0  0  0  0  0  0  0  0  0
   18.4317   17.2463    6.7117 H   0  0  0  0  0  0  0  0  0  0  0  0
   19.7568   15.9677    9.9692 H   0  0  0  0  0  0  0  0  0  0  0  0
   24.8708   15.1522    8.1653 H   0  0  0  0  0  0  0  0  0  0  0  0
   27.0724   16.3085    8.3645 H   0  0  0  0  0  0  0  0  0  0  0  0
   27.6234   17.5700   10.4483 H   0  0  0  0  0  0  0  0  0  0  0  0
   24.3508   18.5162   15.4339 H   0  0  0  0  0  0  0  0  0  0  0  0
   25.9805   16.9146   16.1409 H   0  0  0  0  0  0  0  0  0  0  0  0
   27.3004   17.8525   15.3661 H   0  0  0  0  0  0  0  0  0  0  0  0
   25.4605   18.7945   17.6206 H   0  0  0  0  0  0  0  0  0  0  0  0
   27.2181   18.3747   17.7424 H   0  0  0  0  0  0  0  0  0  0  0  0
   26.6873   21.6277   15.2748 H   0  0  0  0  0  0  0  0  0  0  0  0
   23.1415   17.2214   14.2412 H   0  0  0  0  0  0  0  0  0  0  0  0
   23.1426   16.3290    7.3289 H   0  0  0  0  0  0  0  0  0  0  0  0
  1  2  1  0
  2  3  1  0
  3  4  2  0
  4  5  1  0
  5  6  1  0
  6  7  2  0
  6  8  2  0
  6  9  1  0
  9 10  2  0
 10 11  1  0
 11 12  2  0
 12 13  1  0
 13 14  1  0
 14 15  2  0
 14 16  1  0
 16 17  1  0
 17 18  1  0
 18 19  1  0
 19 20  1  0
 20 21  2  0
 20 22  1  0
 22 23  1  0
 23 24  2  0
 16 25  1  0
 25 26  2  0
 26 27  1  0
  5 28  1  0
 28 29  2  0
 29  3  1  0
 27  9  1  0
 27 13  2  0
 23 17  1  0
  1 30  1  0
  1 31  1  0
  1 32  1  0
  2 33  1  0
  2 34  1  0
  4 35  1  0
 10 36  1  0
 11 37  1  0
 12 38  1  0
 17 39  1  1
 18 40  1  0
 18 41  1  0
 19 42  1  0
 19 43  1  0
 22 44  1  0
 25 45  1  0
 28 46  1  0
M  END
>  <meeko>  (453) 
{"is_sidechain": [true], "free_energy": -10.81, "intermolecular_energy": 0.0, "internal_energy": -10.81, "cluster_size": 20, "cluster_id": 1, "rank_in_cluster": 1}

>  <_RMSD_MCS_to_ref>  (453) 
0.5295313441567404

$$$$
ligand
     RDKit          3D

 51 54  0  0  0  0  0  0  0  0999 V2000
   18.9090   19.1540    7.5370 C   0  0  0  0  0  0  0  0  0  0  0  0
   18.7730   17.6460    7.6780 C   0  0  0  0  0  0  0  0  0  0  0  0
   19.9350   16.9200    7.0970 C   0  0  0  0  0  0  0  0  0  0  0  0
   21.2220   16.8100    7.5830 C   0  0  0  0  0  0  0  0  0  0  0  0
   21.8570   16.0090    6.6750 N   0  0  0  0  0  0  0  0  0  0  0  0
   23.5170   15.7210    6.6060 S   0  0  0  0  0  6  0  0  0  0  0  0
   24.1130   17.0430    6.5440 O   0  0  0  0  0  0  0  0  0  0  0  0
   23.6760   14.7630    5.5280 O   0  0  0  0  0  0  0  0  0  0  0  0
   23.9020   15.0170    8.0240 O   0  0  0  0  0  0  0  0  0  0  0  0
   24.5190   15.6940    9.0430 C   0  0  0  0  0  0  0  0  0  0  0  0
   25.8310   16.1600    9.0280 C   0  0  0  0  0  0  0  0  0  0  0  0
   26.3440   16.8330   10.1410 C   0  0  0  0  0  0  0  0  0  0  0  0
   25.5570   17.0430   11.2820 C   0  0  0  0  0  0  0  0  0  0  0  0
   24.2280   16.5910   11.2940 C   0  0  0  0  0  0  0  0  0  0  0  0
   23.7280   15.9070   10.1750 C   0  0  0  0  0  0  0  0  0  0  0  0
   23.3420   16.7620   12.5030 C   0  0  0  0  0  0  0  0  0  0  0  0
   23.8410   17.8300   13.4740 C   0  0  0  0  0  0  0  0  0  0  0  0
   25.3370   17.6400   13.7480 C   0  0  2  0  0  0  0  0  0  0  0  0
   25.8120   18.5140   14.8410 N   0  0  0  0  0  0  0  0  0  0  0  0
   26.5860   17.9500   15.9400 C   0  0  0  0  0  0  0  0  0  0  0  0
   26.4010   18.7810   17.1910 C   0  0  0  0  0  0  0  0  0  0  0  0
   26.7300   20.2130   16.8800 C   0  0  0  0  0  0  0  0  0  0  0  0
   27.0730   21.0110   17.7480 O   0  0  0  0  0  0  0  0  0  0  0  0
   26.5490   20.6010   15.5810 N   0  0  0  0  0  0  0  0  0  0  0  0
   25.9600   19.8710   14.5820 C   0  0  0  0  0  0  0  0  0  0  0  0
   25.5900   20.4260   13.5520 O   0  0  0  0  0  0  0  0  0  0  0  0
   26.1450   17.8050   12.4480 C   0  0  0  0  0  0  0  0  0  0  0  0
   21.0030   15.7320    5.6560 C   0  0  0  0  0  0  0  0  0  0  0  0
   19.8160   16.2480    5.8950 N   0  0  0  0  0  0  0  0  0  0  0  0
   18.9504   19.6134    8.5356 H   0  0  0  0  0  0  0  0  0  0  0  0
   19.8320   19.3891    6.9867 H   0  0  0  0  0  0  0  0  0  0  0  0
   18.0430   19.5504    6.9867 H   0  0  0  0  0  0  0  0  0  0  0  0
   18.6970   17.3955    8.7464 H   0  0  0  0  0  0  0  0  0  0  0  0
   17.8719   17.3354    7.1289 H   0  0  0  0  0  0  0  0  0  0  0  0
   21.6413   17.2634    8.4933 H   0  0  0  0  0  0  0  0  0  0  0  0
   26.4628   15.9989    8.1421 H   0  0  0  0  0  0  0  0  0  0  0  0
   27.3797   17.2029   10.1211 H   0  0  0  0  0  0  0  0  0  0  0  0
   22.6941   15.5316   10.1894 H   0  0  0  0  0  0  0  0  0  0  0  0
   22.3356   17.0448   12.1607 H   0  0  0  0  0  0  0  0  0  0  0  0
   23.3430   15.8046   13.0446 H   0  0  0  0  0  0  0  0  0  0  0  0
   23.6756   18.8252   13.0356 H   0  0  0  0  0  0  0  0  0  0  0  0
   23.2887   17.7398   14.4210 H   0  0  0  0  0  0  0  0  0  0  0  0
   25.4993   16.6115   14.1027 H   0  0  0  0  0  0  0  0  0  0  0  0
   26.2462   16.9218   16.1334 H   0  0  0  0  0  0  0  0  0  0  0  0
   27.6510   17.9485   15.6648 H   0  0  0  0  0  0  0  0  0  0  0  0
   25.3575   18.7079   17.5313 H   0  0  0  0  0  0  0  0  0  0  0  0
   27.0665   18.4108   17.9848 H   0  0  0  0  0  0  0  0  0  0  0  0
   26.8908   21.5390   15.3274 H   0  0  0  0  0  0  0  0  0  0  0  0
   26.1753   18.8734   12.1881 H   0  0  0  0  0  0  0  0  0  0  0  0
   27.1496   17.3968   12.6328 H   0  0  0  0  0  0  0  0  0  0  0  0
   21.2666   15.1566    4.7563 H   0  0  0  0  0  0  0  0  0  0  0  0
  1  2  1  0
  2  3  1  0
  3  4  2  0
  4  5  1  0
  5  6  1  0
  6  7  2  0
  6  8  2  0
  6  9  1  0
  9 10  1  0
 10 11  2  0
 11 12  1  0
 12 13  2  0
 13 14  1  0
 14 15  2  0
 14 16  1  0
 16 17  1  0
 17 18  1  0
 18 19  1  0
 19 20  1  0
 20 21  1  0
 21 22  1  0
 22 23  2  0
 22 24  1  0
 24 25  1  0
 25 26  2  0
 18 27  1  0
  5 28  1  0
 28 29  2  0
 29  3  1  0
 15 10  1  0
 25 19  1  0
 27 13  1  0
  1 30  1  0
  1 31  1  0
  1 32  1  0
  2 33  1  0
  2 34  1  0
  4 35  1  0
 11 36  1  0
 12 37  1  0
 15 38  1  0
 16 39  1  0
 16 40  1  0
 17 41  1  0
 17 42  1  0
 18 43  1  1
 20 44  1  0
 20 45  1  0
 21 46  1  0
 21 47  1  0
 24 48  1  0
 27 49  1  0
 27 50  1  0
 28 51  1  0
M  END
>  <meeko>  (454) 
{"is_sidechain": [true], "free_energy": -10.81, "intermolecular_energy": 0.0, "internal_energy": -10.81, "cluster_size": 19, "cluster_id": 1, "rank_in_cluster": 1}

>  <_RMSD_MCS_to_ref>  (454) 
0.7653741731989651

$$$$
ligand
     RDKit          3D

 48 51  0  0  0  0  0  0  0  0999 V2000
   18.9090   19.1540    7.5370 C   0  0  0  0  0  0  0  0  0  0  0  0
   18.7730   17.6460    7.6780 C   0  0  0  0  0  0  0  0  0  0  0  0
   20.0860   16.9520    7.5850 C   0  0  0  0  0  0  0  0  0  0  0  0
   20.9140   16.5220    8.6040 C   0  0  0  0  0  0  0  0  0  0  0  0
   21.9670   15.9410    7.9570 N   0  0  0  0  0  0  0  0  0  0  0  0
   23.3990   15.4220    8.6640 S   0  0  0  0  0  6  0  0  0  0  0  0
   24.3850   16.4320    8.3260 O   0  0  0  0  0  0  0  0  0  0  0  0
   23.5550   14.0290    8.2990 O   0  0  0  0  0  0  0  0  0  0  0  0
   23.0730   15.5120   10.4090 C   0  0  0  0  0  0  0  0  0  0  0  0
   23.8390   16.3800   11.1970 C   0  0  0  0  0  0  0  0  0  0  0  0
   23.6100   16.4760   12.5820 C   0  0  0  0  0  0  0  0  0  0  0  0
   24.4520   17.3880   13.3950 C   0  0  0  0  0  0  0  0  0  0  0  0
   25.5850   17.6720   13.0190 O   0  0  0  0  0  0  0  0  0  0  0  0
   23.9100   17.8720   14.5610 N   0  0  0  0  0  0  0  0  0  0  0  0
   24.6650   18.7080   15.4770 C   0  0  1  0  0  0  0  0  0  0  0  0
   25.7850   17.9260   16.1570 C   0  0  0  0  0  0  0  0  0  0  0  0
   26.5430   18.8430   17.1050 C   0  0  0  0  0  0  0  0  0  0  0  0
   27.0710   20.0600   16.3830 C   0  0  0  0  0  0  0  0  0  0  0  0
   28.1240   20.6070   16.6960 O   0  0  0  0  0  0  0  0  0  0  0  0
   26.2940   20.5560   15.3680 N   0  0  0  0  0  0  0  0  0  0  0  0
   25.2690   19.9010   14.7250 C   0  0  0  0  0  0  0  0  0  0  0  0
   24.8710   20.2880   13.6290 O   0  0  0  0  0  0  0  0  0  0  0  0
   22.5830   15.6970   13.1500 C   0  0  0  0  0  0  0  0  0  0  0  0
   22.1460   15.6020   14.4550 N   0  0  0  0  0  0  0  0  0  0  0  0
   21.1640   14.7300   14.4390 C   0  0  0  0  0  0  0  0  0  0  0  0
   20.9370   14.2540   13.1790 N   0  0  0  0  0  0  0  0  0  0  0  0
   21.8340   14.8540   12.3290 C   0  0  0  0  0  0  0  0  0  0  0  0
   22.0420   14.7320   10.9530 C   0  0  0  0  0  0  0  0  0  0  0  0
   21.7870   16.0630    6.6160 C   0  0  0  0  0  0  0  0  0  0  0  0
   20.6470   16.6660    6.3550 N   0  0  0  0  0  0  0  0  0  0  0  0
   18.9504   19.6134    8.5356 H   0  0  0  0  0  0  0  0  0  0  0  0
   19.8320   19.3891    6.9867 H   0  0  0  0  0  0  0  0  0  0  0  0
   18.0430   19.5504    6.9867 H   0  0  0  0  0  0  0  0  0  0  0  0
   18.3218   17.4209    8.6556 H   0  0  0  0  0  0  0  0  0  0  0  0
   18.1412   17.2853    6.8529 H   0  0  0  0  0  0  0  0  0  0  0  0
   20.7602   16.6242    9.6884 H   0  0  0  0  0  0  0  0  0  0  0  0
   24.6253   16.9911   10.7299 H   0  0  0  0  0  0  0  0  0  0  0  0
   22.9352   17.6337   14.7931 H   0  0  0  0  0  0  0  0  0  0  0  0
   23.9688   19.0639   16.2508 H   0  0  0  0  0  0  0  0  0  0  0  0
   25.3544   17.0877   16.7243 H   0  0  0  0  0  0  0  0  0  0  0  0
   26.4753   17.5372   15.3939 H   0  0  0  0  0  0  0  0  0  0  0  0
   25.8651   19.1683   17.9079 H   0  0  0  0  0  0  0  0  0  0  0  0
   27.3966   18.2865   17.5193 H   0  0  0  0  0  0  0  0  0  0  0  0
   26.4983   21.5159   15.0553 H   0  0  0  0  0  0  0  0  0  0  0  0
   20.5956   14.4216   15.3288 H   0  0  0  0  0  0  0  0  0  0  0  0
   20.2187   13.5655   12.9127 H   0  0  0  0  0  0  0  0  0  0  0  0
   21.4311   14.0615   10.3307 H   0  0  0  0  0  0  0  0  0  0  0  0
   22.4960   15.7070    5.8540 H   0  0  0  0  0  0  0  0  0  0  0  0
  1  2  1  0
  2  3  1  0
  3  4  2  0
  4  5  1  0
  5  6  1  0
  6  7  2  0
  6  8  2  0
  6  9  1  0
  9 10  2  0
 10 11  1  0
 11 12  1  0
 12 13  2  0
 12 14  1  0
 14 15  1  0
 15 16  1  0
 16 17  1  0
 17 18  1  0
 18 19  2  0
 18 20  1  0
 20 21  1  0
 21 22  2  0
 11 23  2  0
 23 24  1  0
 24 25  2  0
 25 26  1  0
 26 27  1  0
 27 28  2  0
  5 29  1  0
 29 30  2  0
 30  3  1  0
 28  9  1  0
 21 15  1  0
 27 23  1  0
  1 31  1  0
  1 32  1  0
  1 33  1  0
  2 34  1  0
  2 35  1  0
  4 36  1  0
 10 37  1  0
 14 38  1  0
 15 39  1  1
 16 40  1  0
 16 41  1  0
 17 42  1  0
 17 43  1  0
 20 44  1  0
 25 45  1  0
 26 46  1  0
 28 47  1  0
 29 48  1  0
M  END
>  <meeko>  (455) 
{"is_sidechain": [true], "free_energy": -10.81, "intermolecular_energy": 0.0, "internal_energy": -10.81, "cluster_size": 19, "cluster_id": 1, "rank_in_cluster": 1}

>  <_RMSD_MCS_to_ref>  (455) 
0.6961563521700181

$$$$
ligand
     RDKit          3D

 47 50  0  0  0  0  0  0  0  0999 V2000
   18.9090   19.1540    7.5370 C   0  0  0  0  0  0  0  0  0  0  0  0
   18.7730   17.6460    7.6780 C   0  0  0  0  0  0  0  0  0  0  0  0
   20.0460   16.9360    7.3780 C   0  0  0  0  0  0  0  0  0  0  0  0
   21.1010   16.6500    8.2230 C   0  0  0  0  0  0  0  0  0  0  0  0
   21.9850   15.9720    7.4350 N   0  0  0  0  0  0  0  0  0  0  0  0
   23.5300   15.4990    7.8700 S   0  0  0  0  0  6  0  0  0  0  0  0
   23.5350   14.0490    7.8690 O   0  0  0  0  0  0  0  0  0  0  0  0
   24.4460   16.2880    7.0680 O   0  0  0  0  0  0  0  0  0  0  0  0
   23.8530   15.9500    9.4970 C   0  0  0  0  0  0  0  0  0  0  0  0
   24.8060   16.8300    9.8340 N   0  0  0  0  0  0  0  0  0  0  0  0
   24.7510   16.9180   11.2130 O   0  0  0  0  0  0  0  0  0  0  0  0
   23.7720   16.0980   11.6930 C   0  0  0  0  0  0  0  0  0  0  0  0
   23.4130   15.9110   13.0290 C   0  0  0  0  0  0  0  0  0  0  0  0
   24.0560   16.5990   14.1710 C   0  0  0  0  0  0  0  0  0  0  0  0
   24.2090   16.0040   15.2340 O   0  0  0  0  0  0  0  0  0  0  0  0
   24.4490   17.9050   13.9980 N   0  0  0  0  0  0  0  0  0  0  0  0
   24.9800   18.6930   15.1010 C   0  0  1  0  0  0  0  0  0  0  0  0
   26.0970   17.9650   15.8400 C   0  0  0  0  0  0  0  0  0  0  0  0
   26.6260   18.8500   16.9590 C   0  0  0  0  0  0  0  0  0  0  0  0
   27.0800   20.1910   16.4300 C   0  0  0  0  0  0  0  0  0  0  0  0
   28.0220   20.8070   16.9200 O   0  0  0  0  0  0  0  0  0  0  0  0
   26.3660   20.7120   15.3810 N   0  0  0  0  0  0  0  0  0  0  0  0
   25.5250   20.0160   14.5500 C   0  0  0  0  0  0  0  0  0  0  0  0
   25.2270   20.4490   13.4370 O   0  0  0  0  0  0  0  0  0  0  0  0
   22.3720   14.9920   13.2620 C   0  0  0  0  0  0  0  0  0  0  0  0
   21.7390   14.3220   12.2130 C   0  0  0  0  0  0  0  0  0  0  0  0
   22.1230   14.5400   10.8850 C   0  0  0  0  0  0  0  0  0  0  0  0
   23.1660   15.4480   10.6270 C   0  0  0  0  0  0  0  0  0  0  0  0
   21.5000   15.9140    6.1690 C   0  0  0  0  0  0  0  0  0  0  0  0
   20.3100   16.4720    6.1040 N   0  0  0  0  0  0  0  0  0  0  0  0
   18.9504   19.6134    8.5356 H   0  0  0  0  0  0  0  0  0  0  0  0
   19.8320   19.3891    6.9867 H   0  0  0  0  0  0  0  0  0  0  0  0
   18.0430   19.5504    6.9867 H   0  0  0  0  0  0  0  0  0  0  0  0
   18.4719   17.4125    8.7099 H   0  0  0  0  0  0  0  0  0  0  0  0
   18.0181   17.3060    6.9538 H   0  0  0  0  0  0  0  0  0  0  0  0
   21.2046   16.9094    9.2870 H   0  0  0  0  0  0  0  0  0  0  0  0
   24.3658   18.3360   13.0662 H   0  0  0  0  0  0  0  0  0  0  0  0
   24.1624   18.8693   15.8155 H   0  0  0  0  0  0  0  0  0  0  0  0
   25.7056   17.0296   16.2663 H   0  0  0  0  0  0  0  0  0  0  0  0
   26.9121   17.7353   15.1379 H   0  0  0  0  0  0  0  0  0  0  0  0
   25.8274   19.0083   17.6987 H   0  0  0  0  0  0  0  0  0  0  0  0
   27.4894   18.3481   17.4201 H   0  0  0  0  0  0  0  0  0  0  0  0
   26.4711   21.7205   15.2002 H   0  0  0  0  0  0  0  0  0  0  0  0
   22.0495   14.7971   14.2955 H   0  0  0  0  0  0  0  0  0  0  0  0
   20.9273   13.6131   12.4335 H   0  0  0  0  0  0  0  0  0  0  0  0
   21.6202   14.0128   10.0609 H   0  0  0  0  0  0  0  0  0  0  0  0
   22.0281   15.4633    5.3158 H   0  0  0  0  0  0  0  0  0  0  0  0
  1  2  1  0
  2  3  1  0
  3  4  2  0
  4  5  1  0
  5  6  1  0
  6  7  2  0
  6  8  2  0
  6  9  1  0
  9 10  2  0
 10 11  1  0
 11 12  1  0
 12 13  2  0
 13 14  1  0
 14 15  2  0
 14 16  1  0
 16 17  1  0
 17 18  1  0
 18 19  1  0
 19 20  1  0
 20 21  2  0
 20 22  1  0
 22 23  1  0
 23 24  2  0
 13 25  1  0
 25 26  2  0
 26 27  1  0
 27 28  2  0
  5 29  1  0
 29 30  2  0
 30  3  1  0
 28  9  1  0
 28 12  1  0
 23 17  1  0
  1 31  1  0
  1 32  1  0
  1 33  1  0
  2 34  1  0
  2 35  1  0
  4 36  1  0
 16 37  1  0
 17 38  1  1
 18 39  1  0
 18 40  1  0
 19 41  1  0
 19 42  1  0
 22 43  1  0
 25 44  1  0
 26 45  1  0
 27 46  1  0
 29 47  1  0
M  END
>  <meeko>  (456) 
{"is_sidechain": [true], "free_energy": -10.81, "intermolecular_energy": 0.0, "internal_energy": -10.81, "cluster_size": 18, "cluster_id": 1, "rank_in_cluster": 1}

>  <_RMSD_MCS_to_ref>  (456) 
0.5474883053038156

$$$$
ligand
     RDKit          3D

 47 50  0  0  0  0  0  0  0  0999 V2000
   18.9090   19.1540    7.5370 C   0  0  0  0  0  0  0  0  0  0  0  0
   18.7730   17.6460    7.6780 C   0  0  0  0  0  0  0  0  0  0  0  0
   20.0930   16.9600    7.6730 C   0  0  0  0  0  0  0  0  0  0  0  0
   20.9230   16.6640    8.7360 C   0  0  0  0  0  0  0  0  0  0  0  0
   22.0010   16.0540    8.1570 N   0  0  0  0  0  0  0  0  0  0  0  0
   23.3350   15.4400    8.9870 S   0  0  0  0  0  6  0  0  0  0  0  0
   24.3530   16.4560    8.7680 O   0  0  0  0  0  0  0  0  0  0  0  0
   23.5340   14.0990    8.4670 O   0  0  0  0  0  0  0  0  0  0  0  0
   22.9910   15.3570   10.6690 C   0  0  0  0  0  0  0  0  0  0  0  0
   23.9060   15.8090   11.5440 C   0  0  0  0  0  0  0  0  0  0  0  0
   23.5300   15.6780   12.9820 C   0  0  0  0  0  0  0  0  0  0  0  0
   24.5470   16.1900   14.0070 C   0  0  0  0  0  0  0  0  0  0  0  0
   25.1250   15.4130   14.7500 O   0  0  0  0  0  0  0  0  0  0  0  0
   24.7300   17.5490   13.9800 N   0  0  0  0  0  0  0  0  0  0  0  0
   25.7730   18.2080   14.7440 C   0  0  2  0  0  0  0  0  0  0  0  0
   25.6310   17.9580   16.2410 C   0  0  0  0  0  0  0  0  0  0  0  0
   26.7310   18.6930   16.9890 C   0  0  0  0  0  0  0  0  0  0  0  0
   26.7240   20.1680   16.6640 C   0  0  0  0  0  0  0  0  0  0  0  0
   27.0450   21.0240   17.4820 O   0  0  0  0  0  0  0  0  0  0  0  0
   26.3690   20.5130   15.3850 N   0  0  0  0  0  0  0  0  0  0  0  0
   25.7120   19.7170   14.4800 C   0  0  0  0  0  0  0  0  0  0  0  0
   25.1330   20.2020   13.5090 O   0  0  0  0  0  0  0  0  0  0  0  0
   22.4160   15.1650   13.4280 N   0  0  0  0  0  0  0  0  0  0  0  0
   21.5360   14.7140   12.4840 C   0  0  0  0  0  0  0  0  0  0  0  0
   20.2980   14.1280   12.6000 C   0  0  0  0  0  0  0  0  0  0  0  0
   19.8860   13.8850   11.2850 C   0  0  0  0  0  0  0  0  0  0  0  0
   20.7850   14.2820   10.3850 N   0  0  0  0  0  0  0  0  0  0  0  0
   21.8050   14.7960   11.1090 N   0  0  0  0  0  0  0  0  0  0  0  0
   21.8020   15.9700    6.8170 C   0  0  0  0  0  0  0  0  0  0  0  0
   20.6520   16.5230    6.4870 N   0  0  0  0  0  0  0  0  0  0  0  0
   18.9504   19.6134    8.5356 H   0  0  0  0  0  0  0  0  0  0  0  0
   19.8320   19.3891    6.9867 H   0  0  0  0  0  0  0  0  0  0  0  0
   18.0430   19.5504    6.9867 H   0  0  0  0  0  0  0  0  0  0  0  0
   18.2617   17.4235    8.6262 H   0  0  0  0  0  0  0  0  0  0  0  0
   18.1972   17.2768    6.8165 H   0  0  0  0  0  0  0  0  0  0  0  0
   20.7555   16.8713    9.8032 H   0  0  0  0  0  0  0  0  0  0  0  0
   24.8637   16.2444   11.2227 H   0  0  0  0  0  0  0  0  0  0  0  0
   24.1045   18.1226   13.3963 H   0  0  0  0  0  0  0  0  0  0  0  0
   26.7394   17.7925   14.4224 H   0  0  0  0  0  0  0  0  0  0  0  0
   24.6506   18.3226   16.5813 H   0  0  0  0  0  0  0  0  0  0  0  0
   25.7129   16.8792   16.4398 H   0  0  0  0  0  0  0  0  0  0  0  0
   26.5773   18.5636   18.0705 H   0  0  0  0  0  0  0  0  0  0  0  0
   27.7003   18.2740   16.6810 H   0  0  0  0  0  0  0  0  0  0  0  0
   26.6199   21.4620   15.0730 H   0  0  0  0  0  0  0  0  0  0  0  0
   19.7499   13.8996   13.5260 H   0  0  0  0  0  0  0  0  0  0  0  0
   18.9254   13.4175   11.0229 H   0  0  0  0  0  0  0  0  0  0  0  0
   22.5019   15.5058    6.1066 H   0  0  0  0  0  0  0  0  0  0  0  0
  1  2  1  0
  2  3  1  0
  3  4  2  0
  4  5  1  0
  5  6  1  0
  6  7  2  0
  6  8  2  0
  6  9  1  0
  9 10  2  0
 10 11  1  0
 11 12  1  0
 12 13  2  0
 12 14  1  0
 14 15  1  0
 15 16  1  0
 16 17  1  0
 17 18  1  0
 18 19  2  0
 18 20  1  0
 20 21  1  0
 21 22  2  0
 11 23  2  0
 23 24  1  0
 24 25  2  0
 25 26  1  0
 26 27  2  0
 27 28  1  0
  5 29  1  0
 29 30  2  0
 30  3  1  0
 28  9  1  0
 21 15  1  0
 28 24  1  0
  1 31  1  0
  1 32  1  0
  1 33  1  0
  2 34  1  0
  2 35  1  0
  4 36  1  0
 10 37  1  0
 14 38  1  0
 15 39  1  6
 16 40  1  0
 16 41  1  0
 17 42  1  0
 17 43  1  0
 20 44  1  0
 25 45  1  0
 26 46  1  0
 29 47  1  0
M  END
>  <meeko>  (457) 
{"is_sidechain": [true], "free_energy": -10.81, "intermolecular_energy": 0.0, "internal_energy": -10.81, "cluster_size": 16, "cluster_id": 1, "rank_in_cluster": 1}

>  <_RMSD_MCS_to_ref>  (457) 
0.5761459113029538

$$$$
ligand
     RDKit          3D

 46 49  0  0  0  0  0  0  0  0999 V2000
   18.9090   19.1540    7.5370 C   0  0  0  0  0  0  0  0  0  0  0  0
   18.7730   17.6460    7.6780 C   0  0  0  0  0  0  0  0  0  0  0  0
   20.0930   16.9590    7.6570 C   0  0  0  0  0  0  0  0  0  0  0  0
   21.0220   16.8320    8.6720 C   0  0  0  0  0  0  0  0  0  0  0  0
   22.0370   16.1140    8.1070 N   0  0  0  0  0  0  0  0  0  0  0  0
   23.4090   15.5540    8.8900 S   0  0  0  0  0  6  0  0  0  0  0  0
   24.3750   16.6360    8.8330 O   0  0  0  0  0  0  0  0  0  0  0  0
   23.6830   14.2430    8.3300 O   0  0  0  0  0  0  0  0  0  0  0  0
   22.9610   15.3240   10.5930 C   0  0  0  0  0  0  0  0  0  0  0  0
   23.6280   16.0780   11.5580 C   0  0  0  0  0  0  0  0  0  0  0  0
   23.2760   15.8960   12.8960 C   0  0  0  0  0  0  0  0  0  0  0  0
   23.8800   16.6020   14.0500 C   0  0  0  0  0  0  0  0  0  0  0  0
   23.9610   16.0160   15.1260 O   0  0  0  0  0  0  0  0  0  0  0  0
   24.2990   17.8950   13.8620 N   0  0  0  0  0  0  0  0  0  0  0  0
   24.7850   18.7020   14.9760 C   0  0  1  0  0  0  0  0  0  0  0  0
   25.8250   17.9680   15.8150 C   0  0  0  0  0  0  0  0  0  0  0  0
   26.3210   18.8840   16.9240 C   0  0  0  0  0  0  0  0  0  0  0  0
   26.8580   20.1820   16.3660 C   0  0  0  0  0  0  0  0  0  0  0  0
   27.7980   20.7810   16.8800 O   0  0  0  0  0  0  0  0  0  0  0  0
   26.2220   20.6850   15.2590 N   0  0  0  0  0  0  0  0  0  0  0  0
   25.4150   19.9760   14.4050 C   0  0  0  0  0  0  0  0  0  0  0  0
   25.2070   20.3540   13.2530 O   0  0  0  0  0  0  0  0  0  0  0  0
   22.2820   14.9450   13.1220 C   0  0  0  0  0  0  0  0  0  0  0  0
   21.6740   14.4570   14.2460 N   0  0  0  0  0  0  0  0  0  0  0  0
   20.7460   13.5320   13.9430 N   0  0  0  0  0  0  0  0  0  0  0  0
   20.7390   13.3920   12.6200 N   0  0  0  0  0  0  0  0  0  0  0  0
   21.6710   14.2420   12.1020 C   0  0  0  0  0  0  0  0  0  0  0  0
   21.9860   14.4080   10.7980 N   0  0  0  0  0  0  0  0  0  0  0  0
   21.7050   15.8030    6.8280 C   0  0  0  0  0  0  0  0  0  0  0  0
   20.5360   16.3210    6.5140 N   0  0  0  0  0  0  0  0  0  0  0  0
   18.9504   19.6134    8.5356 H   0  0  0  0  0  0  0  0  0  0  0  0
   19.8320   19.3891    6.9867 H   0  0  0  0  0  0  0  0  0  0  0  0
   18.0430   19.5504    6.9867 H   0  0  0  0  0  0  0  0  0  0  0  0
   18.2725   17.4229    8.6318 H   0  0  0  0  0  0  0  0  0  0  0  0
   18.1867   17.2780    6.8231 H   0  0  0  0  0  0  0  0  0  0  0  0
   20.9585   17.2201    9.6993 H   0  0  0  0  0  0  0  0  0  0  0  0
   24.4103   16.7966   11.2723 H   0  0  0  0  0  0  0  0  0  0  0  0
   24.2699   18.3034   12.9169 H   0  0  0  0  0  0  0  0  0  0  0  0
   23.9326   18.9294   15.6330 H   0  0  0  0  0  0  0  0  0  0  0  0
   25.3709   17.0691   16.2576 H   0  0  0  0  0  0  0  0  0  0  0  0
   26.6710   17.6750   15.1759 H   0  0  0  0  0  0  0  0  0  0  0  0
   25.4867   19.1052   17.6059 H   0  0  0  0  0  0  0  0  0  0  0  0
   27.1354   18.3727   17.4581 H   0  0  0  0  0  0  0  0  0  0  0  0
   26.3629   21.6838   15.0504 H   0  0  0  0  0  0  0  0  0  0  0  0
   21.8988   14.7600   15.2044 H   0  0  0  0  0  0  0  0  0  0  0  0
   22.3265   15.2016    6.1482 H   0  0  0  0  0  0  0  0  0  0  0  0
  1  2  1  0
  2  3  1  0
  3  4  2  0
  4  5  1  0
  5  6  1  0
  6  7  2  0
  6  8  2  0
  6  9  1  0
  9 10  2  0
 10 11  1  0
 11 12  1  0
 12 13  2  0
 12 14  1  0
 14 15  1  0
 15 16  1  0
 16 17  1  0
 17 18  1  0
 18 19  2  0
 18 20  1  0
 20 21  1  0
 21 22  2  0
 11 23  2  0
 23 24  1  0
 24 25  1  0
 25 26  2  0
 26 27  1  0
 27 28  2  0
  5 29  1  0
 29 30  2  0
 30  3  1  0
 28  9  1  0
 21 15  1  0
 27 23  1  0
  1 31  1  0
  1 32  1  0
  1 33  1  0
  2 34  1  0
  2 35  1  0
  4 36  1  0
 10 37  1  0
 14 38  1  0
 15 39  1  1
 16 40  1  0
 16 41  1  0
 17 42  1  0
 17 43  1  0
 20 44  1  0
 24 45  1  0
 29 46  1  0
M  END
>  <meeko>  (458) 
{"is_sidechain": [true], "free_energy": -10.81, "intermolecular_energy": 0.0, "internal_energy": -10.81, "cluster_size": 20, "cluster_id": 1, "rank_in_cluster": 1}

>  <_RMSD_MCS_to_ref>  (458) 
0.446645770655499

$$$$
ligand
     RDKit          3D

 53 57  0  0  0  0  0  0  0  0999 V2000
   18.9090   19.1540    7.5370 C   0  0  0  0  0  0  0  0  0  0  0  0
   18.7730   17.6460    7.6780 C   0  0  0  0  0  0  0  0  0  0  0  0
   20.0740   16.9450    7.5010 C   0  0  0  0  0  0  0  0  0  0  0  0
   20.8980   16.3930    8.4610 C   0  0  0  0  0  0  0  0  0  0  0  0
   21.9640   15.9230    7.7540 N   0  0  0  0  0  0  0  0  0  0  0  0
   23.3410   15.1900    8.3690 S   0  0  0  0  0  6  0  0  0  0  0  0
   24.4330   15.9200    7.7500 O   0  0  0  0  0  0  0  0  0  0  0  0
   23.1900   13.7600    8.1920 O   0  0  0  0  0  0  0  0  0  0  0  0
   23.3620   15.5510   10.1140 C   0  0  0  0  0  0  0  0  0  0  0  0
   24.3490   16.4590   10.5550 C   0  0  0  0  0  0  0  0  0  0  0  0
   24.3870   16.7980   11.8950 C   0  0  0  0  0  0  0  0  0  0  0  0
   23.4660   16.2470   12.7780 C   0  0  0  0  0  0  0  0  0  0  0  0
   22.4920   15.3500   12.3810 C   0  0  0  0  0  0  0  0  0  0  0  0
   22.4350   14.9840   11.0240 C   0  0  0  0  0  0  0  0  0  0  0  0
   21.4340   14.0050   10.6560 C   0  0  0  0  0  0  0  0  0  0  0  0
   20.0440   14.1620   10.4130 C   0  0  0  0  0  0  0  0  0  0  0  0
   19.5750   12.9220   10.0460 C   0  0  0  0  0  0  0  0  0  0  0  0
   20.5880   12.0180   10.0300 O   0  0  0  0  0  0  0  0  0  0  0  0
   21.7180   12.6820   10.3860 C   0  0  0  0  0  0  0  0  0  0  0  0
   23.7360   16.7840   14.1150 C   0  0  0  0  0  0  0  0  0  0  0  0
   23.0730   16.5500   15.1060 O   0  0  0  0  0  0  0  0  0  0  0  0
   24.8590   17.5900   14.0030 N   0  0  0  0  0  0  0  0  0  0  0  0
   25.2540   18.5050   15.0700 C   0  0  1  0  0  0  0  0  0  0  0  0
   26.3320   17.9170   15.9760 C   0  0  0  0  0  0  0  0  0  0  0  0
   26.6270   18.8920   17.1050 C   0  0  0  0  0  0  0  0  0  0  0  0
   27.0180   20.2490   16.5670 C   0  0  0  0  0  0  0  0  0  0  0  0
   27.8630   20.9540   17.1100 O   0  0  0  0  0  0  0  0  0  0  0  0
   26.3660   20.6710   15.4360 N   0  0  0  0  0  0  0  0  0  0  0  0
   25.7460   19.8530   14.5190 C   0  0  0  0  0  0  0  0  0  0  0  0
   25.6270   20.2090   13.3480 O   0  0  0  0  0  0  0  0  0  0  0  0
   25.2960   17.7350   12.6200 C   0  0  0  0  0  0  0  0  0  0  0  0
   21.7500   16.1300    6.4290 C   0  0  0  0  0  0  0  0  0  0  0  0
   20.6180   16.7750    6.2410 N   0  0  0  0  0  0  0  0  0  0  0  0
   18.9504   19.6134    8.5356 H   0  0  0  0  0  0  0  0  0  0  0  0
   19.8320   19.3891    6.9867 H   0  0  0  0  0  0  0  0  0  0  0  0
   18.0430   19.5504    6.9867 H   0  0  0  0  0  0  0  0  0  0  0  0
   18.3812   17.4179    8.6802 H   0  0  0  0  0  0  0  0  0  0  0  0
   18.0898   17.2936    6.8912 H   0  0  0  0  0  0  0  0  0  0  0  0
   20.7323   16.3438    9.5473 H   0  0  0  0  0  0  0  0  0  0  0  0
   25.0732   16.8881    9.8469 H   0  0  0  0  0  0  0  0  0  0  0  0
   21.7795   14.9330   13.1079 H   0  0  0  0  0  0  0  0  0  0  0  0
   19.4592   15.0895   10.5007 H   0  0  0  0  0  0  0  0  0  0  0  0
   18.5272   12.6948    9.8002 H   0  0  0  0  0  0  0  0  0  0  0  0
   22.7184   12.2291   10.4500 H   0  0  0  0  0  0  0  0  0  0  0  0
   24.3441   18.6675   15.6664 H   0  0  0  0  0  0  0  0  0  0  0  0
   25.9787   16.9639   16.3966 H   0  0  0  0  0  0  0  0  0  0  0  0
   27.2478   17.7411   15.3925 H   0  0  0  0  0  0  0  0  0  0  0  0
   25.7285   18.9993   17.7304 H   0  0  0  0  0  0  0  0  0  0  0  0
   27.4662   18.4967   17.6962 H   0  0  0  0  0  0  0  0  0  0  0  0
   26.3382   21.6852   15.2582 H   0  0  0  0  0  0  0  0  0  0  0  0
   25.1647   18.7688   12.2677 H   0  0  0  0  0  0  0  0  0  0  0  0
   26.3633   17.5140   12.4715 H   0  0  0  0  0  0  0  0  0  0  0  0
   22.4274   15.8044    5.6258 H   0  0  0  0  0  0  0  0  0  0  0  0
  1  2  1  0
  2  3  1  0
  3  4  2  0
  4  5  1  0
  5  6  1  0
  6  7  2  0
  6  8  2  0
  6  9  1  0
  9 10  2  0
 10 11  1  0
 11 12  2  0
 12 13  1  0
 13 14  2  0
 14 15  1  0
 15 16  1  0
 16 17  2  0
 17 18  1  0
 18 19  1  0
 12 20  1  0
 20 21  2  0
 20 22  1  0
 22 23  1  0
 23 24  1  0
 24 25  1  0
 25 26  1  0
 26 27  2  0
 26 28  1  0
 28 29  1  0
 29 30  2  0
 22 31  1  0
  5 32  1  0
 32 33  2  0
 33  3  1  0
 14  9  1  0
 19 15  2  0
 29 23  1  0
 31 11  1  0
  1 34  1  0
  1 35  1  0
  1 36  1  0
  2 37  1  0
  2 38  1  0
  4 39  1  0
 10 40  1  0
 13 41  1  0
 16 42  1  0
 17 43  1  0
 19 44  1  0
 23 45  1  1
 24 46  1  0
 24 47  1  0
 25 48  1  0
 25 49  1  0
 28 50  1  0
 31 51  1  0
 31 52  1  0
 32 53  1  0
M  END
>  <meeko>  (459) 
{"is_sidechain": [true], "free_energy": -10.81, "intermolecular_energy": 0.0, "internal_energy": -10.81, "cluster_size": 19, "cluster_id": 1, "rank_in_cluster": 1}

>  <_RMSD_MCS_to_ref>  (459) 
0.962935990719125

$$$$
ligand
     RDKit          3D

 55 59  0  0  0  0  0  0  0  0999 V2000
   18.9090   19.1540    7.5370 C   0  0  0  0  0  0  0  0  0  0  0  0
   18.7730   17.6460    7.6780 C   0  0  0  0  0  0  0  0  0  0  0  0
   19.6420   16.9110    6.7190 C   0  0  0  0  0  0  0  0  0  0  0  0
   20.1360   15.6230    6.8060 C   0  0  0  0  0  0  0  0  0  0  0  0
   20.8430   15.4590    5.6500 N   0  0  0  0  0  0  0  0  0  0  0  0
   21.8600   14.1690    5.2950 S   0  0  0  0  0  6  0  0  0  0  0  0
   22.3260   14.3950    3.9410 O   0  0  0  0  0  0  0  0  0  0  0  0
   21.1330   12.9740    5.6760 O   0  0  0  0  0  0  0  0  0  0  0  0
   23.2060   14.3900    6.3980 C   0  0  0  0  0  0  0  0  0  0  0  0
   24.4860   14.0880    5.9750 C   0  0  0  0  0  0  0  0  0  0  0  0
   25.5670   14.2150    6.7740 N   0  0  0  0  0  0  0  0  0  0  0  0
   25.3530   14.6830    8.0300 C   0  0  0  0  0  0  0  0  0  0  0  0
   24.1030   15.0320    8.5500 C   0  0  0  0  0  0  0  0  0  0  0  0
   23.9430   15.5300    9.9230 C   0  0  0  0  0  0  0  0  0  0  0  0
   22.7630   15.2500   10.6580 C   0  0  0  0  0  0  0  0  0  0  0  0
   22.5860   15.7130   11.9650 C   0  0  0  0  0  0  0  0  0  0  0  0
   23.6100   16.4510   12.5190 C   0  0  0  0  0  0  0  0  0  0  0  0
   24.7820   16.7450   11.8300 C   0  0  0  0  0  0  0  0  0  0  0  0
   24.9620   16.2940   10.5320 C   0  0  0  0  0  0  0  0  0  0  0  0
   25.6850   17.5710   12.6870 C   0  0  0  0  0  0  0  0  0  0  0  0
   24.9560   17.6360   13.9470 N   0  0  0  0  0  0  0  0  0  0  0  0
   25.3050   18.5460   15.0310 C   0  0  1  0  0  0  0  0  0  0  0  0
   26.3150   17.9400   15.9990 C   0  0  0  0  0  0  0  0  0  0  0  0
   26.5600   18.9090   17.1470 C   0  0  0  0  0  0  0  0  0  0  0  0
   27.0050   20.2580   16.6340 C   0  0  0  0  0  0  0  0  0  0  0  0
   27.8290   20.9470   17.2270 O   0  0  0  0  0  0  0  0  0  0  0  0
   26.4270   20.6930   15.4690 N   0  0  0  0  0  0  0  0  0  0  0  0
   25.8520   19.8870   14.5130 C   0  0  0  0  0  0  0  0  0  0  0  0
   25.8110   20.2480   13.3390 O   0  0  0  0  0  0  0  0  0  0  0  0
   23.6980   17.0580   13.8520 C   0  0  0  0  0  0  0  0  0  0  0  0
   22.8170   17.0380   14.6890 O   0  0  0  0  0  0  0  0  0  0  0  0
   23.0070   14.8780    7.6900 C   0  0  0  0  0  0  0  0  0  0  0  0
   20.8070   16.6140    4.9370 C   0  0  0  0  0  0  0  0  0  0  0  0
   20.0770   17.5160    5.5560 N   0  0  0  0  0  0  0  0  0  0  0  0
   18.9504   19.6134    8.5356 H   0  0  0  0  0  0  0  0  0  0  0  0
   19.8320   19.3891    6.9867 H   0  0  0  0  0  0  0  0  0  0  0  0
   18.0430   19.5504    6.9867 H   0  0  0  0  0  0  0  0  0  0  0  0
   19.0539   17.3592    8.7021 H   0  0  0  0  0  0  0  0  0  0  0  0
   17.7284   17.3793    7.4598 H   0  0  0  0  0  0  0  0  0  0  0  0
   19.9924   14.8970    7.6198 H   0  0  0  0  0  0  0  0  0  0  0  0
   24.6304   13.7294    4.9452 H   0  0  0  0  0  0  0  0  0  0  0  0
   26.2277   14.7960    8.6873 H   0  0  0  0  0  0  0  0  0  0  0  0
   21.9672   14.6536   10.1879 H   0  0  0  0  0  0  0  0  0  0  0  0
   21.6665   15.4971   12.5288 H   0  0  0  0  0  0  0  0  0  0  0  0
   25.8864   16.5282    9.9837 H   0  0  0  0  0  0  0  0  0  0  0  0
   26.6625   17.0840   12.8185 H   0  0  0  0  0  0  0  0  0  0  0  0
   25.9096   18.5596   12.2601 H   0  0  0  0  0  0  0  0  0  0  0  0
   24.3633   18.7273   15.5698 H   0  0  0  0  0  0  0  0  0  0  0  0
   25.9202   16.9931   16.3960 H   0  0  0  0  0  0  0  0  0  0  0  0
   27.2610   17.7495   15.4710 H   0  0  0  0  0  0  0  0  0  0  0  0
   25.6283   19.0315   17.7188 H   0  0  0  0  0  0  0  0  0  0  0  0
   27.3551   18.4988   17.7869 H   0  0  0  0  0  0  0  0  0  0  0  0
   26.4228   21.7082   15.2948 H   0  0  0  0  0  0  0  0  0  0  0  0
   21.9950   15.1405    8.0319 H   0  0  0  0  0  0  0  0  0  0  0  0
   21.3173   16.7731    3.9756 H   0  0  0  0  0  0  0  0  0  0  0  0
  1  2  1  0
  2  3  1  0
  3  4  2  0
  4  5  1  0
  5  6  1  0
  6  7  2  0
  6  8  2  0
  6  9  1  0
  9 10  2  0
 10 11  1  0
 11 12  2  0
 12 13  1  0
 13 14  1  0
 14 15  2  0
 15 16  1  0
 16 17  2  0
 17 18  1  0
 18 19  2  0
 18 20  1  0
 20 21  1  0
 21 22  1  0
 22 23  1  0
 23 24  1  0
 24 25  1  0
 25 26  2  0
 25 27  1  0
 27 28  1  0
 28 29  2  0
 21 30  1  0
 30 31  2  0
 13 32  2  0
  5 33  1  0
 33 34  2  0
 34  3  1  0
 32  9  1  0
 19 14  1  0
 28 22  1  0
 30 17  1  0
  1 35  1  0
  1 36  1  0
  1 37  1  0
  2 38  1  0
  2 39  1  0
  4 40  1  0
 10 41  1  0
 12 42  1  0
 15 43  1  0
 16 44  1  0
 19 45  1  0
 20 46  1  0
 20 47  1  0
 22 48  1  1
 23 49  1  0
 23 50  1  0
 24 51  1  0
 24 52  1  0
 27 53  1  0
 32 54  1  0
 33 55  1  0
M  END
>  <meeko>  (460) 
{"is_sidechain": [true], "free_energy": -10.81, "intermolecular_energy": 0.0, "internal_energy": -10.81, "cluster_size": 16, "cluster_id": 1, "rank_in_cluster": 1}

>  <_RMSD_MCS_to_ref>  (460) 
0.7757713007782068

$$$$
ligand
     RDKit          3D

 51 54  0  0  0  0  0  0  0  0999 V2000
   18.8250   19.0170    7.5350 C   0  0  0  0  0  0  0  0  0  0  0  0
   18.5200   17.5420    7.7330 C   0  0  0  0  0  0  0  0  0  0  0  0
   19.6470   16.6710    7.3020 C   0  0  0  0  0  0  0  0  0  0  0  0
   20.0110   15.4240    7.7720 C   0  0  0  0  0  0  0  0  0  0  0  0
   21.0920   15.0820    7.0140 N   0  0  0  0  0  0  0  0  0  0  0  0
   22.0980   13.7590    7.2690 S   0  0  0  0  0  6  0  0  0  0  0  0
   21.5510   13.0640    8.4220 O   0  0  0  0  0  0  0  0  0  0  0  0
   22.2440   13.1130    5.9800 O   0  0  0  0  0  0  0  0  0  0  0  0
   23.6450   14.4960    7.7210 C   0  0  0  0  0  0  0  0  0  0  0  0
   24.6720   14.5030    6.7620 C   0  0  0  0  0  0  0  0  0  0  0  0
   25.8950   15.1050    7.0530 C   0  0  0  0  0  0  0  0  0  0  0  0
   26.0930   15.7020    8.2970 C   0  0  0  0  0  0  0  0  0  0  0  0
   25.0720   15.6790    9.2560 C   0  0  0  0  0  0  0  0  0  0  0  0
   25.3010   16.3210   10.5800 C   0  0  0  0  0  0  0  0  0  0  0  0
   26.3670   16.8810   10.8210 O   0  0  0  0  0  0  0  0  0  0  0  0
   24.2140   16.2450   11.5940 C   0  0  0  0  0  0  0  0  0  0  0  0
   24.3090   16.7800   12.9810 C   0  0  0  0  0  0  0  0  0  0  0  0
   23.7020   16.2660   13.9170 O   0  0  0  0  0  0  0  0  0  0  0  0
   25.1060   17.8800   13.1410 N   0  0  0  0  0  0  0  0  0  0  0  0
   25.2540   18.5550   14.4190 C   0  0  1  0  0  0  0  0  0  0  0  0
   26.2100   17.8030   15.3400 C   0  0  0  0  0  0  0  0  0  0  0  0
   26.3360   18.5460   16.6610 C   0  0  0  0  0  0  0  0  0  0  0  0
   26.7770   19.9740   16.4460 C   0  0  0  0  0  0  0  0  0  0  0  0
   27.4770   20.5750   17.2550 O   0  0  0  0  0  0  0  0  0  0  0  0
   26.3250   20.5910   15.3070 N   0  0  0  0  0  0  0  0  0  0  0  0
   25.7780   19.9800   14.2040 C   0  0  0  0  0  0  0  0  0  0  0  0
   25.7010   20.5750   13.1310 O   0  0  0  0  0  0  0  0  0  0  0  0
   23.0830   15.6290   11.2190 C   0  0  0  0  0  0  0  0  0  0  0  0
   22.8320   15.1000    9.9770 N   0  0  0  0  0  0  0  0  0  0  0  0
   23.8380   15.0490    8.9960 C   0  0  0  0  0  0  0  0  0  0  0  0
   21.3840   16.1030    6.1670 C   0  0  0  0  0  0  0  0  0  0  0  0
   20.5150   17.0820    6.3100 N   0  0  0  0  0  0  0  0  0  0  0  0
   18.9260   19.5054    8.5155 H   0  0  0  0  0  0  0  0  0  0  0  0
   19.7645   19.1250    6.9731 H   0  0  0  0  0  0  0  0  0  0  0  0
   18.0054   19.4887    6.9731 H   0  0  0  0  0  0  0  0  0  0  0  0
   18.3211   17.3617    8.7997 H   0  0  0  0  0  0  0  0  0  0  0  0
   17.6453   17.2925    7.1143 H   0  0  0  0  0  0  0  0  0  0  0  0
   19.5370   14.8400    8.5747 H   0  0  0  0  0  0  0  0  0  0  0  0
   24.5106   14.0329    5.7807 H   0  0  0  0  0  0  0  0  0  0  0  0
   26.7006   15.1090    6.3040 H   0  0  0  0  0  0  0  0  0  0  0  0
   27.0512   16.1913    8.5257 H   0  0  0  0  0  0  0  0  0  0  0  0
   25.6201   18.2431   12.3256 H   0  0  0  0  0  0  0  0  0  0  0  0
   24.2629   18.5873   14.8951 H   0  0  0  0  0  0  0  0  0  0  0  0
   25.8202   16.7911   15.5248 H   0  0  0  0  0  0  0  0  0  0  0  0
   27.1990   17.7352   14.8632 H   0  0  0  0  0  0  0  0  0  0  0  0
   25.3596   18.5447   17.1676 H   0  0  0  0  0  0  0  0  0  0  0  0
   27.0933   18.0370   17.2754 H   0  0  0  0  0  0  0  0  0  0  0  0
   26.4037   21.6175   15.2752 H   0  0  0  0  0  0  0  0  0  0  0  0
   22.2867   15.5398   11.9726 H   0  0  0  0  0  0  0  0  0  0  0  0
   21.8933   14.7353    9.7609 H   0  0  0  0  0  0  0  0  0  0  0  0
   22.2276   16.1109    5.4611 H   0  0  0  0  0  0  0  0  0  0  0  0
  1  2  1  0
  2  3  1  0
  3  4  2  0
  4  5  1  0
  5  6  1  0
  6  7  2  0
  6  8  2  0
  6  9  1  0
  9 10  2  0
 10 11  1  0
 11 12  2  0
 12 13  1  0
 13 14  1  0
 14 15  2  0
 14 16  1  0
 16 17  1  0
 17 18  2  0
 17 19  1  0
 19 20  1  0
 20 21  1  0
 21 22  1  0
 22 23  1  0
 23 24  2  0
 23 25  1  0
 25 26  1  0
 26 27  2  0
 16 28  2  0
 28 29  1  0
 29 30  1  0
  5 31  1  0
 31 32  2  0
 32  3  1  0
 30  9  1  0
 30 13  2  0
 26 20  1  0
  1 33  1  0
  1 34  1  0
  1 35  1  0
  2 36  1  0
  2 37  1  0
  4 38  1  0
 10 39  1  0
 11 40  1  0
 12 41  1  0
 19 42  1  0
 20 43  1  1
 21 44  1  0
 21 45  1  0
 22 46  1  0
 22 47  1  0
 25 48  1  0
 28 49  1  0
 29 50  1  0
 31 51  1  0
M  END
>  <meeko>  (461) 
{"is_sidechain": [true], "free_energy": -10.8, "intermolecular_energy": 0.0, "internal_energy": -10.8, "cluster_size": 20, "cluster_id": 1, "rank_in_cluster": 1}

>  <_RMSD_MCS_to_ref>  (461) 
0.6610194147426129

$$$$
ligand
     RDKit          3D

 47 50  0  0  0  0  0  0  0  0999 V2000
   18.9090   19.1540    7.5370 C   0  0  0  0  0  0  0  0  0  0  0  0
   18.7730   17.6460    7.6780 C   0  0  0  0  0  0  0  0  0  0  0  0
   20.0690   16.9440    7.4760 C   0  0  0  0  0  0  0  0  0  0  0  0
   20.9140   16.3890    8.4180 C   0  0  0  0  0  0  0  0  0  0  0  0
   21.9280   15.8470    7.6810 N   0  0  0  0  0  0  0  0  0  0  0  0
   23.3770   15.2450    8.2940 S   0  0  0  0  0  6  0  0  0  0  0  0
   24.0840   16.4100    8.7910 O   0  0  0  0  0  0  0  0  0  0  0  0
   23.9230   14.4290    7.2250 O   0  0  0  0  0  0  0  0  0  0  0  0
   22.9720   14.2850    9.5480 O   0  0  0  0  0  0  0  0  0  0  0  0
   22.9140   14.7440   10.8400 C   0  0  0  0  0  0  0  0  0  0  0  0
   21.8750   14.2090   11.6070 C   0  0  0  0  0  0  0  0  0  0  0  0
   21.7110   14.5920   12.9360 C   0  0  0  0  0  0  0  0  0  0  0  0
   22.5870   15.5140   13.5070 C   0  0  0  0  0  0  0  0  0  0  0  0
   23.6320   16.0540   12.7480 C   0  0  0  0  0  0  0  0  0  0  0  0
   24.5470   17.0320   13.3860 C   0  0  0  0  0  0  0  0  0  0  0  0
   25.8110   16.8100   13.5580 N   0  0  0  0  0  0  0  0  0  0  0  0
   26.3590   17.9610   14.1670 O   0  0  0  0  0  0  0  0  0  0  0  0
   25.2830   18.7420   14.7060 C   0  0  1  0  0  0  0  0  0  0  0  0
   25.1200   18.4230   16.1930 C   0  0  0  0  0  0  0  0  0  0  0  0
   26.4060   18.7440   16.9470 C   0  0  0  0  0  0  0  0  0  0  0  0
   26.8550   20.1630   16.6910 C   0  0  0  0  0  0  0  0  0  0  0  0
   27.3850   20.8520   17.5600 O   0  0  0  0  0  0  0  0  0  0  0  0
   26.6460   20.6580   15.4290 N   0  0  0  0  0  0  0  0  0  0  0  0
   25.6810   20.2100   14.5570 C   0  0  0  0  0  0  0  0  0  0  0  0
   25.1670   20.9860   13.7540 O   0  0  0  0  0  0  0  0  0  0  0  0
   24.0750   18.3590   13.8720 C   0  0  0  0  0  0  0  0  0  0  0  0
   23.8000   15.6610   11.4130 C   0  0  0  0  0  0  0  0  0  0  0  0
   21.7330   16.1440    6.3700 C   0  0  0  0  0  0  0  0  0  0  0  0
   20.5960   16.7890    6.2080 N   0  0  0  0  0  0  0  0  0  0  0  0
   18.9504   19.6134    8.5356 H   0  0  0  0  0  0  0  0  0  0  0  0
   19.8320   19.3891    6.9867 H   0  0  0  0  0  0  0  0  0  0  0  0
   18.0430   19.5504    6.9867 H   0  0  0  0  0  0  0  0  0  0  0  0
   18.3993   17.4167    8.6869 H   0  0  0  0  0  0  0  0  0  0  0  0
   18.0747   17.2958    6.9035 H   0  0  0  0  0  0  0  0  0  0  0  0
   20.7967   16.3847    9.5117 H   0  0  0  0  0  0  0  0  0  0  0  0
   21.1829   13.4812   11.1583 H   0  0  0  0  0  0  0  0  0  0  0  0
   20.8913   14.1675   13.5343 H   0  0  0  0  0  0  0  0  0  0  0  0
   22.4568   15.8178   14.5562 H   0  0  0  0  0  0  0  0  0  0  0  0
   24.2974   19.0257   16.6054 H   0  0  0  0  0  0  0  0  0  0  0  0
   24.8962   17.3520   16.3069 H   0  0  0  0  0  0  0  0  0  0  0  0
   26.2311   18.6129   18.0251 H   0  0  0  0  0  0  0  0  0  0  0  0
   27.1939   18.0624   16.5938 H   0  0  0  0  0  0  0  0  0  0  0  0
   27.2578   21.4229   15.1102 H   0  0  0  0  0  0  0  0  0  0  0  0
   23.1621   18.2759   14.4801 H   0  0  0  0  0  0  0  0  0  0  0  0
   23.7897   19.0780   13.0899 H   0  0  0  0  0  0  0  0  0  0  0  0
   24.6276   16.0735   10.8173 H   0  0  0  0  0  0  0  0  0  0  0  0
   22.4271   15.8826    5.5577 H   0  0  0  0  0  0  0  0  0  0  0  0
  1  2  1  0
  2  3  1  0
  3  4  2  0
  4  5  1  0
  5  6  1  0
  6  7  2  0
  6  8  2  0
  6  9  1  0
  9 10  1  0
 10 11  2  0
 11 12  1  0
 12 13  2  0
 13 14  1  0
 14 15  1  0
 15 16  2  0
 16 17  1  0
 18 17  1  6
 18 19  1  0
 19 20  1  0
 20 21  1  0
 21 22  2  0
 21 23  1  0
 23 24  1  0
 24 25  2  0
 18 26  1  0
 14 27  2  0
  5 28  1  0
 28 29  2  0
 29  3  1  0
 27 10  1  0
 26 15  1  0
 24 18  1  0
  1 30  1  0
  1 31  1  0
  1 32  1  0
  2 33  1  0
  2 34  1  0
  4 35  1  0
 11 36  1  0
 12 37  1  0
 13 38  1  0
 19 39  1  0
 19 40  1  0
 20 41  1  0
 20 42  1  0
 23 43  1  0
 26 44  1  0
 26 45  1  0
 27 46  1  0
 28 47  1  0
M  END
>  <meeko>  (462) 
{"is_sidechain": [true], "free_energy": -10.8, "intermolecular_energy": 0.0, "internal_energy": -10.8, "cluster_size": 20, "cluster_id": 1, "rank_in_cluster": 1}

>  <_RMSD_MCS_to_ref>  (462) 
0.7298388520762652

$$$$
ligand
     RDKit          3D

 45 48  0  0  0  0  0  0  0  0999 V2000
   18.9090   19.1540    7.5370 C   0  0  0  0  0  0  0  0  0  0  0  0
   18.7730   17.6460    7.6780 C   0  0  0  0  0  0  0  0  0  0  0  0
   20.0790   16.9810    7.9390 C   0  0  0  0  0  0  0  0  0  0  0  0
   20.4260   16.1380    8.9760 C   0  0  0  0  0  0  0  0  0  0  0  0
   21.7140   15.7770    8.7000 N   0  0  0  0  0  0  0  0  0  0  0  0
   22.6710   14.7520    9.6280 S   0  0  0  0  0  6  0  0  0  0  0  0
   22.9430   13.5860    8.8090 O   0  0  0  0  0  0  0  0  0  0  0  0
   21.9660   14.6470   10.8950 O   0  0  0  0  0  0  0  0  0  0  0  0
   24.1840   15.5930    9.9210 C   0  0  0  0  0  0  0  0  0  0  0  0
   25.2340   15.4640    8.9950 C   0  0  0  0  0  0  0  0  0  0  0  0
   26.4550   16.1100    9.2120 C   0  0  0  0  0  0  0  0  0  0  0  0
   26.6680   16.8990   10.3480 C   0  0  0  0  0  0  0  0  0  0  0  0
   25.6040   17.0120   11.2460 C   0  0  0  0  0  0  0  0  0  0  0  0
   25.4680   17.6790   12.4380 N   0  0  0  0  0  0  0  0  0  0  0  0
   24.2140   17.4310   12.9050 C   0  0  0  0  0  0  0  0  0  0  0  0
   23.6960   18.0620   14.4220 S   0  0  0  0  0  0  0  0  0  0  0  0
   25.3220   18.4930   15.1420 C   0  0  2  0  0  0  0  0  0  0  0  0
   25.1960   18.5580   16.6630 C   0  0  0  0  0  0  0  0  0  0  0  0
   26.5530   18.9090   17.2580 C   0  0  0  0  0  0  0  0  0  0  0  0
   27.0610   20.2170   16.7060 C   0  0  0  0  0  0  0  0  0  0  0  0
   27.8140   20.9540   17.3360 O   0  0  0  0  0  0  0  0  0  0  0  0
   26.6660   20.5370   15.4320 N   0  0  0  0  0  0  0  0  0  0  0  0
   25.8170   19.8360   14.6040 C   0  0  0  0  0  0  0  0  0  0  0  0
   25.5270   20.3080   13.5040 O   0  0  0  0  0  0  0  0  0  0  0  0
   23.5190   16.6750   12.0910 N   0  0  0  0  0  0  0  0  0  0  0  0
   24.3730   16.3840   11.0580 C   0  0  0  0  0  0  0  0  0  0  0  0
   22.1180   16.4110    7.5690 C   0  0  0  0  0  0  0  0  0  0  0  0
   21.1500   17.1660    7.0850 N   0  0  0  0  0  0  0  0  0  0  0  0
   18.9504   19.6134    8.5356 H   0  0  0  0  0  0  0  0  0  0  0  0
   19.8320   19.3891    6.9867 H   0  0  0  0  0  0  0  0  0  0  0  0
   18.0430   19.5504    6.9867 H   0  0  0  0  0  0  0  0  0  0  0  0
   18.0926   17.4293    8.5147 H   0  0  0  0  0  0  0  0  0  0  0  0
   18.3807   17.2541    6.7280 H   0  0  0  0  0  0  0  0  0  0  0  0
   19.8061   15.8277    9.8301 H   0  0  0  0  0  0  0  0  0  0  0  0
   25.0939   14.8502    8.0930 H   0  0  0  0  0  0  0  0  0  0  0  0
   27.2639   15.9958    8.4754 H   0  0  0  0  0  0  0  0  0  0  0  0
   27.6278   17.4062   10.5254 H   0  0  0  0  0  0  0  0  0  0  0  0
   26.1842   18.2609   12.8955 H   0  0  0  0  0  0  0  0  0  0  0  0
   26.0521   17.7202   14.8597 H   0  0  0  0  0  0  0  0  0  0  0  0
   24.4615   19.3286   16.9397 H   0  0  0  0  0  0  0  0  0  0  0  0
   24.8609   17.5845   17.0502 H   0  0  0  0  0  0  0  0  0  0  0  0
   26.4564   18.9925   18.3506 H   0  0  0  0  0  0  0  0  0  0  0  0
   27.2678   18.1154   16.9948 H   0  0  0  0  0  0  0  0  0  0  0  0
   27.0524   21.4104   15.0463 H   0  0  0  0  0  0  0  0  0  0  0  0
   23.1161   16.3091    7.1179 H   0  0  0  0  0  0  0  0  0  0  0  0
  1  2  1  0
  2  3  1  0
  3  4  2  0
  4  5  1  0
  5  6  1  0
  6  7  2  0
  6  8  2  0
  6  9  1  0
  9 10  2  0
 10 11  1  0
 11 12  2  0
 12 13  1  0
 13 14  1  0
 14 15  1  0
 15 16  1  0
 16 17  1  0
 17 18  1  0
 18 19  1  0
 19 20  1  0
 20 21  2  0
 20 22  1  0
 22 23  1  0
 23 24  2  0
 15 25  2  0
 25 26  1  0
  5 27  1  0
 27 28  2  0
 28  3  1  0
 26  9  1  0
 26 13  2  0
 23 17  1  0
  1 29  1  0
  1 30  1  0
  1 31  1  0
  2 32  1  0
  2 33  1  0
  4 34  1  0
 10 35  1  0
 11 36  1  0
 12 37  1  0
 14 38  1  0
 17 39  1  1
 18 40  1  0
 18 41  1  0
 19 42  1  0
 19 43  1  0
 22 44  1  0
 27 45  1  0
M  END
>  <meeko>  (463) 
{"is_sidechain": [true], "free_energy": -10.8, "intermolecular_energy": 0.0, "internal_energy": -10.8, "cluster_size": 7, "cluster_id": 1, "rank_in_cluster": 1}

>  <_RMSD_MCS_to_ref>  (463) 
0.8340585261239163

$$$$
ligand
     RDKit          3D

 48 51  0  0  0  0  0  0  0  0999 V2000
   18.9090   19.1540    7.5370 C   0  0  0  0  0  0  0  0  0  0  0  0
   18.7730   17.6460    7.6780 C   0  0  0  0  0  0  0  0  0  0  0  0
   20.0850   16.9510    7.5710 C   0  0  0  0  0  0  0  0  0  0  0  0
   21.0840   16.8310    8.5160 C   0  0  0  0  0  0  0  0  0  0  0  0
   22.0560   16.1100    7.8850 N   0  0  0  0  0  0  0  0  0  0  0  0
   23.4230   15.4480    8.6060 S   0  0  0  0  0  6  0  0  0  0  0  0
   24.4740   16.4370    8.4750 O   0  0  0  0  0  0  0  0  0  0  0  0
   23.5340   14.1110    8.0560 O   0  0  0  0  0  0  0  0  0  0  0  0
   22.9890   15.3220   10.3240 C   0  0  0  0  0  0  0  0  0  0  0  0
   23.8750   15.8080   11.2890 C   0  0  0  0  0  0  0  0  0  0  0  0
   23.5470   15.7350   12.6540 C   0  0  0  0  0  0  0  0  0  0  0  0
   24.5100   16.2860   13.6360 C   0  0  0  0  0  0  0  0  0  0  0  0
   25.1040   15.5330   14.3960 O   0  0  0  0  0  0  0  0  0  0  0  0
   24.7310   17.6430   13.5900 N   0  0  0  0  0  0  0  0  0  0  0  0
   25.7790   18.2580   14.3970 C   0  0  2  0  0  0  0  0  0  0  0  0
   25.6230   17.9420   15.8810 C   0  0  0  0  0  0  0  0  0  0  0  0
   26.7180   18.6470   16.6660 C   0  0  0  0  0  0  0  0  0  0  0  0
   26.7130   20.1350   16.4040 C   0  0  0  0  0  0  0  0  0  0  0  0
   27.0240   20.9560   17.2600 O   0  0  0  0  0  0  0  0  0  0  0  0
   26.3700   20.5340   15.1370 N   0  0  0  0  0  0  0  0  0  0  0  0
   25.7160   19.7750   14.2000 C   0  0  0  0  0  0  0  0  0  0  0  0
   25.1290   20.2960   13.2500 O   0  0  0  0  0  0  0  0  0  0  0  0
   22.3370   15.1190   13.0370 C   0  0  0  0  0  0  0  0  0  0  0  0
   21.6770   14.7830   14.2450 C   0  0  0  0  0  0  0  0  0  0  0  0
   20.5040   14.1790   14.0450 N   0  0  0  0  0  0  0  0  0  0  0  0
   20.4130   14.0970   12.7090 N   0  0  0  0  0  0  0  0  0  0  0  0
   21.4860   14.6340   12.0440 C   0  0  0  0  0  0  0  0  0  0  0  0
   21.7720   14.7210   10.6770 C   0  0  0  0  0  0  0  0  0  0  0  0
   21.6340   15.7890    6.6360 C   0  0  0  0  0  0  0  0  0  0  0  0
   20.4380   16.2910    6.4100 N   0  0  0  0  0  0  0  0  0  0  0  0
   18.9504   19.6134    8.5356 H   0  0  0  0  0  0  0  0  0  0  0  0
   19.8320   19.3891    6.9867 H   0  0  0  0  0  0  0  0  0  0  0  0
   18.0430   19.5504    6.9867 H   0  0  0  0  0  0  0  0  0  0  0  0
   18.3316   17.4203    8.6599 H   0  0  0  0  0  0  0  0  0  0  0  0
   18.1325   17.2865    6.8592 H   0  0  0  0  0  0  0  0  0  0  0  0
   21.0943   17.2260    9.5426 H   0  0  0  0  0  0  0  0  0  0  0  0
   24.8336   16.2498   10.9791 H   0  0  0  0  0  0  0  0  0  0  0  0
   24.1490   18.2324   12.9778 H   0  0  0  0  0  0  0  0  0  0  0  0
   26.7473   17.8512   14.0700 H   0  0  0  0  0  0  0  0  0  0  0  0
   24.6395   18.2908   16.2290 H   0  0  0  0  0  0  0  0  0  0  0  0
   25.7018   16.8557   16.0354 H   0  0  0  0  0  0  0  0  0  0  0  0
   26.5576   18.4721   17.7401 H   0  0  0  0  0  0  0  0  0  0  0  0
   27.6893   18.2422   16.3455 H   0  0  0  0  0  0  0  0  0  0  0  0
   26.6276   21.4931   14.8638 H   0  0  0  0  0  0  0  0  0  0  0  0
   22.0882   14.9974   15.2425 H   0  0  0  0  0  0  0  0  0  0  0  0
   19.6099   13.6694   12.2261 H   0  0  0  0  0  0  0  0  0  0  0  0
   21.0763   14.3368    9.9165 H   0  0  0  0  0  0  0  0  0  0  0  0
   22.2105   15.1928    5.9134 H   0  0  0  0  0  0  0  0  0  0  0  0
  1  2  1  0
  2  3  1  0
  3  4  2  0
  4  5  1  0
  5  6  1  0
  6  7  2  0
  6  8  2  0
  6  9  1  0
  9 10  2  0
 10 11  1  0
 11 12  1  0
 12 13  2  0
 12 14  1  0
 14 15  1  0
 15 16  1  0
 16 17  1  0
 17 18  1  0
 18 19  2  0
 18 20  1  0
 20 21  1  0
 21 22  2  0
 11 23  2  0
 23 24  1  0
 24 25  2  0
 25 26  1  0
 26 27  1  0
 27 28  2  0
  5 29  1  0
 29 30  2  0
 30  3  1  0
 28  9  1  0
 21 15  1  0
 27 23  1  0
  1 31  1  0
  1 32  1  0
  1 33  1  0
  2 34  1  0
  2 35  1  0
  4 36  1  0
 10 37  1  0
 14 38  1  0
 15 39  1  6
 16 40  1  0
 16 41  1  0
 17 42  1  0
 17 43  1  0
 20 44  1  0
 24 45  1  0
 26 46  1  0
 28 47  1  0
 29 48  1  0
M  END
>  <meeko>  (464) 
{"is_sidechain": [true], "free_energy": -10.8, "intermolecular_energy": 0.0, "internal_energy": -10.8, "cluster_size": 20, "cluster_id": 1, "rank_in_cluster": 1}

>  <_RMSD_MCS_to_ref>  (464) 
0.5296272273967799

$$$$
ligand
     RDKit          3D

 47 50  0  0  0  0  0  0  0  0999 V2000
   18.9090   19.1540    7.5370 C   0  0  0  0  0  0  0  0  0  0  0  0
   18.7730   17.6460    7.6780 C   0  0  0  0  0  0  0  0  0  0  0  0
   20.0500   16.9370    7.3910 C   0  0  0  0  0  0  0  0  0  0  0  0
   20.7090   15.9900    8.1500 C   0  0  0  0  0  0  0  0  0  0  0  0
   21.8090   15.6720    7.4060 N   0  0  0  0  0  0  0  0  0  0  0  0
   23.0620   14.6670    7.8810 S   0  0  0  0  0  6  0  0  0  0  0  0
   24.1160   14.8090    6.8950 O   0  0  0  0  0  0  0  0  0  0  0  0
   22.4500   13.3790    8.1700 O   0  0  0  0  0  0  0  0  0  0  0  0
   23.6120   15.3330    9.4210 C   0  0  0  0  0  0  0  0  0  0  0  0
   22.6910   15.3460   10.4210 N   0  0  0  0  0  0  0  0  0  0  0  0
   23.0530   15.8460   11.6320 C   0  0  0  0  0  0  0  0  0  0  0  0
   24.3110   16.3640   11.9370 C   0  0  0  0  0  0  0  0  0  0  0  0
   24.5670   16.8820   13.2900 C   0  0  0  0  0  0  0  0  0  0  0  0
   24.2100   16.2340   14.2660 O   0  0  0  0  0  0  0  0  0  0  0  0
   25.1650   18.1180   13.3840 N   0  0  0  0  0  0  0  0  0  0  0  0
   25.3130   18.7830   14.6750 C   0  0  1  0  0  0  0  0  0  0  0  0
   26.3140   18.0710   15.5780 C   0  0  0  0  0  0  0  0  0  0  0  0
   26.4560   18.8410   16.8830 C   0  0  0  0  0  0  0  0  0  0  0  0
   26.8460   20.2790   16.6320 C   0  0  0  0  0  0  0  0  0  0  0  0
   27.5680   20.9090   17.3990 O   0  0  0  0  0  0  0  0  0  0  0  0
   26.3270   20.8700   15.5070 N   0  0  0  0  0  0  0  0  0  0  0  0
   25.7960   20.2140   14.4250 C   0  0  0  0  0  0  0  0  0  0  0  0
   25.7070   20.7600   13.3250 O   0  0  0  0  0  0  0  0  0  0  0  0
   25.2720   16.3130   10.9140 C   0  0  0  0  0  0  0  0  0  0  0  0
   26.6410   16.6240   10.7440 C   0  0  0  0  0  0  0  0  0  0  0  0
   27.0870   16.3580    9.5150 N   0  0  0  0  0  0  0  0  0  0  0  0
   26.0120   15.8570    8.8830 N   0  0  0  0  0  0  0  0  0  0  0  0
   24.8950   15.7980    9.6750 C   0  0  0  0  0  0  0  0  0  0  0  0
   21.8260   16.4380    6.2850 C   0  0  0  0  0  0  0  0  0  0  0  0
   20.7570   17.2050    6.2350 N   0  0  0  0  0  0  0  0  0  0  0  0
   18.9504   19.6134    8.5356 H   0  0  0  0  0  0  0  0  0  0  0  0
   19.8320   19.3891    6.9867 H   0  0  0  0  0  0  0  0  0  0  0  0
   18.0430   19.5504    6.9867 H   0  0  0  0  0  0  0  0  0  0  0  0
   18.4620   17.4130    8.7071 H   0  0  0  0  0  0  0  0  0  0  0  0
   18.0254   17.3045    6.9469 H   0  0  0  0  0  0  0  0  0  0  0  0
   20.4151   15.5847    9.1295 H   0  0  0  0  0  0  0  0  0  0  0  0
   22.2970   15.8416   12.4310 H   0  0  0  0  0  0  0  0  0  0  0  0
   25.5129   18.5801   12.5317 H   0  0  0  0  0  0  0  0  0  0  0  0
   24.3384   18.7694   15.1848 H   0  0  0  0  0  0  0  0  0  0  0  0
   25.9568   17.0524   15.7901 H   0  0  0  0  0  0  0  0  0  0  0  0
   27.2905   18.0193   15.0743 H   0  0  0  0  0  0  0  0  0  0  0  0
   25.4955   18.8184   17.4187 H   0  0  0  0  0  0  0  0  0  0  0  0
   27.2469   18.3662   17.4821 H   0  0  0  0  0  0  0  0  0  0  0  0
   26.3370   21.8993   15.4718 H   0  0  0  0  0  0  0  0  0  0  0  0
   27.2725   17.0417   11.5420 H   0  0  0  0  0  0  0  0  0  0  0  0
   26.0261   15.5479    7.9006 H   0  0  0  0  0  0  0  0  0  0  0  0
   22.6213   16.4202    5.5252 H   0  0  0  0  0  0  0  0  0  0  0  0
  1  2  1  0
  2  3  1  0
  3  4  2  0
  4  5  1  0
  5  6  1  0
  6  7  2  0
  6  8  2  0
  6  9  1  0
  9 10  2  0
 10 11  1  0
 11 12  2  0
 12 13  1  0
 13 14  2  0
 13 15  1  0
 15 16  1  0
 16 17  1  0
 17 18  1  0
 18 19  1  0
 19 20  2  0
 19 21  1  0
 21 22  1  0
 22 23  2  0
 12 24  1  0
 24 25  1  0
 25 26  2  0
 26 27  1  0
 27 28  1  0
  5 29  1  0
 29 30  2  0
 30  3  1  0
 28  9  1  0
 22 16  1  0
 28 24  2  0
  1 31  1  0
  1 32  1  0
  1 33  1  0
  2 34  1  0
  2 35  1  0
  4 36  1  0
 11 37  1  0
 15 38  1  0
 16 39  1  1
 17 40  1  0
 17 41  1  0
 18 42  1  0
 18 43  1  0
 21 44  1  0
 25 45  1  0
 27 46  1  0
 29 47  1  0
M  END
>  <meeko>  (465) 
{"is_sidechain": [true], "free_energy": -10.8, "intermolecular_energy": 0.0, "internal_energy": -10.8, "cluster_size": 18, "cluster_id": 1, "rank_in_cluster": 1}

>  <_RMSD_MCS_to_ref>  (465) 
0.6876378245688484

$$$$
ligand
     RDKit          3D

 46 49  0  0  0  0  0  0  0  0999 V2000
   18.9090   19.1540    7.5370 C   0  0  0  0  0  0  0  0  0  0  0  0
   18.7730   17.6460    7.6780 C   0  0  0  0  0  0  0  0  0  0  0  0
   20.0830   16.9500    7.5580 C   0  0  0  0  0  0  0  0  0  0  0  0
   20.8990   16.4550    8.5570 C   0  0  0  0  0  0  0  0  0  0  0  0
   21.9580   15.9150    7.8870 N   0  0  0  0  0  0  0  0  0  0  0  0
   23.3890   15.3760    8.5790 S   0  0  0  0  0  6  0  0  0  0  0  0
   23.5070   13.9700    8.2590 O   0  0  0  0  0  0  0  0  0  0  0  0
   24.3980   16.3550    8.2190 O   0  0  0  0  0  0  0  0  0  0  0  0
   23.1370   15.5220   10.3140 C   0  0  0  0  0  0  0  0  0  0  0  0
   23.9080   16.3950   11.0790 C   0  0  0  0  0  0  0  0  0  0  0  0
   23.6660   16.4790   12.4510 C   0  0  0  0  0  0  0  0  0  0  0  0
   24.5070   17.4060   13.2750 C   0  0  0  0  0  0  0  0  0  0  0  0
   25.6590   17.6740   12.9520 O   0  0  0  0  0  0  0  0  0  0  0  0
   23.8950   17.9050   14.4000 N   0  0  0  0  0  0  0  0  0  0  0  0
   24.6030   18.7060   15.3850 C   0  0  1  0  0  0  0  0  0  0  0  0
   25.7070   17.9130   16.0760 C   0  0  0  0  0  0  0  0  0  0  0  0
   26.4210   18.8050   17.0790 C   0  0  0  0  0  0  0  0  0  0  0  0
   26.9560   20.0540   16.4210 C   0  0  0  0  0  0  0  0  0  0  0  0
   27.9890   20.6020   16.7920 O   0  0  0  0  0  0  0  0  0  0  0  0
   26.2080   20.5770   15.3970 N   0  0  0  0  0  0  0  0  0  0  0  0
   25.2180   19.9310   14.6980 C   0  0  0  0  0  0  0  0  0  0  0  0
   24.8490   20.3410   13.5990 O   0  0  0  0  0  0  0  0  0  0  0  0
   22.7220   15.7810   13.1370 N   0  0  0  0  0  0  0  0  0  0  0  0
   21.9730   14.9610   12.3680 C   0  0  0  0  0  0  0  0  0  0  0  0
   20.9520   14.1560   12.7800 N   0  0  0  0  0  0  0  0  0  0  0  0
   20.4770   13.5170   11.7150 N   0  0  0  0  0  0  0  0  0  0  0  0
   21.1890   13.9190   10.6490 N   0  0  0  0  0  0  0  0  0  0  0  0
   22.1520   14.8200   11.0050 C   0  0  0  0  0  0  0  0  0  0  0  0
   21.7910   16.1130    6.5550 C   0  0  0  0  0  0  0  0  0  0  0  0
   20.6570   16.7360    6.3200 N   0  0  0  0  0  0  0  0  0  0  0  0
   18.9504   19.6134    8.5356 H   0  0  0  0  0  0  0  0  0  0  0  0
   19.8320   19.3891    6.9867 H   0  0  0  0  0  0  0  0  0  0  0  0
   18.0430   19.5504    6.9867 H   0  0  0  0  0  0  0  0  0  0  0  0
   18.3407   17.4199    8.6639 H   0  0  0  0  0  0  0  0  0  0  0  0
   18.1244   17.2878    6.8649 H   0  0  0  0  0  0  0  0  0  0  0  0
   20.7330   16.4885    9.6439 H   0  0  0  0  0  0  0  0  0  0  0  0
   24.6929   17.0067   10.6102 H   0  0  0  0  0  0  0  0  0  0  0  0
   22.8962   17.7036   14.5509 H   0  0  0  0  0  0  0  0  0  0  0  0
   23.8765   19.0158   16.1507 H   0  0  0  0  0  0  0  0  0  0  0  0
   25.2667   17.0517   16.5998 H   0  0  0  0  0  0  0  0  0  0  0  0
   26.4273   17.5568   15.3248 H   0  0  0  0  0  0  0  0  0  0  0  0
   25.7129   19.0923   17.8702 H   0  0  0  0  0  0  0  0  0  0  0  0
   27.2689   18.2443   17.4994 H   0  0  0  0  0  0  0  0  0  0  0  0
   26.4086   21.5501   15.1256 H   0  0  0  0  0  0  0  0  0  0  0  0
   21.0291   13.5898    9.6862 H   0  0  0  0  0  0  0  0  0  0  0  0
   22.5046   15.7966    5.7800 H   0  0  0  0  0  0  0  0  0  0  0  0
  1  2  1  0
  2  3  1  0
  3  4  2  0
  4  5  1  0
  5  6  1  0
  6  7  2  0
  6  8  2  0
  6  9  1  0
  9 10  2  0
 10 11  1  0
 11 12  1  0
 12 13  2  0
 12 14  1  0
 14 15  1  0
 15 16  1  0
 16 17  1  0
 17 18  1  0
 18 19  2  0
 18 20  1  0
 20 21  1  0
 21 22  2  0
 11 23  2  0
 23 24  1  0
 24 25  1  0
 25 26  2  0
 26 27  1  0
 27 28  1  0
  5 29  1  0
 29 30  2  0
 30  3  1  0
 28  9  1  0
 21 15  1  0
 28 24  2  0
  1 31  1  0
  1 32  1  0
  1 33  1  0
  2 34  1  0
  2 35  1  0
  4 36  1  0
 10 37  1  0
 14 38  1  0
 15 39  1  1
 16 40  1  0
 16 41  1  0
 17 42  1  0
 17 43  1  0
 20 44  1  0
 27 45  1  0
 29 46  1  0
M  END
>  <meeko>  (466) 
{"is_sidechain": [true], "free_energy": -10.8, "intermolecular_energy": 0.0, "internal_energy": -10.8, "cluster_size": 19, "cluster_id": 1, "rank_in_cluster": 1}

>  <_RMSD_MCS_to_ref>  (466) 
0.6200302859986405

$$$$
ligand
     RDKit          3D

 50 53  0  0  0  0  0  0  0  0999 V2000
   18.9090   19.1540    7.5370 C   0  0  0  0  0  0  0  0  0  0  0  0
   18.7730   17.6460    7.6780 C   0  0  0  0  0  0  0  0  0  0  0  0
   20.0940   16.9610    7.6790 C   0  0  0  0  0  0  0  0  0  0  0  0
   20.9160   16.6620    8.7480 C   0  0  0  0  0  0  0  0  0  0  0  0
   21.9840   16.0280    8.1820 N   0  0  0  0  0  0  0  0  0  0  0  0
   23.4220   15.6160    8.9450 S   0  0  0  0  0  6  0  0  0  0  0  0
   23.8830   14.3970    8.3060 O   0  0  0  0  0  0  0  0  0  0  0  0
   24.2190   16.8300    8.9140 O   0  0  0  0  0  0  0  0  0  0  0  0
   22.8870   15.2830   10.6170 C   0  0  0  0  0  0  0  0  0  0  0  0
   23.7700   15.7960   11.5200 N   0  0  0  0  0  0  0  0  0  0  0  0
   23.4560   15.6380   12.8250 C   0  0  0  0  0  0  0  0  0  0  0  0
   24.4280   16.1970   13.8180 C   0  0  0  0  0  0  0  0  0  0  0  0
   24.8970   15.5040   14.7150 O   0  0  0  0  0  0  0  0  0  0  0  0
   24.7500   17.5220   13.6330 N   0  0  0  0  0  0  0  0  0  0  0  0
   25.7770   18.1870   14.4170 C   0  0  2  0  0  0  0  0  0  0  0  0
   25.6210   17.9060   15.9080 C   0  0  0  0  0  0  0  0  0  0  0  0
   26.7100   18.6340   16.6800 C   0  0  0  0  0  0  0  0  0  0  0  0
   26.6950   20.1150   16.3840 C   0  0  0  0  0  0  0  0  0  0  0  0
   27.0160   20.9550   17.2200 O   0  0  0  0  0  0  0  0  0  0  0  0
   26.3400   20.4840   15.1130 N   0  0  0  0  0  0  0  0  0  0  0  0
   25.7060   19.6980   14.1800 C   0  0  0  0  0  0  0  0  0  0  0  0
   25.1440   20.2020   13.2090 O   0  0  0  0  0  0  0  0  0  0  0  0
   22.3030   15.0090   13.2640 C   0  0  0  0  0  0  0  0  0  0  0  0
   21.4080   14.4940   12.3200 C   0  0  0  0  0  0  0  0  0  0  0  0
   20.2350   13.8570   12.7570 C   0  0  0  0  0  0  0  0  0  0  0  0
   19.3210   13.3330   11.8480 C   0  0  0  0  0  0  0  0  0  0  0  0
   19.5700   13.4340   10.4870 C   0  0  0  0  0  0  0  0  0  0  0  0
   20.7310   14.0630   10.0340 C   0  0  0  0  0  0  0  0  0  0  0  0
   21.6820   14.6130   10.9360 C   0  0  0  0  0  0  0  0  0  0  0  0
   21.8110   15.9800    6.8350 C   0  0  0  0  0  0  0  0  0  0  0  0
   20.6690   16.5390    6.4970 N   0  0  0  0  0  0  0  0  0  0  0  0
   18.9504   19.6134    8.5356 H   0  0  0  0  0  0  0  0  0  0  0  0
   19.8320   19.3891    6.9867 H   0  0  0  0  0  0  0  0  0  0  0  0
   18.0430   19.5504    6.9867 H   0  0  0  0  0  0  0  0  0  0  0  0
   18.2577   17.4235    8.6240 H   0  0  0  0  0  0  0  0  0  0  0  0
   18.2009   17.2759    6.8144 H   0  0  0  0  0  0  0  0  0  0  0  0
   20.7482   16.8841    9.8122 H   0  0  0  0  0  0  0  0  0  0  0  0
   24.2459   18.0608   12.9143 H   0  0  0  0  0  0  0  0  0  0  0  0
   26.7522   17.7937   14.0941 H   0  0  0  0  0  0  0  0  0  0  0  0
   24.6350   18.2578   16.2458 H   0  0  0  0  0  0  0  0  0  0  0  0
   25.7067   16.8241   16.0871 H   0  0  0  0  0  0  0  0  0  0  0  0
   26.5482   18.4821   17.7574 H   0  0  0  0  0  0  0  0  0  0  0  0
   27.6849   18.2280   16.3722 H   0  0  0  0  0  0  0  0  0  0  0  0
   26.5712   21.4464   14.8281 H   0  0  0  0  0  0  0  0  0  0  0  0
   22.0938   14.9156   14.3399 H   0  0  0  0  0  0  0  0  0  0  0  0
   20.0356   13.7709   13.8354 H   0  0  0  0  0  0  0  0  0  0  0  0
   18.4051   12.8409   12.2070 H   0  0  0  0  0  0  0  0  0  0  0  0
   18.8523   13.0183    9.7645 H   0  0  0  0  0  0  0  0  0  0  0  0
   20.9145   14.1348    8.9518 H   0  0  0  0  0  0  0  0  0  0  0  0
   22.5257   15.5359    6.1265 H   0  0  0  0  0  0  0  0  0  0  0  0
  1  2  1  0
  2  3  1  0
  3  4  2  0
  4  5  1  0
  5  6  1  0
  6  7  2  0
  6  8  2  0
  6  9  1  0
  9 10  2  0
 10 11  1  0
 11 12  1  0
 12 13  2  0
 12 14  1  0
 14 15  1  0
 15 16  1  0
 16 17  1  0
 17 18  1  0
 18 19  2  0
 18 20  1  0
 20 21  1  0
 21 22  2  0
 11 23  2  0
 23 24  1  0
 24 25  2  0
 25 26  1  0
 26 27  2  0
 27 28  1  0
 28 29  2  0
  5 30  1  0
 30 31  2  0
 31  3  1  0
 29  9  1  0
 21 15  1  0
 29 24  1  0
  1 32  1  0
  1 33  1  0
  1 34  1  0
  2 35  1  0
  2 36  1  0
  4 37  1  0
 14 38  1  0
 15 39  1  6
 16 40  1  0
 16 41  1  0
 17 42  1  0
 17 43  1  0
 20 44  1  0
 23 45  1  0
 25 46  1  0
 26 47  1  0
 27 48  1  0
 28 49  1  0
 30 50  1  0
M  END
>  <meeko>  (467) 
{"is_sidechain": [true], "free_energy": -10.8, "intermolecular_energy": 0.0, "internal_energy": -10.8, "cluster_size": 20, "cluster_id": 1, "rank_in_cluster": 1}

>  <_RMSD_MCS_to_ref>  (467) 
0.5250615836896342

$$$$
ligand
     RDKit          3D

 49 52  0  0  0  0  0  0  0  0999 V2000
   18.9090   19.1540    7.5370 C   0  0  0  0  0  0  0  0  0  0  0  0
   18.7730   17.6460    7.6780 C   0  0  0  0  0  0  0  0  0  0  0  0
   20.0230   16.9310    7.3000 C   0  0  0  0  0  0  0  0  0  0  0  0
   20.4260   15.6520    7.6280 C   0  0  0  0  0  0  0  0  0  0  0  0
   21.6310   15.5090    7.0010 N   0  0  0  0  0  0  0  0  0  0  0  0
   22.6970   14.2290    7.1950 S   0  0  0  0  0  6  0  0  0  0  0  0
   23.0620   13.8200    5.8540 O   0  0  0  0  0  0  0  0  0  0  0  0
   22.0530   13.3320    8.1360 O   0  0  0  0  0  0  0  0  0  0  0  0
   24.1650   14.8420    7.9760 C   0  0  0  0  0  0  0  0  0  0  0  0
   25.4080   14.7570    7.3390 C   0  0  0  0  0  0  0  0  0  0  0  0
   26.5350   15.2500    7.9840 C   0  0  0  0  0  0  0  0  0  0  0  0
   26.4180   15.8220    9.2520 C   0  0  0  0  0  0  0  0  0  0  0  0
   25.1990   15.9200    9.9070 C   0  0  0  0  0  0  0  0  0  0  0  0
   25.1880   16.4830   11.1170 N   0  0  0  0  0  0  0  0  0  0  0  0
   24.0020   16.5700   11.7420 C   0  0  0  0  0  0  0  0  0  0  0  0
   23.9720   17.2010   13.1160 C   0  0  0  0  0  0  0  0  0  0  0  0
   22.9690   17.2110   13.8230 O   0  0  0  0  0  0  0  0  0  0  0  0
   25.1650   17.7820   13.5140 N   0  0  0  0  0  0  0  0  0  0  0  0
   25.2740   18.5750   14.7250 C   0  0  1  0  0  0  0  0  0  0  0  0
   26.1990   17.9270   15.7510 C   0  0  0  0  0  0  0  0  0  0  0  0
   26.2870   18.8130   16.9850 C   0  0  0  0  0  0  0  0  0  0  0  0
   26.7360   20.2100   16.6260 C   0  0  0  0  0  0  0  0  0  0  0  0
   27.4260   20.8920   17.3760 O   0  0  0  0  0  0  0  0  0  0  0  0
   26.3060   20.7020   15.4200 N   0  0  0  0  0  0  0  0  0  0  0  0
   25.8150   19.9640   14.3710 C   0  0  0  0  0  0  0  0  0  0  0  0
   25.8040   20.4200   13.2280 O   0  0  0  0  0  0  0  0  0  0  0  0
   22.8220   16.1380   11.2550 N   0  0  0  0  0  0  0  0  0  0  0  0
   22.8790   15.5770   10.0310 C   0  0  0  0  0  0  0  0  0  0  0  0
   24.0480   15.4260    9.2730 C   0  0  0  0  0  0  0  0  0  0  0  0
   21.9380   16.6640    6.3550 C   0  0  0  0  0  0  0  0  0  0  0  0
   20.9830   17.5540    6.5270 N   0  0  0  0  0  0  0  0  0  0  0  0
   18.9504   19.6134    8.5356 H   0  0  0  0  0  0  0  0  0  0  0  0
   19.8320   19.3891    6.9867 H   0  0  0  0  0  0  0  0  0  0  0  0
   18.0430   19.5504    6.9867 H   0  0  0  0  0  0  0  0  0  0  0  0
   18.5316   17.4084    8.7245 H   0  0  0  0  0  0  0  0  0  0  0  0
   17.9749   17.3138    6.9978 H   0  0  0  0  0  0  0  0  0  0  0  0
   19.8974   14.9162    8.2518 H   0  0  0  0  0  0  0  0  0  0  0  0
   25.4916   14.3052    6.3395 H   0  0  0  0  0  0  0  0  0  0  0  0
   27.5190   15.1898    7.4960 H   0  0  0  0  0  0  0  0  0  0  0  0
   27.3212   16.2073    9.7477 H   0  0  0  0  0  0  0  0  0  0  0  0
   26.0031   17.6467   12.9308 H   0  0  0  0  0  0  0  0  0  0  0  0
   24.2710   18.6480   15.1706 H   0  0  0  0  0  0  0  0  0  0  0  0
   25.7996   16.9421   16.0344 H   0  0  0  0  0  0  0  0  0  0  0  0
   27.2015   17.8043   15.3152 H   0  0  0  0  0  0  0  0  0  0  0  0
   25.2961   18.8659   17.4597 H   0  0  0  0  0  0  0  0  0  0  0  0
   27.0254   18.3770   17.6739 H   0  0  0  0  0  0  0  0  0  0  0  0
   26.3561   21.7223   15.2886 H   0  0  0  0  0  0  0  0  0  0  0  0
   21.9382   15.2104    9.5945 H   0  0  0  0  0  0  0  0  0  0  0  0
   22.8548   16.8319    5.7708 H   0  0  0  0  0  0  0  0  0  0  0  0
  1  2  1  0
  2  3  1  0
  3  4  2  0
  4  5  1  0
  5  6  1  0
  6  7  2  0
  6  8  2  0
  6  9  1  0
  9 10  2  0
 10 11  1  0
 11 12  2  0
 12 13  1  0
 13 14  2  0
 14 15  1  0
 15 16  1  0
 16 17  2  0
 16 18  1  0
 18 19  1  0
 19 20  1  0
 20 21  1  0
 21 22  1  0
 22 23  2  0
 22 24  1  0
 24 25  1  0
 25 26  2  0
 15 27  2  0
 27 28  1  0
 28 29  2  0
  5 30  1  0
 30 31  2  0
 31  3  1  0
 29  9  1  0
 29 13  1  0
 25 19  1  0
  1 32  1  0
  1 33  1  0
  1 34  1  0
  2 35  1  0
  2 36  1  0
  4 37  1  0
 10 38  1  0
 11 39  1  0
 12 40  1  0
 18 41  1  0
 19 42  1  1
 20 43  1  0
 20 44  1  0
 21 45  1  0
 21 46  1  0
 24 47  1  0
 28 48  1  0
 30 49  1  0
M  END
>  <meeko>  (468) 
{"is_sidechain": [true], "free_energy": -10.8, "intermolecular_energy": 0.0, "internal_energy": -10.8, "cluster_size": 19, "cluster_id": 1, "rank_in_cluster": 1}

>  <_RMSD_MCS_to_ref>  (468) 
0.5842579339070487

$$$$
ligand
     RDKit          3D

 48 51  0  0  0  0  0  0  0  0999 V2000
   18.9090   19.1540    7.5370 C   0  0  0  0  0  0  0  0  0  0  0  0
   18.7730   17.6460    7.6780 C   0  0  0  0  0  0  0  0  0  0  0  0
   20.0400   16.9360    7.3530 C   0  0  0  0  0  0  0  0  0  0  0  0
   20.4940   15.7130    7.8040 C   0  0  0  0  0  0  0  0  0  0  0  0
   21.7080   15.5630    7.1970 N   0  0  0  0  0  0  0  0  0  0  0  0
   22.6980   14.2120    7.3310 S   0  0  0  0  0  6  0  0  0  0  0  0
   23.0550   13.8920    5.9600 O   0  0  0  0  0  0  0  0  0  0  0  0
   22.0170   13.2590    8.1810 O   0  0  0  0  0  0  0  0  0  0  0  0
   24.1630   14.7540    8.1510 C   0  0  0  0  0  0  0  0  0  0  0  0
   25.4000   14.5480    7.5250 C   0  0  0  0  0  0  0  0  0  0  0  0
   26.5580   14.9630    8.1650 C   0  0  0  0  0  0  0  0  0  0  0  0
   26.4690   15.5700    9.4170 C   0  0  0  0  0  0  0  0  0  0  0  0
   25.2480   15.7670   10.0480 C   0  0  0  0  0  0  0  0  0  0  0  0
   25.2500   16.3540   11.2530 N   0  0  0  0  0  0  0  0  0  0  0  0
   24.0370   16.5200   11.8250 C   0  0  0  0  0  0  0  0  0  0  0  0
   24.0000   17.1790   13.1750 C   0  0  0  0  0  0  0  0  0  0  0  0
   22.9830   17.2300   13.8590 O   0  0  0  0  0  0  0  0  0  0  0  0
   25.1980   17.7400   13.5850 N   0  0  0  0  0  0  0  0  0  0  0  0
   25.3000   18.5640   14.7770 C   0  0  1  0  0  0  0  0  0  0  0  0
   26.2130   17.9450   15.8290 C   0  0  0  0  0  0  0  0  0  0  0  0
   26.3020   18.8690   17.0330 C   0  0  0  0  0  0  0  0  0  0  0  0
   26.7610   20.2510   16.6310 C   0  0  0  0  0  0  0  0  0  0  0  0
   27.4620   20.9510   17.3560 O   0  0  0  0  0  0  0  0  0  0  0  0
   26.3300   20.7110   15.4130 N   0  0  0  0  0  0  0  0  0  0  0  0
   25.8510   19.9390   14.3830 C   0  0  0  0  0  0  0  0  0  0  0  0
   25.8640   20.3480   13.2230 O   0  0  0  0  0  0  0  0  0  0  0  0
   22.8710   16.1480   11.2710 N   0  0  0  0  0  0  0  0  0  0  0  0
   22.8970   15.5520   10.0430 N   0  0  0  0  0  0  0  0  0  0  0  0
   24.0640   15.3510    9.4070 C   0  0  0  0  0  0  0  0  0  0  0  0
   21.9510   16.6390    6.4080 C   0  0  0  0  0  0  0  0  0  0  0  0
   20.9560   17.4990    6.4870 N   0  0  0  0  0  0  0  0  0  0  0  0
   18.9504   19.6134    8.5356 H   0  0  0  0  0  0  0  0  0  0  0  0
   19.8320   19.3891    6.9867 H   0  0  0  0  0  0  0  0  0  0  0  0
   18.0430   19.5504    6.9867 H   0  0  0  0  0  0  0  0  0  0  0  0
   18.4907   17.4109    8.7148 H   0  0  0  0  0  0  0  0  0  0  0  0
   18.0039   17.3078    6.9681 H   0  0  0  0  0  0  0  0  0  0  0  0
   19.9928   15.0184    8.4942 H   0  0  0  0  0  0  0  0  0  0  0  0
   25.4515   14.0634    6.5388 H   0  0  0  0  0  0  0  0  0  0  0  0
   27.5385   14.8146    7.6890 H   0  0  0  0  0  0  0  0  0  0  0  0
   27.3904   15.9016    9.9181 H   0  0  0  0  0  0  0  0  0  0  0  0
   26.0455   17.5671   13.0257 H   0  0  0  0  0  0  0  0  0  0  0  0
   24.2949   18.6503   15.2154 H   0  0  0  0  0  0  0  0  0  0  0  0
   25.8042   16.9731   16.1426 H   0  0  0  0  0  0  0  0  0  0  0  0
   27.2170   17.8015   15.4031 H   0  0  0  0  0  0  0  0  0  0  0  0
   25.3097   18.9432   17.5020 H   0  0  0  0  0  0  0  0  0  0  0  0
   27.0353   18.4509   17.7383 H   0  0  0  0  0  0  0  0  0  0  0  0
   26.3691   21.7283   15.2564 H   0  0  0  0  0  0  0  0  0  0  0  0
   22.8508   16.7744    5.7900 H   0  0  0  0  0  0  0  0  0  0  0  0
  1  2  1  0
  2  3  1  0
  3  4  2  0
  4  5  1  0
  5  6  1  0
  6  7  2  0
  6  8  2  0
  6  9  1  0
  9 10  2  0
 10 11  1  0
 11 12  2  0
 12 13  1  0
 13 14  2  0
 14 15  1  0
 15 16  1  0
 16 17  2  0
 16 18  1  0
 18 19  1  0
 19 20  1  0
 20 21  1  0
 21 22  1  0
 22 23  2  0
 22 24  1  0
 24 25  1  0
 25 26  2  0
 15 27  2  0
 27 28  1  0
 28 29  2  0
  5 30  1  0
 30 31  2  0
 31  3  1  0
 29  9  1  0
 29 13  1  0
 25 19  1  0
  1 32  1  0
  1 33  1  0
  1 34  1  0
  2 35  1  0
  2 36  1  0
  4 37  1  0
 10 38  1  0
 11 39  1  0
 12 40  1  0
 18 41  1  0
 19 42  1  1
 20 43  1  0
 20 44  1  0
 21 45  1  0
 21 46  1  0
 24 47  1  0
 30 48  1  0
M  END
>  <meeko>  (469) 
{"is_sidechain": [true], "free_energy": -10.8, "intermolecular_energy": 0.0, "internal_energy": -10.8, "cluster_size": 20, "cluster_id": 1, "rank_in_cluster": 1}

>  <_RMSD_MCS_to_ref>  (469) 
0.615687149993133

$$$$
ligand
     RDKit          3D

 46 49  0  0  0  0  0  0  0  0999 V2000
   18.9090   19.1540    7.5370 C   0  0  0  0  0  0  0  0  0  0  0  0
   18.7730   17.6460    7.6780 C   0  0  0  0  0  0  0  0  0  0  0  0
   20.0960   16.9670    7.7320 C   0  0  0  0  0  0  0  0  0  0  0  0
   20.9560   16.8290    8.8040 C   0  0  0  0  0  0  0  0  0  0  0  0
   22.0110   16.1240    8.2980 N   0  0  0  0  0  0  0  0  0  0  0  0
   23.3070   15.5070    9.1710 S   0  0  0  0  0  6  0  0  0  0  0  0
   23.5690   14.2080    8.5730 O   0  0  0  0  0  0  0  0  0  0  0  0
   24.2970   16.5700    9.1940 O   0  0  0  0  0  0  0  0  0  0  0  0
   22.6620   15.2730   10.8150 C   0  0  0  0  0  0  0  0  0  0  0  0
   23.3700   15.8620   11.7950 N   0  0  0  0  0  0  0  0  0  0  0  0
   22.9150   15.6870   13.0620 C   0  0  0  0  0  0  0  0  0  0  0  0
   23.7010   16.3370   14.1500 C   0  0  0  0  0  0  0  0  0  0  0  0
   24.1060   15.7160   15.1250 O   0  0  0  0  0  0  0  0  0  0  0  0
   23.9240   17.6850   13.9720 N   0  0  0  0  0  0  0  0  0  0  0  0
   24.5480   18.5140   14.9890 C   0  0  1  0  0  0  0  0  0  0  0  0
   25.7090   17.8000   15.6730 C   0  0  0  0  0  0  0  0  0  0  0  0
   26.3340   18.7230   16.7070 C   0  0  0  0  0  0  0  0  0  0  0  0
   26.7660   20.0310   16.0860 C   0  0  0  0  0  0  0  0  0  0  0  0
   27.7470   20.6550   16.4820 O   0  0  0  0  0  0  0  0  0  0  0  0
   25.9850   20.5160   15.0690 N   0  0  0  0  0  0  0  0  0  0  0  0
   25.0640   19.8030   14.3410 C   0  0  0  0  0  0  0  0  0  0  0  0
   24.6750   20.2040   13.2450 O   0  0  0  0  0  0  0  0  0  0  0  0
   21.7630   14.9260   13.3130 C   0  0  0  0  0  0  0  0  0  0  0  0
   21.0370   14.5560   14.4960 C   0  0  0  0  0  0  0  0  0  0  0  0
   19.9360   13.7720   14.2260 C   0  0  0  0  0  0  0  0  0  0  0  0
   19.7650   13.4720   12.5540 S   0  0  0  0  0  0  0  0  0  0  0  0
   21.1550   14.3860   12.1880 C   0  0  0  0  0  0  0  0  0  0  0  0
   21.5590   14.5210   10.9130 N   0  0  0  0  0  0  0  0  0  0  0  0
   21.7700   15.8380    6.9910 C   0  0  0  0  0  0  0  0  0  0  0  0
   20.6160   16.3460    6.6130 N   0  0  0  0  0  0  0  0  0  0  0  0
   18.9504   19.6134    8.5356 H   0  0  0  0  0  0  0  0  0  0  0  0
   19.8320   19.3891    6.9867 H   0  0  0  0  0  0  0  0  0  0  0  0
   18.0430   19.5504    6.9867 H   0  0  0  0  0  0  0  0  0  0  0  0
   18.2227   17.4246    8.6044 H   0  0  0  0  0  0  0  0  0  0  0  0
   18.2354   17.2704    6.7948 H   0  0  0  0  0  0  0  0  0  0  0  0
   20.8220   17.2015    9.8303 H   0  0  0  0  0  0  0  0  0  0  0  0
   23.6374   18.1216   13.0842 H   0  0  0  0  0  0  0  0  0  0  0  0
   23.7898   18.7380   15.7538 H   0  0  0  0  0  0  0  0  0  0  0  0
   25.3389   16.8908   16.1693 H   0  0  0  0  0  0  0  0  0  0  0  0
   26.4645   17.5264   14.9218 H   0  0  0  0  0  0  0  0  0  0  0  0
   25.5963   18.9278   17.4969 H   0  0  0  0  0  0  0  0  0  0  0  0
   27.2227   18.2263   17.1235 H   0  0  0  0  0  0  0  0  0  0  0  0
   26.0999   21.5107   14.8276 H   0  0  0  0  0  0  0  0  0  0  0  0
   21.3289   14.8657   15.5103 H   0  0  0  0  0  0  0  0  0  0  0  0
   19.2504   13.3862   14.9948 H   0  0  0  0  0  0  0  0  0  0  0  0
   22.4449   15.2626    6.3404 H   0  0  0  0  0  0  0  0  0  0  0  0
  1  2  1  0
  2  3  1  0
  3  4  2  0
  4  5  1  0
  5  6  1  0
  6  7  2  0
  6  8  2  0
  6  9  1  0
  9 10  2  0
 10 11  1  0
 11 12  1  0
 12 13  2  0
 12 14  1  0
 14 15  1  0
 15 16  1  0
 16 17  1  0
 17 18  1  0
 18 19  2  0
 18 20  1  0
 20 21  1  0
 21 22  2  0
 11 23  2  0
 23 24  1  0
 24 25  2  0
 25 26  1  0
 26 27  1  0
 27 28  2  0
  5 29  1  0
 29 30  2  0
 30  3  1  0
 28  9  1  0
 21 15  1  0
 27 23  1  0
  1 31  1  0
  1 32  1  0
  1 33  1  0
  2 34  1  0
  2 35  1  0
  4 36  1  0
 14 37  1  0
 15 38  1  1
 16 39  1  0
 16 40  1  0
 17 41  1  0
 17 42  1  0
 20 43  1  0
 24 44  1  0
 25 45  1  0
 29 46  1  0
M  END
>  <meeko>  (470) 
{"is_sidechain": [true], "free_energy": -10.8, "intermolecular_energy": 0.0, "internal_energy": -10.8, "cluster_size": 19, "cluster_id": 1, "rank_in_cluster": 1}

>  <_RMSD_MCS_to_ref>  (470) 
0.4575446547727462

$$$$
ligand
     RDKit          3D

 50 53  0  0  0  0  0  0  0  0999 V2000
   18.9090   19.1540    7.5370 C   0  0  0  0  0  0  0  0  0  0  0  0
   18.7730   17.6460    7.6780 C   0  0  0  0  0  0  0  0  0  0  0  0
   20.0920   16.9590    7.6610 C   0  0  0  0  0  0  0  0  0  0  0  0
   20.9960   16.7870    8.6920 C   0  0  0  0  0  0  0  0  0  0  0  0
   22.0180   16.0780    8.1270 N   0  0  0  0  0  0  0  0  0  0  0  0
   23.4260   15.6020    8.9070 S   0  0  0  0  0  6  0  0  0  0  0  0
   24.3680   16.7000    8.8000 O   0  0  0  0  0  0  0  0  0  0  0  0
   23.7150   14.2940    8.3460 O   0  0  0  0  0  0  0  0  0  0  0  0
   23.0190   15.3790   10.6140 C   0  0  0  0  0  0  0  0  0  0  0  0
   23.9020   15.9000   11.5760 C   0  0  0  0  0  0  0  0  0  0  0  0
   23.6220   15.7640   12.9420 C   0  0  0  0  0  0  0  0  0  0  0  0
   24.5920   16.3170   13.9250 C   0  0  0  0  0  0  0  0  0  0  0  0
   25.1740   15.5650   14.6970 O   0  0  0  0  0  0  0  0  0  0  0  0
   24.8050   17.6750   13.8900 N   0  0  0  0  0  0  0  0  0  0  0  0
   25.8440   18.2910   14.7070 C   0  0  2  0  0  0  0  0  0  0  0  0
   25.6530   18.0060   16.1930 C   0  0  0  0  0  0  0  0  0  0  0  0
   26.7430   18.7110   16.9870 C   0  0  0  0  0  0  0  0  0  0  0  0
   26.7610   20.1930   16.6970 C   0  0  0  0  0  0  0  0  0  0  0  0
   27.0570   21.0270   17.5460 O   0  0  0  0  0  0  0  0  0  0  0  0
   26.4570   20.5720   15.4140 N   0  0  0  0  0  0  0  0  0  0  0  0
   25.8060   19.8050   14.4800 C   0  0  0  0  0  0  0  0  0  0  0  0
   25.2410   20.3180   13.5140 O   0  0  0  0  0  0  0  0  0  0  0  0
   22.4670   15.0900   13.3410 C   0  0  0  0  0  0  0  0  0  0  0  0
   21.5960   14.5810   12.3670 C   0  0  0  0  0  0  0  0  0  0  0  0
   20.3710   13.8670   12.7740 C   0  0  0  0  0  0  0  0  0  0  0  0
   20.0830   13.6980   13.9520 O   0  0  0  0  0  0  0  0  0  0  0  0
   19.5850   13.4070   11.7530 N   0  0  0  0  0  0  0  0  0  0  0  0
   19.8990   13.5960   10.4400 C   0  0  0  0  0  0  0  0  0  0  0  0
   20.9570   14.2120   10.0360 N   0  0  0  0  0  0  0  0  0  0  0  0
   21.8490   14.7190   10.9950 C   0  0  0  0  0  0  0  0  0  0  0  0
   21.7280   15.8420    6.8220 C   0  0  0  0  0  0  0  0  0  0  0  0
   20.5640   16.3740    6.5010 N   0  0  0  0  0  0  0  0  0  0  0  0
   18.9504   19.6134    8.5356 H   0  0  0  0  0  0  0  0  0  0  0  0
   19.8320   19.3891    6.9867 H   0  0  0  0  0  0  0  0  0  0  0  0
   18.0430   19.5504    6.9867 H   0  0  0  0  0  0  0  0  0  0  0  0
   18.2698   17.4232    8.6304 H   0  0  0  0  0  0  0  0  0  0  0  0
   18.1895   17.2780    6.8213 H   0  0  0  0  0  0  0  0  0  0  0  0
   20.9119   17.1402    9.7303 H   0  0  0  0  0  0  0  0  0  0  0  0
   24.8179   16.4174   11.2544 H   0  0  0  0  0  0  0  0  0  0  0  0
   24.2229   18.2650   13.2785 H   0  0  0  0  0  0  0  0  0  0  0  0
   26.8131   17.8648   14.4083 H   0  0  0  0  0  0  0  0  0  0  0  0
   24.6679   18.3755   16.5139 H   0  0  0  0  0  0  0  0  0  0  0  0
   25.7124   16.9219   16.3698 H   0  0  0  0  0  0  0  0  0  0  0  0
   26.5600   18.5581   18.0608 H   0  0  0  0  0  0  0  0  0  0  0  0
   27.7152   18.2878   16.6940 H   0  0  0  0  0  0  0  0  0  0  0  0
   26.7433   21.5183   15.1252 H   0  0  0  0  0  0  0  0  0  0  0  0
   22.2419   14.9592   14.4097 H   0  0  0  0  0  0  0  0  0  0  0  0
   18.7209   12.8972   11.9859 H   0  0  0  0  0  0  0  0  0  0  0  0
   19.2090   13.1996    9.6805 H   0  0  0  0  0  0  0  0  0  0  0  0
   22.3741   15.2843    6.1281 H   0  0  0  0  0  0  0  0  0  0  0  0
  1  2  1  0
  2  3  1  0
  3  4  2  0
  4  5  1  0
  5  6  1  0
  6  7  2  0
  6  8  2  0
  6  9  1  0
  9 10  2  0
 10 11  1  0
 11 12  1  0
 12 13  2  0
 12 14  1  0
 14 15  1  0
 15 16  1  0
 16 17  1  0
 17 18  1  0
 18 19  2  0
 18 20  1  0
 20 21  1  0
 21 22  2  0
 11 23  2  0
 23 24  1  0
 24 25  1  0
 25 26  2  0
 25 27  1  0
 27 28  1  0
 28 29  2  0
 29 30  1  0
  5 31  1  0
 31 32  2  0
 32  3  1  0
 30  9  1  0
 21 15  1  0
 30 24  2  0
  1 33  1  0
  1 34  1  0
  1 35  1  0
  2 36  1  0
  2 37  1  0
  4 38  1  0
 10 39  1  0
 14 40  1  0
 15 41  1  6
 16 42  1  0
 16 43  1  0
 17 44  1  0
 17 45  1  0
 20 46  1  0
 23 47  1  0
 27 48  1  0
 28 49  1  0
 31 50  1  0
M  END
>  <meeko>  (471) 
{"is_sidechain": [true], "free_energy": -10.8, "intermolecular_energy": 0.0, "internal_energy": -10.8, "cluster_size": 18, "cluster_id": 1, "rank_in_cluster": 1}

>  <_RMSD_MCS_to_ref>  (471) 
0.6216453079440795

$$$$
ligand
     RDKit          3D

 52 56  0  0  0  0  0  0  0  0999 V2000
   18.9090   19.1540    7.5370 C   0  0  0  0  0  0  0  0  0  0  0  0
   18.7730   17.6460    7.6780 C   0  0  0  0  0  0  0  0  0  0  0  0
   19.8970   16.9170    7.0300 C   0  0  0  0  0  0  0  0  0  0  0  0
   20.3680   15.6440    7.2830 C   0  0  0  0  0  0  0  0  0  0  0  0
   21.3870   15.4810    6.3880 N   0  0  0  0  0  0  0  0  0  0  0  0
   22.4840   14.2080    6.3700 S   0  0  0  0  0  6  0  0  0  0  0  0
   21.7780   13.0730    6.9310 O   0  0  0  0  0  0  0  0  0  0  0  0
   23.0480   14.1900    5.0350 O   0  0  0  0  0  0  0  0  0  0  0  0
   23.7260   14.7150    7.4980 C   0  0  0  0  0  0  0  0  0  0  0  0
   23.4350   15.6590    8.4530 C   0  0  0  0  0  0  0  0  0  0  0  0
   24.3470   16.1040    9.3480 N   0  0  0  0  0  0  0  0  0  0  0  0
   25.6090   15.5970    9.3400 C   0  0  0  0  0  0  0  0  0  0  0  0
   26.6060   16.0080   10.2510 C   0  0  0  0  0  0  0  0  0  0  0  0
   26.3700   17.0220   11.2720 C   0  0  0  0  0  0  0  0  0  0  0  0
   25.4170   17.0240   12.2670 C   0  0  0  0  0  0  0  0  0  0  0  0
   25.6190   18.2010   12.9230 N   0  0  0  0  0  0  0  0  0  0  0  0
   24.9270   18.6870   14.1000 C   0  0  1  0  0  0  0  0  0  0  0  0
   25.3480   17.9990   15.4000 C   0  0  0  0  0  0  0  0  0  0  0  0
   26.6900   18.4990   15.9170 C   0  0  0  0  0  0  0  0  0  0  0  0
   26.7310   20.0040   16.0010 C   0  0  0  0  0  0  0  0  0  0  0  0
   27.4210   20.5980   16.8240 O   0  0  0  0  0  0  0  0  0  0  0  0
   25.9690   20.6930   15.0920 N   0  0  0  0  0  0  0  0  0  0  0  0
   25.0450   20.1930   14.2070 C   0  0  0  0  0  0  0  0  0  0  0  0
   24.3450   20.9550   13.5400 O   0  0  0  0  0  0  0  0  0  0  0  0
   26.6190   18.9050   12.3670 N   0  0  0  0  0  0  0  0  0  0  0  0
   27.0860   18.1940   11.3500 N   0  0  0  0  0  0  0  0  0  0  0  0
   27.8910   15.4290   10.2130 C   0  0  0  0  0  0  0  0  0  0  0  0
   28.2110   14.4540    9.2770 C   0  0  0  0  0  0  0  0  0  0  0  0
   27.2470   14.0420    8.3680 C   0  0  0  0  0  0  0  0  0  0  0  0
   25.9590   14.5990    8.3930 C   0  0  0  0  0  0  0  0  0  0  0  0
   24.9990   14.1630    7.4700 C   0  0  0  0  0  0  0  0  0  0  0  0
   21.5410   16.6250    5.6740 C   0  0  0  0  0  0  0  0  0  0  0  0
   20.6440   17.5170    6.0360 N   0  0  0  0  0  0  0  0  0  0  0  0
   18.9504   19.6134    8.5356 H   0  0  0  0  0  0  0  0  0  0  0  0
   19.8320   19.3891    6.9867 H   0  0  0  0  0  0  0  0  0  0  0  0
   18.0430   19.5504    6.9867 H   0  0  0  0  0  0  0  0  0  0  0  0
   18.7550   17.3905    8.7478 H   0  0  0  0  0  0  0  0  0  0  0  0
   17.8412   17.3428    7.1782 H   0  0  0  0  0  0  0  0  0  0  0  0
   20.0057   14.9258    8.0333 H   0  0  0  0  0  0  0  0  0  0  0  0
   22.4158   16.0711    8.4917 H   0  0  0  0  0  0  0  0  0  0  0  0
   24.6644   16.2513   12.4827 H   0  0  0  0  0  0  0  0  0  0  0  0
   23.8688   18.4202   13.9621 H   0  0  0  0  0  0  0  0  0  0  0  0
   24.5815   18.1915   16.1651 H   0  0  0  0  0  0  0  0  0  0  0  0
   25.4502   16.9239   15.1909 H   0  0  0  0  0  0  0  0  0  0  0  0
   26.8635   18.0814   16.9197 H   0  0  0  0  0  0  0  0  0  0  0  0
   27.4706   18.1740   15.2134 H   0  0  0  0  0  0  0  0  0  0  0  0
   26.1070   21.7135   15.0703 H   0  0  0  0  0  0  0  0  0  0  0  0
   28.6527   15.7548   10.9366 H   0  0  0  0  0  0  0  0  0  0  0  0
   29.2185   14.0129    9.2565 H   0  0  0  0  0  0  0  0  0  0  0  0
   27.4943   13.2726    7.6217 H   0  0  0  0  0  0  0  0  0  0  0  0
   25.2522   13.3899    6.7296 H   0  0  0  0  0  0  0  0  0  0  0  0
   22.3078   16.7840    4.9015 H   0  0  0  0  0  0  0  0  0  0  0  0
  1  2  1  0
  2  3  1  0
  3  4  2  0
  4  5  1  0
  5  6  1  0
  6  7  2  0
  6  8  2  0
  6  9  1  0
  9 10  2  0
 10 11  1  0
 11 12  2  0
 12 13  1  0
 13 14  1  0
 14 15  2  0
 15 16  1  0
 16 17  1  0
 17 18  1  0
 18 19  1  0
 19 20  1  0
 20 21  2  0
 20 22  1  0
 22 23  1  0
 23 24  2  0
 16 25  1  0
 25 26  2  0
 13 27  2  0
 27 28  1  0
 28 29  2  0
 29 30  1  0
 30 31  2  0
  5 32  1  0
 32 33  2  0
 33  3  1  0
 31  9  1  0
 30 12  1  0
 26 14  1  0
 23 17  1  0
  1 34  1  0
  1 35  1  0
  1 36  1  0
  2 37  1  0
  2 38  1  0
  4 39  1  0
 10 40  1  0
 15 41  1  0
 17 42  1  6
 18 43  1  0
 18 44  1  0
 19 45  1  0
 19 46  1  0
 22 47  1  0
 27 48  1  0
 28 49  1  0
 29 50  1  0
 31 51  1  0
 32 52  1  0
M  END
>  <meeko>  (472) 
{"is_sidechain": [true], "free_energy": -10.8, "intermolecular_energy": 0.0, "internal_energy": -10.8, "cluster_size": 12, "cluster_id": 1, "rank_in_cluster": 1}

>  <_RMSD_MCS_to_ref>  (472) 
0.7535659670305365

$$$$
ligand
     RDKit          3D

 52 56  0  0  0  0  0  0  0  0999 V2000
   18.7970   18.8170    7.7190 C   0  0  0  0  0  0  0  0  0  0  0  0
   18.5280   17.3290    7.8810 C   0  0  0  0  0  0  0  0  0  0  0  0
   19.7650   16.5650    8.1950 C   0  0  0  0  0  0  0  0  0  0  0  0
   20.7990   16.1980    7.3540 C   0  0  0  0  0  0  0  0  0  0  0  0
   21.6490   15.4920    8.1560 N   0  0  0  0  0  0  0  0  0  0  0  0
   23.2110   15.0300    7.7480 S   0  0  0  0  0  6  0  0  0  0  0  0
   23.1800   14.7210    6.3360 O   0  0  0  0  0  0  0  0  0  0  0  0
   24.0780   16.0300    8.3340 O   0  0  0  0  0  0  0  0  0  0  0  0
   23.5930   13.5350    8.5450 C   0  0  0  0  0  0  0  0  0  0  0  0
   23.7630   12.2680    8.0210 C   0  0  0  0  0  0  0  0  0  0  0  0
   23.8790   11.3580    9.0150 N   0  0  0  0  0  0  0  0  0  0  0  0
   23.7890   12.0090   10.1610 N   0  0  0  0  0  0  0  0  0  0  0  0
   23.7120   13.3500    9.9130 N   0  0  0  0  0  0  0  0  0  0  0  0
   23.7780   14.2430   11.0270 C   0  0  0  0  0  0  0  0  0  0  0  0
   22.7040   14.4250   11.9250 C   0  0  0  0  0  0  0  0  0  0  0  0
   22.8040   15.3160   13.0020 C   0  0  0  0  0  0  0  0  0  0  0  0
   23.9800   16.0230   13.1460 C   0  0  0  0  0  0  0  0  0  0  0  0
   25.0460   15.8830   12.2670 C   0  0  0  0  0  0  0  0  0  0  0  0
   24.9600   15.0030   11.2000 C   0  0  0  0  0  0  0  0  0  0  0  0
   26.1740   16.7670   12.6850 C   0  0  0  0  0  0  0  0  0  0  0  0
   25.6080   17.4870   13.8200 N   0  0  0  0  0  0  0  0  0  0  0  0
   26.4020   18.2980   14.7350 C   0  0  2  0  0  0  0  0  0  0  0  0
   26.1700   17.9240   16.1950 C   0  0  0  0  0  0  0  0  0  0  0  0
   27.0950   18.7470   17.0800 C   0  0  0  0  0  0  0  0  0  0  0  0
   26.9090   20.2260   16.8380 C   0  0  0  0  0  0  0  0  0  0  0  0
   26.9910   21.0550   17.7400 O   0  0  0  0  0  0  0  0  0  0  0  0
   26.6550   20.6090   15.5450 N   0  0  0  0  0  0  0  0  0  0  0  0
   26.1390   19.8020   14.5570 C   0  0  0  0  0  0  0  0  0  0  0  0
   25.5090   20.2940   13.6230 O   0  0  0  0  0  0  0  0  0  0  0  0
   24.3510   17.0120   14.1630 C   0  0  0  0  0  0  0  0  0  0  0  0
   23.6610   17.3330   15.1110 O   0  0  0  0  0  0  0  0  0  0  0  0
   21.1680   15.4940    9.4260 C   0  0  0  0  0  0  0  0  0  0  0  0
   20.0190   16.1340    9.4820 N   0  0  0  0  0  0  0  0  0  0  0  0
   18.8815   19.2845    8.7111 H   0  0  0  0  0  0  0  0  0  0  0  0
   19.7359   18.9616    7.1643 H   0  0  0  0  0  0  0  0  0  0  0  0
   17.9682   19.2812    7.1643 H   0  0  0  0  0  0  0  0  0  0  0  0
   17.8065   17.1865    8.6990 H   0  0  0  0  0  0  0  0  0  0  0  0
   18.1314   16.9518    6.9268 H   0  0  0  0  0  0  0  0  0  0  0  0
   20.9113   16.4233    6.2832 H   0  0  0  0  0  0  0  0  0  0  0  0
   23.7989   12.0325    6.9471 H   0  0  0  0  0  0  0  0  0  0  0  0
   21.7731   13.8580   11.7768 H   0  0  0  0  0  0  0  0  0  0  0  0
   21.9720   15.4474   13.7095 H   0  0  0  0  0  0  0  0  0  0  0  0
   25.7990   14.8963   10.4967 H   0  0  0  0  0  0  0  0  0  0  0  0
   27.0513   16.1760   12.9868 H   0  0  0  0  0  0  0  0  0  0  0  0
   26.5337   17.4275   11.8823 H   0  0  0  0  0  0  0  0  0  0  0  0
   27.4497   18.0845   14.4766 H   0  0  0  0  0  0  0  0  0  0  0  0
   25.1239   18.1305   16.4651 H   0  0  0  0  0  0  0  0  0  0  0  0
   26.3800   16.8538   16.3383 H   0  0  0  0  0  0  0  0  0  0  0  0
   26.8737   18.5253   18.1345 H   0  0  0  0  0  0  0  0  0  0  0  0
   28.1350   18.4825   16.8381 H   0  0  0  0  0  0  0  0  0  0  0  0
   26.8690   21.5843   15.2923 H   0  0  0  0  0  0  0  0  0  0  0  0
   21.6682   15.0265   10.2869 H   0  0  0  0  0  0  0  0  0  0  0  0
  1  2  1  0
  2  3  1  0
  3  4  2  0
  4  5  1  0
  5  6  1  0
  6  7  2  0
  6  8  2  0
  6  9  1  0
  9 10  2  0
 10 11  1  0
 11 12  2  0
 12 13  1  0
 13 14  1  0
 14 15  2  0
 15 16  1  0
 16 17  2  0
 17 18  1  0
 18 19  2  0
 18 20  1  0
 20 21  1  0
 21 22  1  0
 22 23  1  0
 23 24  1  0
 24 25  1  0
 25 26  2  0
 25 27  1  0
 27 28  1  0
 28 29  2  0
 21 30  1  0
 30 31  2  0
  5 32  1  0
 32 33  2  0
 33  3  1  0
 13  9  1  0
 19 14  1  0
 28 22  1  0
 30 17  1  0
  1 34  1  0
  1 35  1  0
  1 36  1  0
  2 37  1  0
  2 38  1  0
  4 39  1  0
 10 40  1  0
 15 41  1  0
 16 42  1  0
 19 43  1  0
 20 44  1  0
 20 45  1  0
 22 46  1  6
 23 47  1  0
 23 48  1  0
 24 49  1  0
 24 50  1  0
 27 51  1  0
 32 52  1  0
M  END
>  <meeko>  (473) 
{"is_sidechain": [true], "free_energy": -10.79, "intermolecular_energy": 0.0, "internal_energy": -10.79, "cluster_size": 17, "cluster_id": 1, "rank_in_cluster": 1}

>  <_RMSD_MCS_to_ref>  (473) 
0.9729926344359789

$$$$
ligand
     RDKit          3D

 47 50  0  0  0  0  0  0  0  0999 V2000
   18.9090   19.1540    7.5370 C   0  0  0  0  0  0  0  0  0  0  0  0
   18.7730   17.6460    7.6780 C   0  0  0  0  0  0  0  0  0  0  0  0
   20.0850   16.9810    7.9040 C   0  0  0  0  0  0  0  0  0  0  0  0
   20.7850   16.8180    9.0820 C   0  0  0  0  0  0  0  0  0  0  0  0
   21.8980   16.1140    8.7170 N   0  0  0  0  0  0  0  0  0  0  0  0
   23.2610   15.8420    9.6790 S   0  0  0  0  0  6  0  0  0  0  0  0
   24.2750   16.6960    9.0890 O   0  0  0  0  0  0  0  0  0  0  0  0
   23.4040   14.3960    9.6990 O   0  0  0  0  0  0  0  0  0  0  0  0
   22.8820   16.4130   11.1690 O   0  0  0  0  0  0  0  0  0  0  0  0
   22.5810   15.5110   12.1570 C   0  0  0  0  0  0  0  0  0  0  0  0
   21.6110   14.5490   11.8630 C   0  0  0  0  0  0  0  0  0  0  0  0
   21.2800   13.5850   12.8140 C   0  0  0  0  0  0  0  0  0  0  0  0
   21.9040   13.5920   14.0590 C   0  0  0  0  0  0  0  0  0  0  0  0
   22.8530   14.5710   14.3660 C   0  0  0  0  0  0  0  0  0  0  0  0
   23.1910   15.5480   13.4200 C   0  0  0  0  0  0  0  0  0  0  0  0
   24.1620   16.6090   13.7760 C   0  0  0  0  0  0  0  0  0  0  0  0
   25.4450   16.4400   13.7530 N   0  0  0  0  0  0  0  0  0  0  0  0
   26.0360   17.6640   14.1390 O   0  0  0  0  0  0  0  0  0  0  0  0
   25.0270   18.4730   14.7640 C   0  0  1  0  0  0  0  0  0  0  0  0
   25.1220   18.3240   16.2840 C   0  0  0  0  0  0  0  0  0  0  0  0
   26.4980   18.7580   16.7740 C   0  0  0  0  0  0  0  0  0  0  0  0
   26.8380   20.1500   16.2950 C   0  0  0  0  0  0  0  0  0  0  0  0
   27.4630   20.9510   16.9850 O   0  0  0  0  0  0  0  0  0  0  0  0
   26.4120   20.4890   15.0370 N   0  0  0  0  0  0  0  0  0  0  0  0
   25.3340   19.9240   14.3940 C   0  0  0  0  0  0  0  0  0  0  0  0
   24.6570   20.5940   13.6170 O   0  0  0  0  0  0  0  0  0  0  0  0
   23.7190   17.9730   14.1830 C   0  0  0  0  0  0  0  0  0  0  0  0
   21.8890   15.9360    7.3710 C   0  0  0  0  0  0  0  0  0  0  0  0
   20.7890   16.4380    6.8470 N   0  0  0  0  0  0  0  0  0  0  0  0
   18.9504   19.6134    8.5356 H   0  0  0  0  0  0  0  0  0  0  0  0
   19.8320   19.3891    6.9867 H   0  0  0  0  0  0  0  0  0  0  0  0
   18.0430   19.5504    6.9867 H   0  0  0  0  0  0  0  0  0  0  0  0
   18.1140   17.4282    8.5314 H   0  0  0  0  0  0  0  0  0  0  0  0
   18.3545   17.2558    6.7385 H   0  0  0  0  0  0  0  0  0  0  0  0
   20.5099   17.1736   10.0859 H   0  0  0  0  0  0  0  0  0  0  0  0
   21.1100   14.5524   10.8837 H   0  0  0  0  0  0  0  0  0  0  0  0
   20.5259   12.8188   12.5810 H   0  0  0  0  0  0  0  0  0  0  0  0
   21.6489   12.8238   14.8038 H   0  0  0  0  0  0  0  0  0  0  0  0
   23.3365   14.5746   15.3540 H   0  0  0  0  0  0  0  0  0  0  0  0
   24.3534   18.9516   16.7587 H   0  0  0  0  0  0  0  0  0  0  0  0
   24.9644   17.2684   16.5501 H   0  0  0  0  0  0  0  0  0  0  0  0
   26.5070   18.7455   17.8739 H   0  0  0  0  0  0  0  0  0  0  0  0
   27.2461   18.0598   16.3705 H   0  0  0  0  0  0  0  0  0  0  0  0
   26.9370   21.2201   14.5362 H   0  0  0  0  0  0  0  0  0  0  0  0
   22.9173   17.9406   14.9355 H   0  0  0  0  0  0  0  0  0  0  0  0
   23.2851   18.5916   13.3836 H   0  0  0  0  0  0  0  0  0  0  0  0
   22.6878   15.4421    6.7983 H   0  0  0  0  0  0  0  0  0  0  0  0
  1  2  1  0
  2  3  1  0
  3  4  2  0
  4  5  1  0
  5  6  1  0
  6  7  2  0
  6  8  2  0
  6  9  1  0
  9 10  1  0
 10 11  2  0
 11 12  1  0
 12 13  2  0
 13 14  1  0
 14 15  2  0
 15 16  1  0
 16 17  2  0
 17 18  1  0
 19 18  1  6
 19 20  1  0
 20 21  1  0
 21 22  1  0
 22 23  2  0
 22 24  1  0
 24 25  1  0
 25 26  2  0
 19 27  1  0
  5 28  1  0
 28 29  2  0
 29  3  1  0
 15 10  1  0
 27 16  1  0
 25 19  1  0
  1 30  1  0
  1 31  1  0
  1 32  1  0
  2 33  1  0
  2 34  1  0
  4 35  1  0
 11 36  1  0
 12 37  1  0
 13 38  1  0
 14 39  1  0
 20 40  1  0
 20 41  1  0
 21 42  1  0
 21 43  1  0
 24 44  1  0
 27 45  1  0
 27 46  1  0
 28 47  1  0
M  END
>  <meeko>  (474) 
{"is_sidechain": [true], "free_energy": -10.79, "intermolecular_energy": 0.0, "internal_energy": -10.79, "cluster_size": 20, "cluster_id": 1, "rank_in_cluster": 1}

>  <_RMSD_MCS_to_ref>  (474) 
0.5279337079596268

$$$$
ligand
     RDKit          3D

 48 51  0  0  0  0  0  0  0  0999 V2000
   18.9090   19.1540    7.5370 C   0  0  0  0  0  0  0  0  0  0  0  0
   18.7730   17.6460    7.6780 C   0  0  0  0  0  0  0  0  0  0  0  0
   20.0410   16.9350    7.3590 C   0  0  0  0  0  0  0  0  0  0  0  0
   20.7000   15.9660    8.0890 C   0  0  0  0  0  0  0  0  0  0  0  0
   21.7860   15.6530    7.3230 N   0  0  0  0  0  0  0  0  0  0  0  0
   23.0400   14.6320    7.7570 S   0  0  0  0  0  6  0  0  0  0  0  0
   24.0370   14.7380    6.7100 O   0  0  0  0  0  0  0  0  0  0  0  0
   22.4310   13.3660    8.1220 O   0  0  0  0  0  0  0  0  0  0  0  0
   23.8020   15.2420    9.2130 C   0  0  0  0  0  0  0  0  0  0  0  0
   24.9660   15.8730    9.2540 N   0  0  0  0  0  0  0  0  0  0  0  0
   25.1800   16.1700   10.5720 C   0  0  0  0  0  0  0  0  0  0  0  0
   24.1570   15.6920   11.3580 C   0  0  0  0  0  0  0  0  0  0  0  0
   23.8210   15.6880   12.7490 C   0  0  0  0  0  0  0  0  0  0  0  0
   24.7080   16.2320   13.8250 C   0  0  0  0  0  0  0  0  0  0  0  0
   25.2180   15.5070   14.6740 O   0  0  0  0  0  0  0  0  0  0  0  0
   24.9480   17.5800   13.7520 N   0  0  0  0  0  0  0  0  0  0  0  0
   25.9280   18.2220   14.6190 C   0  0  2  0  0  0  0  0  0  0  0  0
   25.6660   17.9410   16.0940 C   0  0  0  0  0  0  0  0  0  0  0  0
   26.6970   18.6720   16.9400 C   0  0  0  0  0  0  0  0  0  0  0  0
   26.7020   20.1530   16.6410 C   0  0  0  0  0  0  0  0  0  0  0  0
   26.9410   20.9970   17.4990 O   0  0  0  0  0  0  0  0  0  0  0  0
   26.4530   20.5190   15.3420 N   0  0  0  0  0  0  0  0  0  0  0  0
   25.8690   19.7340   14.3810 C   0  0  0  0  0  0  0  0  0  0  0  0
   25.3430   20.2280   13.3840 O   0  0  0  0  0  0  0  0  0  0  0  0
   22.6340   15.1730   13.1360 C   0  0  0  0  0  0  0  0  0  0  0  0
   21.7030   14.5910   12.1840 C   0  0  0  0  0  0  0  0  0  0  0  0
   22.0310   14.5700   10.8830 C   0  0  0  0  0  0  0  0  0  0  0  0
   23.2470   15.1200   10.4690 N   0  0  0  0  0  0  0  0  0  0  0  0
   21.8010   16.4500    6.2240 C   0  0  0  0  0  0  0  0  0  0  0  0
   20.7360   17.2230    6.2010 N   0  0  0  0  0  0  0  0  0  0  0  0
   18.9504   19.6134    8.5356 H   0  0  0  0  0  0  0  0  0  0  0  0
   19.8320   19.3891    6.9867 H   0  0  0  0  0  0  0  0  0  0  0  0
   18.0430   19.5504    6.9867 H   0  0  0  0  0  0  0  0  0  0  0  0
   18.4862   17.4115    8.7137 H   0  0  0  0  0  0  0  0  0  0  0  0
   18.0074   17.3077    6.9643 H   0  0  0  0  0  0  0  0  0  0  0  0
   20.4155   15.5432    9.0638 H   0  0  0  0  0  0  0  0  0  0  0  0
   26.0542   16.7183   10.9530 H   0  0  0  0  0  0  0  0  0  0  0  0
   24.4257   18.1499   13.0713 H   0  0  0  0  0  0  0  0  0  0  0  0
   26.9202   17.8148   14.3746 H   0  0  0  0  0  0  0  0  0  0  0  0
   24.6579   18.2913   16.3606 H   0  0  0  0  0  0  0  0  0  0  0  0
   25.7393   16.8593   16.2800 H   0  0  0  0  0  0  0  0  0  0  0  0
   26.4593   18.5219   18.0035 H   0  0  0  0  0  0  0  0  0  0  0  0
   27.6916   18.2665   16.7025 H   0  0  0  0  0  0  0  0  0  0  0  0
   26.7303   21.4710   15.0631 H   0  0  0  0  0  0  0  0  0  0  0  0
   22.3642   15.1947   14.2022 H   0  0  0  0  0  0  0  0  0  0  0  0
   20.7439   14.1740   12.5247 H   0  0  0  0  0  0  0  0  0  0  0  0
   21.3469   14.1226   10.1470 H   0  0  0  0  0  0  0  0  0  0  0  0
   22.5923   16.4497    5.4599 H   0  0  0  0  0  0  0  0  0  0  0  0
  1  2  1  0
  2  3  1  0
  3  4  2  0
  4  5  1  0
  5  6  1  0
  6  7  2  0
  6  8  2  0
  6  9  1  0
  9 10  2  0
 10 11  1  0
 11 12  2  0
 12 13  1  0
 13 14  1  0
 14 15  2  0
 14 16  1  0
 16 17  1  0
 17 18  1  0
 18 19  1  0
 19 20  1  0
 20 21  2  0
 20 22  1  0
 22 23  1  0
 23 24  2  0
 13 25  2  0
 25 26  1  0
 26 27  2  0
 27 28  1  0
  5 29  1  0
 29 30  2  0
 30  3  1  0
 28  9  1  0
 28 12  1  0
 23 17  1  0
  1 31  1  0
  1 32  1  0
  1 33  1  0
  2 34  1  0
  2 35  1  0
  4 36  1  0
 11 37  1  0
 16 38  1  0
 17 39  1  6
 18 40  1  0
 18 41  1  0
 19 42  1  0
 19 43  1  0
 22 44  1  0
 25 45  1  0
 26 46  1  0
 27 47  1  0
 29 48  1  0
M  END
>  <meeko>  (475) 
{"is_sidechain": [true], "free_energy": -10.79, "intermolecular_energy": 0.0, "internal_energy": -10.79, "cluster_size": 11, "cluster_id": 1, "rank_in_cluster": 1}

>  <_RMSD_MCS_to_ref>  (475) 
0.6281556778025297

$$$$
ligand
     RDKit          3D

 48 51  0  0  0  0  0  0  0  0999 V2000
   18.9090   19.1540    7.5370 C   0  0  0  0  0  0  0  0  0  0  0  0
   18.7730   17.6460    7.6780 C   0  0  0  0  0  0  0  0  0  0  0  0
   20.0080   16.9290    7.2580 C   0  0  0  0  0  0  0  0  0  0  0  0
   20.9260   16.2500    8.0350 C   0  0  0  0  0  0  0  0  0  0  0  0
   21.8620   15.8130    7.1430 N   0  0  0  0  0  0  0  0  0  0  0  0
   23.0840   14.7160    7.4700 S   0  0  0  0  0  6  0  0  0  0  0  0
   22.8780   13.5820    6.5950 O   0  0  0  0  0  0  0  0  0  0  0  0
   24.3210   15.4680    7.5140 O   0  0  0  0  0  0  0  0  0  0  0  0
   22.8900   14.0720    9.0980 C   0  0  0  0  0  0  0  0  0  0  0  0
   22.3730   12.8720    9.5730 C   0  0  0  0  0  0  0  0  0  0  0  0
   22.4620   12.8760   10.9840 C   0  0  0  0  0  0  0  0  0  0  0  0
   23.0320   14.0740   11.3440 C   0  0  0  0  0  0  0  0  0  0  0  0
   23.3860   14.6820   12.5710 C   0  0  0  0  0  0  0  0  0  0  0  0
   23.9460   15.9070   12.5440 C   0  0  0  0  0  0  0  0  0  0  0  0
   24.3070   16.5240   13.8770 C   0  0  0  0  0  0  0  0  0  0  0  0
   24.1390   15.9610   14.9520 O   0  0  0  0  0  0  0  0  0  0  0  0
   24.8290   17.7870   13.7500 N   0  0  0  0  0  0  0  0  0  0  0  0
   25.1000   18.6390   14.8920 C   0  0  1  0  0  0  0  0  0  0  0  0
   26.0770   17.9900   15.8680 C   0  0  0  0  0  0  0  0  0  0  0  0
   26.3350   18.9330   17.0320 C   0  0  0  0  0  0  0  0  0  0  0  0
   26.8320   20.2750   16.5500 C   0  0  0  0  0  0  0  0  0  0  0  0
   27.6250   20.9540   17.1950 O   0  0  0  0  0  0  0  0  0  0  0  0
   26.3240   20.7270   15.3570 N   0  0  0  0  0  0  0  0  0  0  0  0
   25.6870   19.9680   14.4060 C   0  0  0  0  0  0  0  0  0  0  0  0
   25.5900   20.3650   13.2460 O   0  0  0  0  0  0  0  0  0  0  0  0
   24.2060   16.6340   11.3860 N   0  0  0  0  0  0  0  0  0  0  0  0
   23.8790   16.0760   10.2540 C   0  0  0  0  0  0  0  0  0  0  0  0
   23.2930   14.8030   10.2010 N   0  0  0  0  0  0  0  0  0  0  0  0
   21.4790   16.1620    5.8880 C   0  0  0  0  0  0  0  0  0  0  0  0
   20.3590   16.8560    5.9250 N   0  0  0  0  0  0  0  0  0  0  0  0
   18.9504   19.6134    8.5356 H   0  0  0  0  0  0  0  0  0  0  0  0
   19.8320   19.3891    6.9867 H   0  0  0  0  0  0  0  0  0  0  0  0
   18.0430   19.5504    6.9867 H   0  0  0  0  0  0  0  0  0  0  0  0
   18.5646   17.4059    8.7311 H   0  0  0  0  0  0  0  0  0  0  0  0
   17.9524   17.3179    7.0230 H   0  0  0  0  0  0  0  0  0  0  0  0
   20.9071   16.0965    9.1241 H   0  0  0  0  0  0  0  0  0  0  0  0
   21.9643   12.0581    8.9561 H   0  0  0  0  0  0  0  0  0  0  0  0
   22.1374   12.0742   11.6635 H   0  0  0  0  0  0  0  0  0  0  0  0
   23.2080   14.1661   13.5261 H   0  0  0  0  0  0  0  0  0  0  0  0
   25.0365   18.1439   12.8063 H   0  0  0  0  0  0  0  0  0  0  0  0
   24.1494   18.8041   15.4204 H   0  0  0  0  0  0  0  0  0  0  0  0
   25.6475   17.0505   16.2459 H   0  0  0  0  0  0  0  0  0  0  0  0
   27.0248   17.7791   15.3510 H   0  0  0  0  0  0  0  0  0  0  0  0
   25.3986   19.0772   17.5909 H   0  0  0  0  0  0  0  0  0  0  0  0
   27.1074   18.4871   17.6759 H   0  0  0  0  0  0  0  0  0  0  0  0
   26.4309   21.7315   15.1561 H   0  0  0  0  0  0  0  0  0  0  0  0
   24.0677   16.6181    9.3156 H   0  0  0  0  0  0  0  0  0  0  0  0
   22.0262   15.9022    4.9698 H   0  0  0  0  0  0  0  0  0  0  0  0
  1  2  1  0
  2  3  1  0
  3  4  2  0
  4  5  1  0
  5  6  1  0
  6  7  2  0
  6  8  2  0
  6  9  1  0
  9 10  2  0
 10 11  1  0
 11 12  2  0
 12 13  1  0
 13 14  2  0
 14 15  1  0
 15 16  2  0
 15 17  1  0
 17 18  1  0
 18 19  1  0
 19 20  1  0
 20 21  1  0
 21 22  2  0
 21 23  1  0
 23 24  1  0
 24 25  2  0
 14 26  1  0
 26 27  2  0
 27 28  1  0
  5 29  1  0
 29 30  2  0
 30  3  1  0
 28  9  1  0
 28 12  1  0
 24 18  1  0
  1 31  1  0
  1 32  1  0
  1 33  1  0
  2 34  1  0
  2 35  1  0
  4 36  1  0
 10 37  1  0
 11 38  1  0
 13 39  1  0
 17 40  1  0
 18 41  1  1
 19 42  1  0
 19 43  1  0
 20 44  1  0
 20 45  1  0
 23 46  1  0
 27 47  1  0
 29 48  1  0
M  END
>  <meeko>  (476) 
{"is_sidechain": [true], "free_energy": -10.79, "intermolecular_energy": 0.0, "internal_energy": -10.79, "cluster_size": 19, "cluster_id": 1, "rank_in_cluster": 1}

>  <_RMSD_MCS_to_ref>  (476) 
0.5191396729204965

$$$$
ligand
     RDKit          3D

 48 51  0  0  0  0  0  0  0  0999 V2000
   18.9090   19.1540    7.5370 C   0  0  0  0  0  0  0  0  0  0  0  0
   18.7730   17.6460    7.6780 C   0  0  0  0  0  0  0  0  0  0  0  0
   20.0890   16.9550    7.6130 C   0  0  0  0  0  0  0  0  0  0  0  0
   20.8540   16.4430    8.6430 C   0  0  0  0  0  0  0  0  0  0  0  0
   21.9430   15.9080    8.0180 N   0  0  0  0  0  0  0  0  0  0  0  0
   23.3640   15.4000    8.7790 S   0  0  0  0  0  6  0  0  0  0  0  0
   24.3560   16.3810    8.3750 O   0  0  0  0  0  0  0  0  0  0  0  0
   23.4990   14.0060    8.4000 O   0  0  0  0  0  0  0  0  0  0  0  0
   23.0680   15.5120   10.4950 C   0  0  0  0  0  0  0  0  0  0  0  0
   23.8540   16.3970   11.3510 C   0  0  0  0  0  0  0  0  0  0  0  0
   23.6380   16.4770   12.6830 C   0  0  0  0  0  0  0  0  0  0  0  0
   24.5000   17.4020   13.4850 C   0  0  0  0  0  0  0  0  0  0  0  0
   25.6300   17.7100   13.1130 O   0  0  0  0  0  0  0  0  0  0  0  0
   23.9560   17.8670   14.6530 N   0  0  0  0  0  0  0  0  0  0  0  0
   24.6920   18.7200   15.5690 C   0  0  1  0  0  0  0  0  0  0  0  0
   25.8130   17.9560   16.2680 C   0  0  0  0  0  0  0  0  0  0  0  0
   26.5550   18.8890   17.2120 C   0  0  0  0  0  0  0  0  0  0  0  0
   27.0770   20.1030   16.4830 C   0  0  0  0  0  0  0  0  0  0  0  0
   28.1190   20.6660   16.8060 O   0  0  0  0  0  0  0  0  0  0  0  0
   26.3070   20.5800   15.4520 N   0  0  0  0  0  0  0  0  0  0  0  0
   25.2910   19.9120   14.8120 C   0  0  0  0  0  0  0  0  0  0  0  0
   24.8910   20.2880   13.7120 O   0  0  0  0  0  0  0  0  0  0  0  0
   22.6000   15.6870   13.2690 C   0  0  0  0  0  0  0  0  0  0  0  0
   22.1750   15.5780   14.5150 N   0  0  0  0  0  0  0  0  0  0  0  0
   21.1520   14.6660   14.4760 C   0  0  0  0  0  0  0  0  0  0  0  0
   20.9430   14.2160   13.1940 C   0  0  0  0  0  0  0  0  0  0  0  0
   21.8670   14.8660   12.4190 N   0  0  0  0  0  0  0  0  0  0  0  0
   22.0890   14.7710   11.0490 C   0  0  0  0  0  0  0  0  0  0  0  0
   21.8530   16.1460    6.6840 C   0  0  0  0  0  0  0  0  0  0  0  0
   20.7290   16.7710    6.4020 N   0  0  0  0  0  0  0  0  0  0  0  0
   18.9504   19.6134    8.5356 H   0  0  0  0  0  0  0  0  0  0  0  0
   19.8320   19.3891    6.9867 H   0  0  0  0  0  0  0  0  0  0  0  0
   18.0430   19.5504    6.9867 H   0  0  0  0  0  0  0  0  0  0  0  0
   18.3025   17.4217    8.6467 H   0  0  0  0  0  0  0  0  0  0  0  0
   18.1587   17.2824    6.8411 H   0  0  0  0  0  0  0  0  0  0  0  0
   20.6354   16.4621    9.7209 H   0  0  0  0  0  0  0  0  0  0  0  0
   24.6435   17.0155   10.8992 H   0  0  0  0  0  0  0  0  0  0  0  0
   22.9894   17.6018   14.8902 H   0  0  0  0  0  0  0  0  0  0  0  0
   23.9841   19.0761   16.3320 H   0  0  0  0  0  0  0  0  0  0  0  0
   25.3846   17.1204   16.8410 H   0  0  0  0  0  0  0  0  0  0  0  0
   26.5135   17.5655   15.5151 H   0  0  0  0  0  0  0  0  0  0  0  0
   25.8681   19.2157   18.0066 H   0  0  0  0  0  0  0  0  0  0  0  0
   27.4107   18.3445   17.6378 H   0  0  0  0  0  0  0  0  0  0  0  0
   26.5113   21.5351   15.1249 H   0  0  0  0  0  0  0  0  0  0  0  0
   20.5754   14.3381   15.3535 H   0  0  0  0  0  0  0  0  0  0  0  0
   20.1907   13.4862   12.8601 H   0  0  0  0  0  0  0  0  0  0  0  0
   21.4751   14.1017   10.4283 H   0  0  0  0  0  0  0  0  0  0  0  0
   22.6128   15.8571    5.9429 H   0  0  0  0  0  0  0  0  0  0  0  0
  1  2  1  0
  2  3  1  0
  3  4  2  0
  4  5  1  0
  5  6  1  0
  6  7  2  0
  6  8  2  0
  6  9  1  0
  9 10  1  0
 10 11  2  0
 11 12  1  0
 12 13  2  0
 12 14  1  0
 14 15  1  0
 15 16  1  0
 16 17  1  0
 17 18  1  0
 18 19  2  0
 18 20  1  0
 20 21  1  0
 21 22  2  0
 11 23  1  0
 23 24  2  0
 24 25  1  0
 25 26  2  0
 26 27  1  0
 27 28  1  0
  5 29  1  0
 29 30  2  0
 30  3  1  0
 28  9  2  0
 21 15  1  0
 27 23  1  0
  1 31  1  0
  1 32  1  0
  1 33  1  0
  2 34  1  0
  2 35  1  0
  4 36  1  0
 10 37  1  0
 14 38  1  0
 15 39  1  1
 16 40  1  0
 16 41  1  0
 17 42  1  0
 17 43  1  0
 20 44  1  0
 25 45  1  0
 26 46  1  0
 28 47  1  0
 29 48  1  0
M  END
>  <meeko>  (477) 
{"is_sidechain": [true], "free_energy": -10.79, "intermolecular_energy": 0.0, "internal_energy": -10.79, "cluster_size": 20, "cluster_id": 1, "rank_in_cluster": 1}

>  <_RMSD_MCS_to_ref>  (477) 
0.7404626181576549

$$$$
ligand
     RDKit          3D

 48 51  0  0  0  0  0  0  0  0999 V2000
   18.9090   19.1540    7.5370 C   0  0  0  0  0  0  0  0  0  0  0  0
   18.7730   17.6460    7.6780 C   0  0  0  0  0  0  0  0  0  0  0  0
   20.0830   16.9500    7.5640 C   0  0  0  0  0  0  0  0  0  0  0  0
   21.0870   16.8280    8.5040 C   0  0  0  0  0  0  0  0  0  0  0  0
   22.0610   16.1170    7.8640 N   0  0  0  0  0  0  0  0  0  0  0  0
   23.4390   15.4720    8.5770 S   0  0  0  0  0  6  0  0  0  0  0  0
   23.6010   14.1530    7.9970 O   0  0  0  0  0  0  0  0  0  0  0  0
   24.4620   16.4940    8.4780 O   0  0  0  0  0  0  0  0  0  0  0  0
   22.9860   15.2970   10.2880 C   0  0  0  0  0  0  0  0  0  0  0  0
   23.8990   15.7870   11.2760 C   0  0  0  0  0  0  0  0  0  0  0  0
   23.6560   15.6980   12.6660 C   0  0  0  0  0  0  0  0  0  0  0  0
   24.6380   16.2220   13.6250 C   0  0  0  0  0  0  0  0  0  0  0  0
   25.2090   15.4530   14.3870 O   0  0  0  0  0  0  0  0  0  0  0  0
   24.8230   17.5810   13.6390 N   0  0  0  0  0  0  0  0  0  0  0  0
   25.8370   18.2110   14.4690 C   0  0  2  0  0  0  0  0  0  0  0  0
   25.6300   17.9180   15.9500 C   0  0  0  0  0  0  0  0  0  0  0  0
   26.7000   18.6300   16.7610 C   0  0  0  0  0  0  0  0  0  0  0  0
   26.7120   20.1140   16.4710 C   0  0  0  0  0  0  0  0  0  0  0  0
   26.9810   20.9500   17.3270 O   0  0  0  0  0  0  0  0  0  0  0  0
   26.4300   20.4920   15.1830 N   0  0  0  0  0  0  0  0  0  0  0  0
   25.7840   19.7250   14.2440 C   0  0  0  0  0  0  0  0  0  0  0  0
   25.2090   20.2410   13.2860 O   0  0  0  0  0  0  0  0  0  0  0  0
   22.4210   15.1040   12.9490 C   0  0  0  0  0  0  0  0  0  0  0  0
   21.8160   14.9330   14.1670 C   0  0  0  0  0  0  0  0  0  0  0  0
   20.6250   14.3210   13.8950 N   0  0  0  0  0  0  0  0  0  0  0  0
   20.4070   14.1000   12.5870 N   0  0  0  0  0  0  0  0  0  0  0  0
   21.4870   14.5960   11.9650 C   0  0  0  0  0  0  0  0  0  0  0  0
   21.7590   14.6670   10.5890 C   0  0  0  0  0  0  0  0  0  0  0  0
   21.6280   15.7900    6.6200 C   0  0  0  0  0  0  0  0  0  0  0  0
   20.4310   16.2930    6.4000 N   0  0  0  0  0  0  0  0  0  0  0  0
   18.9504   19.6134    8.5356 H   0  0  0  0  0  0  0  0  0  0  0  0
   19.8320   19.3891    6.9867 H   0  0  0  0  0  0  0  0  0  0  0  0
   18.0430   19.5504    6.9867 H   0  0  0  0  0  0  0  0  0  0  0  0
   18.3365   17.4203    8.6621 H   0  0  0  0  0  0  0  0  0  0  0  0
   18.1283   17.2875    6.8620 H   0  0  0  0  0  0  0  0  0  0  0  0
   21.0993   17.2153    9.5335 H   0  0  0  0  0  0  0  0  0  0  0  0
   24.8349   16.2554   10.9373 H   0  0  0  0  0  0  0  0  0  0  0  0
   24.2259   18.1728   13.0439 H   0  0  0  0  0  0  0  0  0  0  0  0
   26.8167   17.8013   14.1821 H   0  0  0  0  0  0  0  0  0  0  0  0
   24.6368   18.2755   16.2593 H   0  0  0  0  0  0  0  0  0  0  0  0
   25.6993   16.8339   16.1227 H   0  0  0  0  0  0  0  0  0  0  0  0
   26.5003   18.4756   17.8316 H   0  0  0  0  0  0  0  0  0  0  0  0
   27.6800   18.2140   16.4842 H   0  0  0  0  0  0  0  0  0  0  0  0
   26.7291   21.4344   14.8942 H   0  0  0  0  0  0  0  0  0  0  0  0
   22.2060   15.2259   15.1529 H   0  0  0  0  0  0  0  0  0  0  0  0
   19.9530   14.0525   14.6280 H   0  0  0  0  0  0  0  0  0  0  0  0
   21.0809   14.2697    9.8194 H   0  0  0  0  0  0  0  0  0  0  0  0
   22.1976   15.1885    5.8963 H   0  0  0  0  0  0  0  0  0  0  0  0
  1  2  1  0
  2  3  1  0
  3  4  2  0
  4  5  1  0
  5  6  1  0
  6  7  2  0
  6  8  2  0
  6  9  1  0
  9 10  1  0
 10 11  2  0
 11 12  1  0
 12 13  2  0
 12 14  1  0
 14 15  1  0
 15 16  1  0
 16 17  1  0
 17 18  1  0
 18 19  2  0
 18 20  1  0
 20 21  1  0
 21 22  2  0
 11 23  1  0
 23 24  2  0
 24 25  1  0
 25 26  1  0
 26 27  2  0
 27 28  1  0
  5 29  1  0
 29 30  2  0
 30  3  1  0
 28  9  2  0
 21 15  1  0
 27 23  1  0
  1 31  1  0
  1 32  1  0
  1 33  1  0
  2 34  1  0
  2 35  1  0
  4 36  1  0
 10 37  1  0
 14 38  1  0
 15 39  1  6
 16 40  1  0
 16 41  1  0
 17 42  1  0
 17 43  1  0
 20 44  1  0
 24 45  1  0
 25 46  1  0
 28 47  1  0
 29 48  1  0
M  END
>  <meeko>  (478) 
{"is_sidechain": [true], "free_energy": -10.79, "intermolecular_energy": 0.0, "internal_energy": -10.79, "cluster_size": 20, "cluster_id": 1, "rank_in_cluster": 1}

>  <_RMSD_MCS_to_ref>  (478) 
0.5559739202516604

$$$$
ligand
     RDKit          3D

 47 50  0  0  0  0  0  0  0  0999 V2000
   18.9090   19.1540    7.5370 C   0  0  0  0  0  0  0  0  0  0  0  0
   18.7730   17.6460    7.6780 C   0  0  0  0  0  0  0  0  0  0  0  0
   19.9750   16.9250    7.1780 C   0  0  0  0  0  0  0  0  0  0  0  0
   21.1880   16.7210    7.8050 C   0  0  0  0  0  0  0  0  0  0  0  0
   21.9220   16.0160    6.8930 N   0  0  0  0  0  0  0  0  0  0  0  0
   23.4430   15.3510    7.1490 S   0  0  0  0  0  6  0  0  0  0  0  0
   23.3080   13.9320    6.8720 O   0  0  0  0  0  0  0  0  0  0  0  0
   24.3640   16.2000    6.4150 O   0  0  0  0  0  0  0  0  0  0  0  0
   23.7590   15.5560    8.8860 C   0  0  0  0  0  0  0  0  0  0  0  0
   24.9640   16.1230    9.2870 C   0  0  0  0  0  0  0  0  0  0  0  0
   25.1950   16.2840   10.6540 C   0  0  0  0  0  0  0  0  0  0  0  0
   24.1880   15.8610   11.5410 C   0  0  0  0  0  0  0  0  0  0  0  0
   23.9750   15.8230   12.9500 C   0  0  0  0  0  0  0  0  0  0  0  0
   24.8930   16.2890   14.0000 C   0  0  0  0  0  0  0  0  0  0  0  0
   25.4740   15.5320   14.7710 O   0  0  0  0  0  0  0  0  0  0  0  0
   25.0490   17.6550   14.0280 N   0  0  0  0  0  0  0  0  0  0  0  0
   26.0290   18.3150   14.8670 C   0  0  2  0  0  0  0  0  0  0  0  0
   25.7660   18.0680   16.3500 C   0  0  0  0  0  0  0  0  0  0  0  0
   26.8080   18.8010   17.1800 C   0  0  0  0  0  0  0  0  0  0  0  0
   26.8340   20.2750   16.8530 C   0  0  0  0  0  0  0  0  0  0  0  0
   27.0990   21.1310   17.6920 O   0  0  0  0  0  0  0  0  0  0  0  0
   26.5790   20.6190   15.5500 N   0  0  0  0  0  0  0  0  0  0  0  0
   25.9940   19.8230   14.5960 C   0  0  0  0  0  0  0  0  0  0  0  0
   25.5000   20.3130   13.5820 O   0  0  0  0  0  0  0  0  0  0  0  0
   22.7710   15.2870   13.2540 N   0  0  0  0  0  0  0  0  0  0  0  0
   22.2360   14.9920   12.0520 N   0  0  0  0  0  0  0  0  0  0  0  0
   23.0370   15.3130   10.9970 C   0  0  0  0  0  0  0  0  0  0  0  0
   22.7490   15.1290    9.6940 N   0  0  0  0  0  0  0  0  0  0  0  0
   21.1590   15.7820    5.7950 C   0  0  0  0  0  0  0  0  0  0  0  0
   19.9700   16.3310    5.9310 N   0  0  0  0  0  0  0  0  0  0  0  0
   18.9504   19.6134    8.5356 H   0  0  0  0  0  0  0  0  0  0  0  0
   19.8320   19.3891    6.9867 H   0  0  0  0  0  0  0  0  0  0  0  0
   18.0430   19.5504    6.9867 H   0  0  0  0  0  0  0  0  0  0  0  0
   18.6292   17.4009    8.7407 H   0  0  0  0  0  0  0  0  0  0  0  0
   17.9112   17.3262    7.0738 H   0  0  0  0  0  0  0  0  0  0  0  0
   21.4937   17.0505    8.8090 H   0  0  0  0  0  0  0  0  0  0  0  0
   25.7149   16.4362    8.5466 H   0  0  0  0  0  0  0  0  0  0  0  0
   26.1315   16.7261   11.0249 H   0  0  0  0  0  0  0  0  0  0  0  0
   24.4440   18.2332   13.4275 H   0  0  0  0  0  0  0  0  0  0  0  0
   27.0175   17.8991   14.6222 H   0  0  0  0  0  0  0  0  0  0  0  0
   24.7634   18.4378   16.6109 H   0  0  0  0  0  0  0  0  0  0  0  0
   25.8253   16.9894   16.5576 H   0  0  0  0  0  0  0  0  0  0  0  0
   26.5697   18.6749   18.2465 H   0  0  0  0  0  0  0  0  0  0  0  0
   27.7963   18.3771   16.9486 H   0  0  0  0  0  0  0  0  0  0  0  0
   26.8533   21.5680   15.2582 H   0  0  0  0  0  0  0  0  0  0  0  0
   21.3062   14.5629   11.9411 H   0  0  0  0  0  0  0  0  0  0  0  0
   21.4885   15.2125    4.9135 H   0  0  0  0  0  0  0  0  0  0  0  0
  1  2  1  0
  2  3  1  0
  3  4  2  0
  4  5  1  0
  5  6  1  0
  6  7  2  0
  6  8  2  0
  6  9  1  0
  9 10  2  0
 10 11  1  0
 11 12  2  0
 12 13  1  0
 13 14  1  0
 14 15  2  0
 14 16  1  0
 16 17  1  0
 17 18  1  0
 18 19  1  0
 19 20  1  0
 20 21  2  0
 20 22  1  0
 22 23  1  0
 23 24  2  0
 13 25  2  0
 25 26  1  0
 26 27  1  0
 27 28  2  0
  5 29  1  0
 29 30  2  0
 30  3  1  0
 28  9  1  0
 27 12  1  0
 23 17  1  0
  1 31  1  0
  1 32  1  0
  1 33  1  0
  2 34  1  0
  2 35  1  0
  4 36  1  0
 10 37  1  0
 11 38  1  0
 16 39  1  0
 17 40  1  6
 18 41  1  0
 18 42  1  0
 19 43  1  0
 19 44  1  0
 22 45  1  0
 26 46  1  0
 29 47  1  0
M  END
>  <meeko>  (479) 
{"is_sidechain": [true], "free_energy": -10.79, "intermolecular_energy": 0.0, "internal_energy": -10.79, "cluster_size": 15, "cluster_id": 1, "rank_in_cluster": 1}

>  <_RMSD_MCS_to_ref>  (479) 
0.800238506113438

$$$$
ligand
     RDKit          3D

 50 53  0  0  0  0  0  0  0  0999 V2000
   18.9090   19.1540    7.5370 C   0  0  0  0  0  0  0  0  0  0  0  0
   18.7730   17.6460    7.6780 C   0  0  0  0  0  0  0  0  0  0  0  0
   20.0940   16.9610    7.6830 C   0  0  0  0  0  0  0  0  0  0  0  0
   20.9210   16.6750    8.7510 C   0  0  0  0  0  0  0  0  0  0  0  0
   21.9830   16.0280    8.1880 N   0  0  0  0  0  0  0  0  0  0  0  0
   23.4210   15.6400    8.9680 S   0  0  0  0  0  6  0  0  0  0  0  0
   24.2480   16.8270    8.8970 O   0  0  0  0  0  0  0  0  0  0  0  0
   23.8360   14.3640    8.4190 O   0  0  0  0  0  0  0  0  0  0  0  0
   22.9250   15.3940   10.6530 C   0  0  0  0  0  0  0  0  0  0  0  0
   21.8510   14.5420   10.9340 C   0  0  0  0  0  0  0  0  0  0  0  0
   21.4990   14.3670   12.2610 C   0  0  0  0  0  0  0  0  0  0  0  0
   22.1790   15.0170   13.2840 C   0  0  0  0  0  0  0  0  0  0  0  0
   23.2340   15.8820   13.0170 C   0  0  0  0  0  0  0  0  0  0  0  0
   23.9510   16.5550   14.1310 C   0  0  0  0  0  0  0  0  0  0  0  0
   24.2850   15.9230   15.1250 O   0  0  0  0  0  0  0  0  0  0  0  0
   24.1850   17.9030   13.9820 N   0  0  0  0  0  0  0  0  0  0  0  0
   24.7350   18.6930   15.0770 C   0  0  1  0  0  0  0  0  0  0  0  0
   25.8550   17.9600   15.8100 C   0  0  0  0  0  0  0  0  0  0  0  0
   26.4110   18.8530   16.9080 C   0  0  0  0  0  0  0  0  0  0  0  0
   26.8760   20.1790   16.3530 C   0  0  0  0  0  0  0  0  0  0  0  0
   27.8370   20.7850   16.8160 O   0  0  0  0  0  0  0  0  0  0  0  0
   26.1480   20.6990   15.3130 N   0  0  0  0  0  0  0  0  0  0  0  0
   25.2860   20.0010   14.5040 C   0  0  0  0  0  0  0  0  0  0  0  0
   24.9730   20.4230   13.3910 O   0  0  0  0  0  0  0  0  0  0  0  0
   23.6120   16.0710   11.6790 C   0  0  0  0  0  0  0  0  0  0  0  0
   21.5900   14.6110   14.5890 C   0  0  0  0  0  0  0  0  0  0  0  0
   20.3720   13.9150   14.2280 O   0  0  0  0  0  0  0  0  0  0  0  0
   20.4350   13.5100   12.8440 C   0  0  0  0  0  0  0  0  0  0  0  0
   21.8110   15.9740    6.8430 C   0  0  0  0  0  0  0  0  0  0  0  0
   20.6650   16.5270    6.5030 N   0  0  0  0  0  0  0  0  0  0  0  0
   18.9504   19.6134    8.5356 H   0  0  0  0  0  0  0  0  0  0  0  0
   19.8320   19.3891    6.9867 H   0  0  0  0  0  0  0  0  0  0  0  0
   18.0430   19.5504    6.9867 H   0  0  0  0  0  0  0  0  0  0  0  0
   18.2550   17.4237    8.6226 H   0  0  0  0  0  0  0  0  0  0  0  0
   18.2036   17.2757    6.8127 H   0  0  0  0  0  0  0  0  0  0  0  0
   20.7607   16.9139    9.8127 H   0  0  0  0  0  0  0  0  0  0  0  0
   21.3055   14.0292   10.1281 H   0  0  0  0  0  0  0  0  0  0  0  0
   23.9686   18.3600   13.0846 H   0  0  0  0  0  0  0  0  0  0  0  0
   23.9295   18.8814   15.8021 H   0  0  0  0  0  0  0  0  0  0  0  0
   25.4584   17.0354   16.2549 H   0  0  0  0  0  0  0  0  0  0  0  0
   26.6565   17.7103   15.0992 H   0  0  0  0  0  0  0  0  0  0  0  0
   25.6248   19.0333   17.6559 H   0  0  0  0  0  0  0  0  0  0  0  0
   27.2735   18.3458   17.3651 H   0  0  0  0  0  0  0  0  0  0  0  0
   26.2582   21.7050   15.1216 H   0  0  0  0  0  0  0  0  0  0  0  0
   24.4438   16.7470   11.4319 H   0  0  0  0  0  0  0  0  0  0  0  0
   22.2734   13.9439   15.1348 H   0  0  0  0  0  0  0  0  0  0  0  0
   21.4044   15.4685   15.2525 H   0  0  0  0  0  0  0  0  0  0  0  0
   20.7018   12.4461   12.7607 H   0  0  0  0  0  0  0  0  0  0  0  0
   19.4709   13.6255   12.3271 H   0  0  0  0  0  0  0  0  0  0  0  0
   22.5278   15.5307    6.1361 H   0  0  0  0  0  0  0  0  0  0  0  0
  1  2  1  0
  2  3  1  0
  3  4  2  0
  4  5  1  0
  5  6  1  0
  6  7  2  0
  6  8  2  0
  6  9  1  0
  9 10  2  0
 10 11  1  0
 11 12  2  0
 12 13  1  0
 13 14  1  0
 14 15  2  0
 14 16  1  0
 16 17  1  0
 17 18  1  0
 18 19  1  0
 19 20  1  0
 20 21  2  0
 20 22  1  0
 22 23  1  0
 23 24  2  0
 13 25  2  0
 12 26  1  0
 26 27  1  0
 27 28  1  0
  5 29  1  0
 29 30  2  0
 30  3  1  0
 25  9  1  0
 28 11  1  0
 23 17  1  0
  1 31  1  0
  1 32  1  0
  1 33  1  0
  2 34  1  0
  2 35  1  0
  4 36  1  0
 10 37  1  0
 16 38  1  0
 17 39  1  1
 18 40  1  0
 18 41  1  0
 19 42  1  0
 19 43  1  0
 22 44  1  0
 25 45  1  0
 26 46  1  0
 26 47  1  0
 28 48  1  0
 28 49  1  0
 29 50  1  0
M  END
>  <meeko>  (480) 
{"is_sidechain": [true], "free_energy": -10.79, "intermolecular_energy": 0.0, "internal_energy": -10.79, "cluster_size": 20, "cluster_id": 1, "rank_in_cluster": 1}

>  <_RMSD_MCS_to_ref>  (480) 
0.4536064128490452

$$$$
ligand
     RDKit          3D

 50 53  0  0  0  0  0  0  0  0999 V2000
   18.9090   19.1540    7.5370 C   0  0  0  0  0  0  0  0  0  0  0  0
   18.7730   17.6460    7.6780 C   0  0  0  0  0  0  0  0  0  0  0  0
   20.0600   16.9410    7.4310 C   0  0  0  0  0  0  0  0  0  0  0  0
   20.8350   16.2130    8.3130 C   0  0  0  0  0  0  0  0  0  0  0  0
   21.9060   15.8130    7.5680 N   0  0  0  0  0  0  0  0  0  0  0  0
   23.0840   14.7130    8.0420 S   0  0  0  0  0  6  0  0  0  0  0  0
   22.3960   13.4500    8.2260 O   0  0  0  0  0  0  0  0  0  0  0  0
   24.1750   14.8660    7.1000 O   0  0  0  0  0  0  0  0  0  0  0  0
   23.5960   15.3050    9.6320 C   0  0  0  0  0  0  0  0  0  0  0  0
   24.8190   15.9820    9.7430 C   0  0  0  0  0  0  0  0  0  0  0  0
   25.2430   16.4810   10.9850 C   0  0  0  0  0  0  0  0  0  0  0  0
   24.4480   16.3190   12.1310 C   0  0  0  0  0  0  0  0  0  0  0  0
   24.8690   16.8580   13.4550 C   0  0  0  0  0  0  0  0  0  0  0  0
   25.0370   16.1120   14.4110 O   0  0  0  0  0  0  0  0  0  0  0  0
   25.0200   18.2240   13.5420 N   0  0  0  0  0  0  0  0  0  0  0  0
   25.2750   18.8730   14.8220 C   0  0  1  0  0  0  0  0  0  0  0  0
   26.3380   18.1450   15.6370 C   0  0  0  0  0  0  0  0  0  0  0  0
   26.5850   18.8980   16.9360 C   0  0  0  0  0  0  0  0  0  0  0  0
   26.9630   20.3360   16.6710 C   0  0  0  0  0  0  0  0  0  0  0  0
   27.7500   20.9530   17.3840 O   0  0  0  0  0  0  0  0  0  0  0  0
   26.3580   20.9450   15.6000 N   0  0  0  0  0  0  0  0  0  0  0  0
   25.7470   20.3040   14.5530 C   0  0  0  0  0  0  0  0  0  0  0  0
   25.5830   20.8640   13.4680 O   0  0  0  0  0  0  0  0  0  0  0  0
   23.2450   15.6270   12.0000 C   0  0  0  0  0  0  0  0  0  0  0  0
   22.8130   15.1420   10.7670 C   0  0  0  0  0  0  0  0  0  0  0  0
   21.4670   14.5310   10.9350 C   0  0  0  0  0  0  0  0  0  0  0  0
   21.2600   14.4770   12.3590 O   0  0  0  0  0  0  0  0  0  0  0  0
   22.2230   15.3170   13.0360 C   0  0  0  0  0  0  0  0  0  0  0  0
   21.7480   16.2500    6.2920 C   0  0  0  0  0  0  0  0  0  0  0  0
   20.6360   16.9460    6.1760 N   0  0  0  0  0  0  0  0  0  0  0  0
   18.9504   19.6134    8.5356 H   0  0  0  0  0  0  0  0  0  0  0  0
   19.8320   19.3891    6.9867 H   0  0  0  0  0  0  0  0  0  0  0  0
   18.0430   19.5504    6.9867 H   0  0  0  0  0  0  0  0  0  0  0  0
   18.4322   17.4147    8.6980 H   0  0  0  0  0  0  0  0  0  0  0  0
   18.0483   17.3001    6.9262 H   0  0  0  0  0  0  0  0  0  0  0  0
   20.6344   16.0035    9.3741 H   0  0  0  0  0  0  0  0  0  0  0  0
   25.4493   16.1228    8.8526 H   0  0  0  0  0  0  0  0  0  0  0  0
   26.2077   17.0041   11.0610 H   0  0  0  0  0  0  0  0  0  0  0  0
   24.9516   18.7965   12.6885 H   0  0  0  0  0  0  0  0  0  0  0  0
   24.3423   18.8594   15.4051 H   0  0  0  0  0  0  0  0  0  0  0  0
   25.9919   17.1259   15.8640 H   0  0  0  0  0  0  0  0  0  0  0  0
   27.2725   18.0945   15.0590 H   0  0  0  0  0  0  0  0  0  0  0  0
   25.6687   18.8742   17.5442 H   0  0  0  0  0  0  0  0  0  0  0  0
   27.4164   18.4118   17.4675 H   0  0  0  0  0  0  0  0  0  0  0  0
   26.3634   21.9748   15.5810 H   0  0  0  0  0  0  0  0  0  0  0  0
   20.6970   15.1530   10.4553 H   0  0  0  0  0  0  0  0  0  0  0  0
   21.4024   13.5367   10.4691 H   0  0  0  0  0  0  0  0  0  0  0  0
   21.7462   16.2393   13.3992 H   0  0  0  0  0  0  0  0  0  0  0  0
   22.6590   14.8245   13.9177 H   0  0  0  0  0  0  0  0  0  0  0  0
   22.4509   16.0504    5.4698 H   0  0  0  0  0  0  0  0  0  0  0  0
  1  2  1  0
  2  3  1  0
  3  4  2  0
  4  5  1  0
  5  6  1  0
  6  7  2  0
  6  8  2  0
  6  9  1  0
  9 10  2  0
 10 11  1  0
 11 12  2  0
 12 13  1  0
 13 14  2  0
 13 15  1  0
 15 16  1  0
 16 17  1  0
 17 18  1  0
 18 19  1  0
 19 20  2  0
 19 21  1  0
 21 22  1  0
 22 23  2  0
 12 24  1  0
 24 25  2  0
 25 26  1  0
 26 27  1  0
 27 28  1  0
  5 29  1  0
 29 30  2  0
 30  3  1  0
 25  9  1  0
 22 16  1  0
 28 24  1  0
  1 31  1  0
  1 32  1  0
  1 33  1  0
  2 34  1  0
  2 35  1  0
  4 36  1  0
 10 37  1  0
 11 38  1  0
 15 39  1  0
 16 40  1  1
 17 41  1  0
 17 42  1  0
 18 43  1  0
 18 44  1  0
 21 45  1  0
 26 46  1  0
 26 47  1  0
 28 48  1  0
 28 49  1  0
 29 50  1  0
M  END
>  <meeko>  (481) 
{"is_sidechain": [true], "free_energy": -10.79, "intermolecular_energy": 0.0, "internal_energy": -10.79, "cluster_size": 16, "cluster_id": 1, "rank_in_cluster": 1}

>  <_RMSD_MCS_to_ref>  (481) 
0.7314897280360279

$$$$
ligand
     RDKit          3D

 53 56  0  0  0  0  0  0  0  0999 V2000
   18.9090   19.1540    7.5370 C   0  0  0  0  0  0  0  0  0  0  0  0
   18.7730   17.6460    7.6780 C   0  0  0  0  0  0  0  0  0  0  0  0
   20.0590   16.9400    7.4250 C   0  0  0  0  0  0  0  0  0  0  0  0
   20.7170   16.0220    8.2200 C   0  0  0  0  0  0  0  0  0  0  0  0
   21.8270   15.6890    7.4970 N   0  0  0  0  0  0  0  0  0  0  0  0
   23.1090   14.7510    8.0400 S   0  0  0  0  0  6  0  0  0  0  0  0
   24.2140   15.0490    7.1490 O   0  0  0  0  0  0  0  0  0  0  0  0
   22.5590   13.4180    8.1870 O   0  0  0  0  0  0  0  0  0  0  0  0
   23.5630   15.3290    9.6660 C   0  0  0  0  0  0  0  0  0  0  0  0
   24.6650   16.1780    9.8330 C   0  0  0  0  0  0  0  0  0  0  0  0
   25.0030   16.6350   11.1060 C   0  0  0  0  0  0  0  0  0  0  0  0
   24.2530   16.2480   12.2210 C   0  0  0  0  0  0  0  0  0  0  0  0
   24.7070   16.7720   13.5340 C   0  0  0  0  0  0  0  0  0  0  0  0
   24.7620   16.0320   14.5070 O   0  0  0  0  0  0  0  0  0  0  0  0
   24.9850   18.1170   13.5730 N   0  0  0  0  0  0  0  0  0  0  0  0
   25.2640   18.7940   14.8300 C   0  0  1  0  0  0  0  0  0  0  0  0
   26.3210   18.0660   15.6530 C   0  0  0  0  0  0  0  0  0  0  0  0
   26.5940   18.8430   16.9310 C   0  0  0  0  0  0  0  0  0  0  0  0
   27.0000   20.2660   16.6300 C   0  0  0  0  0  0  0  0  0  0  0  0
   27.8040   20.8830   17.3220 O   0  0  0  0  0  0  0  0  0  0  0  0
   26.3990   20.8620   15.5490 N   0  0  0  0  0  0  0  0  0  0  0  0
   25.7600   20.2110   14.5230 C   0  0  0  0  0  0  0  0  0  0  0  0
   25.5920   20.7530   13.4310 O   0  0  0  0  0  0  0  0  0  0  0  0
   23.1230   15.4210   12.0700 C   0  0  0  0  0  0  0  0  0  0  0  0
   22.7860   14.9290   10.7830 C   0  0  0  0  0  0  0  0  0  0  0  0
   21.5660   14.0340   10.6190 C   0  0  0  0  0  0  0  0  0  0  0  0
   21.0720   13.5090   11.8550 O   0  0  0  0  0  0  0  0  0  0  0  0
   20.8930   14.5430   12.8160 C   0  0  0  0  0  0  0  0  0  0  0  0
   22.2650   15.0330   13.2560 C   0  0  0  0  0  0  0  0  0  0  0  0
   21.8360   16.3990    6.3390 C   0  0  0  0  0  0  0  0  0  0  0  0
   20.7760   17.1770    6.2690 N   0  0  0  0  0  0  0  0  0  0  0  0
   18.9504   19.6134    8.5356 H   0  0  0  0  0  0  0  0  0  0  0  0
   19.8320   19.3891    6.9867 H   0  0  0  0  0  0  0  0  0  0  0  0
   18.0430   19.5504    6.9867 H   0  0  0  0  0  0  0  0  0  0  0  0
   18.4366   17.4145    8.6994 H   0  0  0  0  0  0  0  0  0  0  0  0
   18.0449   17.3008    6.9292 H   0  0  0  0  0  0  0  0  0  0  0  0
   20.4161   15.6454    9.2088 H   0  0  0  0  0  0  0  0  0  0  0  0
   25.2624   16.4834    8.9613 H   0  0  0  0  0  0  0  0  0  0  0  0
   25.8660   17.3049   11.2343 H   0  0  0  0  0  0  0  0  0  0  0  0
   24.9961   18.6562   12.6955 H   0  0  0  0  0  0  0  0  0  0  0  0
   24.3359   18.8144   15.4201 H   0  0  0  0  0  0  0  0  0  0  0  0
   25.9584   17.0590   15.9068 H   0  0  0  0  0  0  0  0  0  0  0  0
   27.2491   17.9856   15.0681 H   0  0  0  0  0  0  0  0  0  0  0  0
   25.6823   18.8527   17.5464 H   0  0  0  0  0  0  0  0  0  0  0  0
   27.4193   18.3518   17.4672 H   0  0  0  0  0  0  0  0  0  0  0  0
   26.4304   21.8905   15.5037 H   0  0  0  0  0  0  0  0  0  0  0  0
   20.7652   14.6207   10.1452 H   0  0  0  0  0  0  0  0  0  0  0  0
   21.8750   13.1760   10.0039 H   0  0  0  0  0  0  0  0  0  0  0  0
   20.3283   15.3735   12.3672 H   0  0  0  0  0  0  0  0  0  0  0  0
   20.3326   14.1610   13.6820 H   0  0  0  0  0  0  0  0  0  0  0  0
   22.1391   15.9099   13.9080 H   0  0  0  0  0  0  0  0  0  0  0  0
   22.7678   14.2148   13.7924 H   0  0  0  0  0  0  0  0  0  0  0  0
   22.6183   16.3333    5.5685 H   0  0  0  0  0  0  0  0  0  0  0  0
  1  2  1  0
  2  3  1  0
  3  4  2  0
  4  5  1  0
  5  6  1  0
  6  7  2  0
  6  8  2  0
  6  9  1  0
  9 10  2  0
 10 11  1  0
 11 12  2  0
 12 13  1  0
 13 14  2  0
 13 15  1  0
 15 16  1  0
 16 17  1  0
 17 18  1  0
 18 19  1  0
 19 20  2  0
 19 21  1  0
 21 22  1  0
 22 23  2  0
 12 24  1  0
 24 25  2  0
 25 26  1  0
 26 27  1  0
 27 28  1  0
 28 29  1  0
  5 30  1  0
 30 31  2  0
 31  3  1  0
 25  9  1  0
 22 16  1  0
 29 24  1  0
  1 32  1  0
  1 33  1  0
  1 34  1  0
  2 35  1  0
  2 36  1  0
  4 37  1  0
 10 38  1  0
 11 39  1  0
 15 40  1  0
 16 41  1  1
 17 42  1  0
 17 43  1  0
 18 44  1  0
 18 45  1  0
 21 46  1  0
 26 47  1  0
 26 48  1  0
 28 49  1  0
 28 50  1  0
 29 51  1  0
 29 52  1  0
 30 53  1  0
M  END
>  <meeko>  (482) 
{"is_sidechain": [true], "free_energy": -10.79, "intermolecular_energy": 0.0, "internal_energy": -10.79, "cluster_size": 13, "cluster_id": 1, "rank_in_cluster": 1}

>  <_RMSD_MCS_to_ref>  (482) 
0.6778194613776015

$$$$
ligand
     RDKit          3D

 46 49  0  0  0  0  0  0  0  0999 V2000
   18.9090   19.1540    7.5370 C   0  0  0  0  0  0  0  0  0  0  0  0
   18.7730   17.6460    7.6780 C   0  0  0  0  0  0  0  0  0  0  0  0
   20.0330   16.9350    7.3310 C   0  0  0  0  0  0  0  0  0  0  0  0
   20.8590   16.1850    8.1450 C   0  0  0  0  0  0  0  0  0  0  0  0
   21.8630   15.7750    7.3140 N   0  0  0  0  0  0  0  0  0  0  0  0
   23.1000   14.7240    7.7220 S   0  0  0  0  0  6  0  0  0  0  0  0
   22.4880   13.4760    8.1320 O   0  0  0  0  0  0  0  0  0  0  0  0
   24.0590   14.8070    6.6360 O   0  0  0  0  0  0  0  0  0  0  0  0
   23.9720   15.2580    9.1040 C   0  0  0  0  0  0  0  0  0  0  0  0
   25.2720   15.7050    9.0460 C   0  0  0  0  0  0  0  0  0  0  0  0
   25.8520   16.1510   10.5850 S   0  0  0  0  0  0  0  0  0  0  0  0
   24.3700   15.7350   11.3580 C   0  0  0  0  0  0  0  0  0  0  0  0
   23.9710   15.7940   12.6910 C   0  0  0  0  0  0  0  0  0  0  0  0
   24.8360   16.2840   13.8040 C   0  0  0  0  0  0  0  0  0  0  0  0
   25.3020   15.5480   14.6630 O   0  0  0  0  0  0  0  0  0  0  0  0
   25.0830   17.6410   13.7730 N   0  0  0  0  0  0  0  0  0  0  0  0
   26.0300   18.2830   14.6680 C   0  0  2  0  0  0  0  0  0  0  0  0
   25.7190   17.9960   16.1330 C   0  0  0  0  0  0  0  0  0  0  0  0
   26.7270   18.7130   17.0160 C   0  0  0  0  0  0  0  0  0  0  0  0
   26.7530   20.1950   16.7280 C   0  0  0  0  0  0  0  0  0  0  0  0
   26.9720   21.0320   17.5970 O   0  0  0  0  0  0  0  0  0  0  0  0
   26.5490   20.5710   15.4240 N   0  0  0  0  0  0  0  0  0  0  0  0
   25.9910   19.7970   14.4360 C   0  0  0  0  0  0  0  0  0  0  0  0
   25.5120   20.3100   13.4260 O   0  0  0  0  0  0  0  0  0  0  0  0
   22.7170   15.3940   13.0380 N   0  0  0  0  0  0  0  0  0  0  0  0
   21.9110   14.9540   12.0720 C   0  0  0  0  0  0  0  0  0  0  0  0
   22.2020   14.8590   10.7740 N   0  0  0  0  0  0  0  0  0  0  0  0
   23.4470   15.2590   10.4240 C   0  0  0  0  0  0  0  0  0  0  0  0
   21.6250   16.2430    6.0610 C   0  0  0  0  0  0  0  0  0  0  0  0
   20.5210   16.9610    6.0390 N   0  0  0  0  0  0  0  0  0  0  0  0
   18.9504   19.6134    8.5356 H   0  0  0  0  0  0  0  0  0  0  0  0
   19.8320   19.3891    6.9867 H   0  0  0  0  0  0  0  0  0  0  0  0
   18.0430   19.5504    6.9867 H   0  0  0  0  0  0  0  0  0  0  0  0
   18.5077   17.4097    8.7190 H   0  0  0  0  0  0  0  0  0  0  0  0
   17.9916   17.3099    6.9805 H   0  0  0  0  0  0  0  0  0  0  0  0
   20.7367   15.9677    9.2164 H   0  0  0  0  0  0  0  0  0  0  0  0
   25.8637   15.7668    8.1207 H   0  0  0  0  0  0  0  0  0  0  0  0
   24.5765   18.2211   13.0890 H   0  0  0  0  0  0  0  0  0  0  0  0
   27.0288   17.8773   14.4491 H   0  0  0  0  0  0  0  0  0  0  0  0
   24.7057   18.3529   16.3692 H   0  0  0  0  0  0  0  0  0  0  0  0
   25.7784   16.9127   16.3145 H   0  0  0  0  0  0  0  0  0  0  0  0
   26.4541   18.5577   18.0702 H   0  0  0  0  0  0  0  0  0  0  0  0
   27.7256   18.3014   16.8075 H   0  0  0  0  0  0  0  0  0  0  0  0
   26.8418   21.5230   15.1616 H   0  0  0  0  0  0  0  0  0  0  0  0
   20.9027   14.6368   12.3765 H   0  0  0  0  0  0  0  0  0  0  0  0
   22.2647   16.0494    5.1873 H   0  0  0  0  0  0  0  0  0  0  0  0
  1  2  1  0
  2  3  1  0
  3  4  2  0
  4  5  1  0
  5  6  1  0
  6  7  2  0
  6  8  2  0
  6  9  1  0
  9 10  2  0
 10 11  1  0
 11 12  1  0
 12 13  2  0
 13 14  1  0
 14 15  2  0
 14 16  1  0
 16 17  1  0
 17 18  1  0
 18 19  1  0
 19 20  1  0
 20 21  2  0
 20 22  1  0
 22 23  1  0
 23 24  2  0
 13 25  1  0
 25 26  2  0
 26 27  1  0
 27 28  2  0
  5 29  1  0
 29 30  2  0
 30  3  1  0
 28  9  1  0
 28 12  1  0
 23 17  1  0
  1 31  1  0
  1 32  1  0
  1 33  1  0
  2 34  1  0
  2 35  1  0
  4 36  1  0
 10 37  1  0
 16 38  1  0
 17 39  1  6
 18 40  1  0
 18 41  1  0
 19 42  1  0
 19 43  1  0
 22 44  1  0
 26 45  1  0
 29 46  1  0
M  END
>  <meeko>  (483) 
{"is_sidechain": [true], "free_energy": -10.79, "intermolecular_energy": 0.0, "internal_energy": -10.79, "cluster_size": 6, "cluster_id": 1, "rank_in_cluster": 1}

>  <_RMSD_MCS_to_ref>  (483) 
0.7232374744469788

$$$$
ligand
     RDKit          3D

 51 54  0  0  0  0  0  0  0  0999 V2000
   18.9090   19.1540    7.5370 C   0  0  0  0  0  0  0  0  0  0  0  0
   18.7730   17.6460    7.6780 C   0  0  0  0  0  0  0  0  0  0  0  0
   20.0930   16.9600    7.6800 C   0  0  0  0  0  0  0  0  0  0  0  0
   21.0020   16.8290    8.7110 C   0  0  0  0  0  0  0  0  0  0  0  0
   22.0390   16.1340    8.1580 N   0  0  0  0  0  0  0  0  0  0  0  0
   23.3420   15.4750    8.9910 S   0  0  0  0  0  6  0  0  0  0  0  0
   24.3520   16.5130    9.0490 O   0  0  0  0  0  0  0  0  0  0  0  0
   23.5890   14.1890    8.3670 O   0  0  0  0  0  0  0  0  0  0  0  0
   22.7060   15.2220   10.6240 C   0  0  0  0  0  0  0  0  0  0  0  0
   23.3930   15.8300   11.6860 C   0  0  0  0  0  0  0  0  0  0  0  0
   22.9260   15.6970   12.9990 C   0  0  0  0  0  0  0  0  0  0  0  0
   23.6780   16.3860   14.0830 C   0  0  0  0  0  0  0  0  0  0  0  0
   23.9900   15.7710   15.0950 O   0  0  0  0  0  0  0  0  0  0  0  0
   23.9590   17.7190   13.8920 N   0  0  0  0  0  0  0  0  0  0  0  0
   24.5480   18.5210   14.9580 C   0  0  1  0  0  0  0  0  0  0  0  0
   25.6880   17.7990   15.6690 C   0  0  0  0  0  0  0  0  0  0  0  0
   26.2830   18.7110   16.7300 C   0  0  0  0  0  0  0  0  0  0  0  0
   26.7320   20.0260   16.1350 C   0  0  0  0  0  0  0  0  0  0  0  0
   27.7130   20.6350   16.5480 O   0  0  0  0  0  0  0  0  0  0  0  0
   25.9660   20.5310   15.1140 N   0  0  0  0  0  0  0  0  0  0  0  0
   25.0860   19.8170   14.3420 C   0  0  0  0  0  0  0  0  0  0  0  0
   24.7500   20.2080   13.2250 O   0  0  0  0  0  0  0  0  0  0  0  0
   21.7620   14.9630   13.2480 C   0  0  0  0  0  0  0  0  0  0  0  0
   21.0840   14.3410   12.1920 C   0  0  0  0  0  0  0  0  0  0  0  0
   19.8670   13.5680   12.4540 C   0  0  0  0  0  0  0  0  0  0  0  0
   19.2260   12.9600   11.4500 C   0  0  0  0  0  0  0  0  0  0  0  0
   19.7230   13.0450   10.0600 C   0  0  0  0  0  0  0  0  0  0  0  0
   19.1380   12.4700    9.1490 O   0  0  0  0  0  0  0  0  0  0  0  0
   20.8510   13.7930    9.8540 N   0  0  0  0  0  0  0  0  0  0  0  0
   21.5610   14.4570   10.8710 C   0  0  0  0  0  0  0  0  0  0  0  0
   21.7330   15.8270    6.8710 C   0  0  0  0  0  0  0  0  0  0  0  0
   20.5580   16.3230    6.5460 N   0  0  0  0  0  0  0  0  0  0  0  0
   18.9504   19.6134    8.5356 H   0  0  0  0  0  0  0  0  0  0  0  0
   19.8320   19.3891    6.9867 H   0  0  0  0  0  0  0  0  0  0  0  0
   18.0430   19.5504    6.9867 H   0  0  0  0  0  0  0  0  0  0  0  0
   18.2570   17.4238    8.6237 H   0  0  0  0  0  0  0  0  0  0  0  0
   18.2019   17.2764    6.8136 H   0  0  0  0  0  0  0  0  0  0  0  0
   20.9114   17.1999    9.7426 H   0  0  0  0  0  0  0  0  0  0  0  0
   24.3033   16.4142   11.4856 H   0  0  0  0  0  0  0  0  0  0  0  0
   23.7504   18.1568   12.9833 H   0  0  0  0  0  0  0  0  0  0  0  0
   23.7677   18.7206   15.7072 H   0  0  0  0  0  0  0  0  0  0  0  0
   25.3027   16.8853   16.1452 H   0  0  0  0  0  0  0  0  0  0  0  0
   26.4651   17.5321   14.9377 H   0  0  0  0  0  0  0  0  0  0  0  0
   25.5232   18.9073   17.5008 H   0  0  0  0  0  0  0  0  0  0  0  0
   27.1597   18.2101   17.1664 H   0  0  0  0  0  0  0  0  0  0  0  0
   26.0607   21.5360   14.9095 H   0  0  0  0  0  0  0  0  0  0  0  0
   21.3782   14.8740   14.2750 H   0  0  0  0  0  0  0  0  0  0  0  0
   19.4792   13.4875   13.4802 H   0  0  0  0  0  0  0  0  0  0  0  0
   18.3120   12.3860   11.6622 H   0  0  0  0  0  0  0  0  0  0  0  0
   21.2035   13.8751    8.8897 H   0  0  0  0  0  0  0  0  0  0  0  0
   22.3769   15.2453    6.1949 H   0  0  0  0  0  0  0  0  0  0  0  0
  1  2  1  0
  2  3  1  0
  3  4  2  0
  4  5  1  0
  5  6  1  0
  6  7  2  0
  6  8  2  0
  6  9  1  0
  9 10  2  0
 10 11  1  0
 11 12  1  0
 12 13  2  0
 12 14  1  0
 14 15  1  0
 15 16  1  0
 16 17  1  0
 17 18  1  0
 18 19  2  0
 18 20  1  0
 20 21  1  0
 21 22  2  0
 11 23  2  0
 23 24  1  0
 24 25  1  0
 25 26  2  0
 26 27  1  0
 27 28  2  0
 27 29  1  0
 29 30  1  0
  5 31  1  0
 31 32  2  0
 32  3  1  0
 30  9  1  0
 21 15  1  0
 30 24  2  0
  1 33  1  0
  1 34  1  0
  1 35  1  0
  2 36  1  0
  2 37  1  0
  4 38  1  0
 10 39  1  0
 14 40  1  0
 15 41  1  1
 16 42  1  0
 16 43  1  0
 17 44  1  0
 17 45  1  0
 20 46  1  0
 23 47  1  0
 25 48  1  0
 26 49  1  0
 29 50  1  0
 31 51  1  0
M  END
>  <meeko>  (484) 
{"is_sidechain": [true], "free_energy": -10.79, "intermolecular_energy": 0.0, "internal_energy": -10.79, "cluster_size": 19, "cluster_id": 1, "rank_in_cluster": 1}

>  <_RMSD_MCS_to_ref>  (484) 
0.42594078879059727

$$$$
ligand
     RDKit          3D

 51 54  0  0  0  0  0  0  0  0999 V2000
   18.9090   19.1540    7.5370 C   0  0  0  0  0  0  0  0  0  0  0  0
   18.7730   17.6460    7.6780 C   0  0  0  0  0  0  0  0  0  0  0  0
   20.0920   16.9580    7.6580 C   0  0  0  0  0  0  0  0  0  0  0  0
   20.9470   16.6880    8.7090 C   0  0  0  0  0  0  0  0  0  0  0  0
   21.9910   16.0270    8.1290 N   0  0  0  0  0  0  0  0  0  0  0  0
   23.4480   15.6360    8.8690 S   0  0  0  0  0  6  0  0  0  0  0  0
   23.8550   14.3570    8.3260 O   0  0  0  0  0  0  0  0  0  0  0  0
   24.2670   16.8290    8.7620 O   0  0  0  0  0  0  0  0  0  0  0  0
   23.0220   15.4010   10.5750 C   0  0  0  0  0  0  0  0  0  0  0  0
   21.8390   14.7440   10.9080 C   0  0  0  0  0  0  0  0  0  0  0  0
   21.5080   14.5790   12.2530 C   0  0  0  0  0  0  0  0  0  0  0  0
   22.3530   15.0560   13.2700 C   0  0  0  0  0  0  0  0  0  0  0  0
   23.5490   15.7150   12.9300 C   0  0  0  0  0  0  0  0  0  0  0  0
   24.5360   16.2620   13.9170 C   0  0  0  0  0  0  0  0  0  0  0  0
   25.1100   15.5040   14.6940 O   0  0  0  0  0  0  0  0  0  0  0  0
   24.7650   17.6130   13.9150 N   0  0  0  0  0  0  0  0  0  0  0  0
   25.8050   18.2310   14.7210 C   0  0  2  0  0  0  0  0  0  0  0  0
   25.6230   17.9520   16.2090 C   0  0  0  0  0  0  0  0  0  0  0  0
   26.7210   18.6520   16.9930 C   0  0  0  0  0  0  0  0  0  0  0  0
   26.7480   20.1340   16.6970 C   0  0  0  0  0  0  0  0  0  0  0  0
   27.0540   20.9690   17.5430 O   0  0  0  0  0  0  0  0  0  0  0  0
   26.4420   20.5100   15.4140 N   0  0  0  0  0  0  0  0  0  0  0  0
   25.7710   19.7470   14.4890 C   0  0  0  0  0  0  0  0  0  0  0  0
   25.1950   20.2680   13.5350 O   0  0  0  0  0  0  0  0  0  0  0  0
   23.8670   15.8970   11.5710 C   0  0  0  0  0  0  0  0  0  0  0  0
   22.0670   14.8460   14.5950 O   0  0  0  0  0  0  0  0  0  0  0  0
   20.7140   14.5270   14.8940 C   0  0  0  0  0  0  0  0  0  0  0  0
   19.8870   13.7800   13.8570 C   0  0  0  0  0  0  0  0  0  0  0  0
   18.8630   13.1600   14.1250 O   0  0  0  0  0  0  0  0  0  0  0  0
   20.3300   13.9040   12.5700 N   0  0  0  0  0  0  0  0  0  0  0  0
   21.7810   15.9460    6.7900 C   0  0  0  0  0  0  0  0  0  0  0  0
   20.6300   16.5000    6.4710 N   0  0  0  0  0  0  0  0  0  0  0  0
   18.9504   19.6134    8.5356 H   0  0  0  0  0  0  0  0  0  0  0  0
   19.8320   19.3891    6.9867 H   0  0  0  0  0  0  0  0  0  0  0  0
   18.0430   19.5504    6.9867 H   0  0  0  0  0  0  0  0  0  0  0  0
   18.2718   17.4232    8.6315 H   0  0  0  0  0  0  0  0  0  0  0  0
   18.1876   17.2785    6.8223 H   0  0  0  0  0  0  0  0  0  0  0  0
   20.8164   16.9465    9.7702 H   0  0  0  0  0  0  0  0  0  0  0  0
   21.1744   14.3602   10.1199 H   0  0  0  0  0  0  0  0  0  0  0  0
   24.1775   18.2139   13.3194 H   0  0  0  0  0  0  0  0  0  0  0  0
   26.7712   17.8024   14.4164 H   0  0  0  0  0  0  0  0  0  0  0  0
   24.6423   18.3283   16.5355 H   0  0  0  0  0  0  0  0  0  0  0  0
   25.6778   16.8681   16.3885 H   0  0  0  0  0  0  0  0  0  0  0  0
   26.5430   18.5046   18.0685 H   0  0  0  0  0  0  0  0  0  0  0  0
   27.6884   18.2210   16.6959 H   0  0  0  0  0  0  0  0  0  0  0  0
   26.7424   21.4494   15.1170 H   0  0  0  0  0  0  0  0  0  0  0  0
   24.7861   16.4328   11.2915 H   0  0  0  0  0  0  0  0  0  0  0  0
   20.7215   13.9110   15.8053 H   0  0  0  0  0  0  0  0  0  0  0  0
   20.2213   15.5077   14.9688 H   0  0  0  0  0  0  0  0  0  0  0  0
   19.7756   13.4852   11.8096 H   0  0  0  0  0  0  0  0  0  0  0  0
   22.4747   15.4828    6.0729 H   0  0  0  0  0  0  0  0  0  0  0  0
  1  2  1  0
  2  3  1  0
  3  4  2  0
  4  5  1  0
  5  6  1  0
  6  7  2  0
  6  8  2  0
  6  9  1  0
  9 10  2  0
 10 11  1  0
 11 12  2  0
 12 13  1  0
 13 14  1  0
 14 15  2  0
 14 16  1  0
 16 17  1  0
 17 18  1  0
 18 19  1  0
 19 20  1  0
 20 21  2  0
 20 22  1  0
 22 23  1  0
 23 24  2  0
 13 25  2  0
 12 26  1  0
 26 27  1  0
 27 28  1  0
 28 29  2  0
 28 30  1  0
  5 31  1  0
 31 32  2  0
 32  3  1  0
 25  9  1  0
 30 11  1  0
 23 17  1  0
  1 33  1  0
  1 34  1  0
  1 35  1  0
  2 36  1  0
  2 37  1  0
  4 38  1  0
 10 39  1  0
 16 40  1  0
 17 41  1  6
 18 42  1  0
 18 43  1  0
 19 44  1  0
 19 45  1  0
 22 46  1  0
 25 47  1  0
 27 48  1  0
 27 49  1  0
 30 50  1  0
 31 51  1  0
M  END
>  <meeko>  (485) 
{"is_sidechain": [true], "free_energy": -10.79, "intermolecular_energy": 0.0, "internal_energy": -10.79, "cluster_size": 20, "cluster_id": 1, "rank_in_cluster": 1}

>  <_RMSD_MCS_to_ref>  (485) 
0.5949258590595788

$$$$
ligand
     RDKit          3D

 54 58  0  0  0  0  0  0  0  0999 V2000
   18.9090   19.1540    7.5370 C   0  0  0  0  0  0  0  0  0  0  0  0
   18.7730   17.6460    7.6780 C   0  0  0  0  0  0  0  0  0  0  0  0
   19.6030   16.9120    6.6840 C   0  0  0  0  0  0  0  0  0  0  0  0
   20.5740   15.9540    6.9000 C   0  0  0  0  0  0  0  0  0  0  0  0
   20.9970   15.6190    5.6470 N   0  0  0  0  0  0  0  0  0  0  0  0
   22.3130   14.6380    5.2870 S   0  0  0  0  0  6  0  0  0  0  0  0
   22.0450   13.3730    5.9490 O   0  0  0  0  0  0  0  0  0  0  0  0
   22.5260   14.7430    3.8580 O   0  0  0  0  0  0  0  0  0  0  0  0
   23.6690   15.4130    6.1260 C   0  0  0  0  0  0  0  0  0  0  0  0
   24.6990   15.9950    5.3700 C   0  0  0  0  0  0  0  0  0  0  0  0
   25.7690   16.6290    5.9970 C   0  0  0  0  0  0  0  0  0  0  0  0
   25.8450   16.6910    7.3940 C   0  0  0  0  0  0  0  0  0  0  0  0
   24.8340   16.0950    8.1760 C   0  0  0  0  0  0  0  0  0  0  0  0
   23.7730   15.4650    7.5270 C   0  0  0  0  0  0  0  0  0  0  0  0
   22.9460   14.9570    8.5060 N   0  0  0  0  0  0  0  0  0  0  0  0
   23.4280   15.2530    9.7580 C   0  0  0  0  0  0  0  0  0  0  0  0
   22.9180   14.9480   11.0130 C   0  0  0  0  0  0  0  0  0  0  0  0
   23.5880   15.3580   12.1110 N   0  0  0  0  0  0  0  0  0  0  0  0
   24.7480   16.0560   11.9490 C   0  0  0  0  0  0  0  0  0  0  0  0
   25.4340   16.4830   13.2120 C   0  0  0  0  0  0  0  0  0  0  0  0
   25.8470   15.6710   14.0330 O   0  0  0  0  0  0  0  0  0  0  0  0
   25.5690   17.8460   13.3570 N   0  0  0  0  0  0  0  0  0  0  0  0
   26.3450   18.4470   14.4250 C   0  0  2  0  0  0  0  0  0  0  0  0
   25.8440   18.0200   15.8010 C   0  0  0  0  0  0  0  0  0  0  0  0
   26.6820   18.6910   16.8780 C   0  0  0  0  0  0  0  0  0  0  0  0
   26.6770   20.1920   16.7200 C   0  0  0  0  0  0  0  0  0  0  0  0
   26.7390   20.9560   17.6800 O   0  0  0  0  0  0  0  0  0  0  0  0
   26.6330   20.6760   15.4370 N   0  0  0  0  0  0  0  0  0  0  0  0
   26.2660   19.9740   14.3150 C   0  0  0  0  0  0  0  0  0  0  0  0
   25.9210   20.5610   13.2910 O   0  0  0  0  0  0  0  0  0  0  0  0
   25.3100   16.3910   10.7240 C   0  0  0  0  0  0  0  0  0  0  0  0
   24.6120   15.9680    9.5840 C   0  0  0  0  0  0  0  0  0  0  0  0
   20.3320   16.3710    4.7340 C   0  0  0  0  0  0  0  0  0  0  0  0
   19.4690   17.1650    5.3320 N   0  0  0  0  0  0  0  0  0  0  0  0
   18.9504   19.6134    8.5356 H   0  0  0  0  0  0  0  0  0  0  0  0
   19.8320   19.3891    6.9867 H   0  0  0  0  0  0  0  0  0  0  0  0
   18.0430   19.5504    6.9867 H   0  0  0  0  0  0  0  0  0  0  0  0
   19.0914   17.3545    8.6898 H   0  0  0  0  0  0  0  0  0  0  0  0
   17.7199   17.3833    7.4989 H   0  0  0  0  0  0  0  0  0  0  0  0
   20.9258   15.5529    7.8620 H   0  0  0  0  0  0  0  0  0  0  0  0
   24.6606   15.9498    4.2716 H   0  0  0  0  0  0  0  0  0  0  0  0
   26.5630   17.0860    5.3882 H   0  0  0  0  0  0  0  0  0  0  0  0
   26.6895   17.2023    7.8792 H   0  0  0  0  0  0  0  0  0  0  0  0
   22.0823   14.4265    8.3233 H   0  0  0  0  0  0  0  0  0  0  0  0
   21.9810   14.3802   11.1112 H   0  0  0  0  0  0  0  0  0  0  0  0
   25.0998   18.4637   12.6794 H   0  0  0  0  0  0  0  0  0  0  0  0
   27.3847   18.1040   14.3181 H   0  0  0  0  0  0  0  0  0  0  0  0
   24.7916   18.3185   15.9166 H   0  0  0  0  0  0  0  0  0  0  0  0
   25.9290   16.9276   15.8987 H   0  0  0  0  0  0  0  0  0  0  0  0
   26.2705   18.4331   17.8650 H   0  0  0  0  0  0  0  0  0  0  0  0
   27.7186   18.3351   16.7838 H   0  0  0  0  0  0  0  0  0  0  0  0
   26.9012   21.6613   15.3021 H   0  0  0  0  0  0  0  0  0  0  0  0
   26.2506   16.9568   10.6521 H   0  0  0  0  0  0  0  0  0  0  0  0
   20.4917   16.3237    3.6467 H   0  0  0  0  0  0  0  0  0  0  0  0
  1  2  1  0
  2  3  1  0
  3  4  2  0
  4  5  1  0
  5  6  1  0
  6  7  2  0
  6  8  2  0
  6  9  1  0
  9 10  2  0
 10 11  1  0
 11 12  2  0
 12 13  1  0
 13 14  2  0
 14 15  1  0
 15 16  1  0
 16 17  2  0
 17 18  1  0
 18 19  2  0
 19 20  1  0
 20 21  2  0
 20 22  1  0
 22 23  1  0
 23 24  1  0
 24 25  1  0
 25 26  1  0
 26 27  2  0
 26 28  1  0
 28 29  1  0
 29 30  2  0
 19 31  1  0
 31 32  2  0
  5 33  1  0
 33 34  2  0
 34  3  1  0
 14  9  1  0
 32 16  1  0
 32 13  1  0
 29 23  1  0
  1 35  1  0
  1 36  1  0
  1 37  1  0
  2 38  1  0
  2 39  1  0
  4 40  1  0
 10 41  1  0
 11 42  1  0
 12 43  1  0
 15 44  1  0
 17 45  1  0
 22 46  1  0
 23 47  1  6
 24 48  1  0
 24 49  1  0
 25 50  1  0
 25 51  1  0
 28 52  1  0
 31 53  1  0
 33 54  1  0
M  END
>  <meeko>  (486) 
{"is_sidechain": [true], "free_energy": -10.79, "intermolecular_energy": 0.0, "internal_energy": -10.79, "cluster_size": 14, "cluster_id": 1, "rank_in_cluster": 1}

>  <_RMSD_MCS_to_ref>  (486) 
0.9448798204004559

$$$$
ligand
     RDKit          3D

 53 57  0  0  0  0  0  0  0  0999 V2000
   18.8250   19.0170    7.5350 C   0  0  0  0  0  0  0  0  0  0  0  0
   18.5200   17.5420    7.7330 C   0  0  0  0  0  0  0  0  0  0  0  0
   19.7500   16.7370    7.9700 C   0  0  0  0  0  0  0  0  0  0  0  0
   20.5340   16.6640    9.1050 C   0  0  0  0  0  0  0  0  0  0  0  0
   21.5270   15.7940    8.7680 N   0  0  0  0  0  0  0  0  0  0  0  0
   22.7930   15.2780    9.7420 S   0  0  0  0  0  6  0  0  0  0  0  0
   23.0910   13.9050    9.3800 O   0  0  0  0  0  0  0  0  0  0  0  0
   23.7840   16.3300    9.6190 O   0  0  0  0  0  0  0  0  0  0  0  0
   22.1650   15.2680   11.4000 C   0  0  0  0  0  0  0  0  0  0  0  0
   21.0780   14.4470   11.7800 C   0  0  0  0  0  0  0  0  0  0  0  0
   20.3810   13.5250   10.8880 C   0  0  0  0  0  0  0  0  0  0  0  0
   19.0370   13.4090   10.5840 C   0  0  0  0  0  0  0  0  0  0  0  0
   18.9460   12.3070    9.7170 C   0  0  0  0  0  0  0  0  0  0  0  0
   20.1340   11.7500    9.4830 N   0  0  0  0  0  0  0  0  0  0  0  0
   20.9840   12.4810   10.2220 N   0  0  0  0  0  0  0  0  0  0  0  0
   20.6130   14.4910   13.1200 C   0  0  0  0  0  0  0  0  0  0  0  0
   21.2160   15.3030   14.0790 C   0  0  0  0  0  0  0  0  0  0  0  0
   22.2860   16.0720   13.6740 C   0  0  0  0  0  0  0  0  0  0  0  0
   22.7700   16.0760   12.3650 C   0  0  0  0  0  0  0  0  0  0  0  0
   23.9480   17.0000   12.2850 C   0  0  0  0  0  0  0  0  0  0  0  0
   24.0310   17.5460   13.6320 N   0  0  0  0  0  0  0  0  0  0  0  0
   25.1970   18.2670   14.1320 C   0  0  2  0  0  0  0  0  0  0  0  0
   25.5500   17.8910   15.5670 C   0  0  0  0  0  0  0  0  0  0  0  0
   26.8170   18.6230   15.9830 C   0  0  0  0  0  0  0  0  0  0  0  0
   26.6680   20.1170   15.8110 C   0  0  0  0  0  0  0  0  0  0  0  0
   27.1990   20.9210   16.5720 O   0  0  0  0  0  0  0  0  0  0  0  0
   25.9240   20.5420   14.7400 N   0  0  0  0  0  0  0  0  0  0  0  0
   25.0020   19.7910   14.0470 C   0  0  0  0  0  0  0  0  0  0  0  0
   24.0980   20.3400   13.4200 O   0  0  0  0  0  0  0  0  0  0  0  0
   23.1100   16.9700   14.4880 C   0  0  0  0  0  0  0  0  0  0  0  0
   22.9820   17.1410   15.6840 O   0  0  0  0  0  0  0  0  0  0  0  0
   21.3120   15.3350    7.5080 C   0  0  0  0  0  0  0  0  0  0  0  0
   20.2520   15.9120    6.9820 N   0  0  0  0  0  0  0  0  0  0  0  0
   18.9260   19.5054    8.5155 H   0  0  0  0  0  0  0  0  0  0  0  0
   19.7645   19.1250    6.9731 H   0  0  0  0  0  0  0  0  0  0  0  0
   18.0054   19.4887    6.9731 H   0  0  0  0  0  0  0  0  0  0  0  0
   17.8528   17.4322    8.6007 H   0  0  0  0  0  0  0  0  0  0  0  0
   18.0467   17.1699    6.8124 H   0  0  0  0  0  0  0  0  0  0  0  0
   20.3897   17.1880   10.0614 H   0  0  0  0  0  0  0  0  0  0  0  0
   18.2143   14.0442   10.9442 H   0  0  0  0  0  0  0  0  0  0  0  0
   18.0028   11.9456    9.2815 H   0  0  0  0  0  0  0  0  0  0  0  0
   21.9922   12.2799   10.2849 H   0  0  0  0  0  0  0  0  0  0  0  0
   19.7540   13.8678   13.4095 H   0  0  0  0  0  0  0  0  0  0  0  0
   20.8528   15.3292   15.1170 H   0  0  0  0  0  0  0  0  0  0  0  0
   24.8644   16.4500   12.0246 H   0  0  0  0  0  0  0  0  0  0  0  0
   23.8391   17.7736   11.5107 H   0  0  0  0  0  0  0  0  0  0  0  0
   26.0305   17.9672   13.4798 H   0  0  0  0  0  0  0  0  0  0  0  0
   24.7244   18.1772   16.2352 H   0  0  0  0  0  0  0  0  0  0  0  0
   25.7139   16.8053   15.6331 H   0  0  0  0  0  0  0  0  0  0  0  0
   27.0276   18.4030   17.0400 H   0  0  0  0  0  0  0  0  0  0  0  0
   27.6430   18.2799   15.3427 H   0  0  0  0  0  0  0  0  0  0  0  0
   26.0685   21.5121   14.4255 H   0  0  0  0  0  0  0  0  0  0  0  0
   21.9361   14.5861    6.9984 H   0  0  0  0  0  0  0  0  0  0  0  0
  1  2  1  0
  2  3  1  0
  3  4  2  0
  4  5  1  0
  5  6  1  0
  6  7  2  0
  6  8  2  0
  6  9  1  0
  9 10  1  0
 10 11  1  0
 11 12  2  0
 12 13  1  0
 13 14  2  0
 14 15  1  0
 10 16  2  0
 16 17  1  0
 17 18  2  0
 18 19  1  0
 19 20  1  0
 20 21  1  0
 21 22  1  0
 22 23  1  0
 23 24  1  0
 24 25  1  0
 25 26  2  0
 25 27  1  0
 27 28  1  0
 28 29  2  0
 21 30  1  0
 30 31  2  0
  5 32  1  0
 32 33  2  0
 33  3  1  0
 19  9  2  0
 28 22  1  0
 15 11  1  0
 30 18  1  0
  1 34  1  0
  1 35  1  0
  1 36  1  0
  2 37  1  0
  2 38  1  0
  4 39  1  0
 12 40  1  0
 13 41  1  0
 15 42  1  0
 16 43  1  0
 17 44  1  0
 20 45  1  0
 20 46  1  0
 22 47  1  6
 23 48  1  0
 23 49  1  0
 24 50  1  0
 24 51  1  0
 27 52  1  0
 32 53  1  0
M  END
>  <meeko>  (487) 
{"is_sidechain": [true], "free_energy": -10.78, "intermolecular_energy": 0.0, "internal_energy": -10.78, "cluster_size": 18, "cluster_id": 1, "rank_in_cluster": 1}

>  <_RMSD_MCS_to_ref>  (487) 
1.6034780426726565

$$$$
ligand
     RDKit          3D

 56 60  0  0  0  0  0  0  0  0999 V2000
   18.9090   19.1540    7.5370 C   0  0  0  0  0  0  0  0  0  0  0  0
   18.7730   17.6460    7.6780 C   0  0  0  0  0  0  0  0  0  0  0  0
   19.9760   16.9240    7.1830 C   0  0  0  0  0  0  0  0  0  0  0  0
   20.9980   16.3410    7.9060 C   0  0  0  0  0  0  0  0  0  0  0  0
   21.8360   15.8390    6.9530 N   0  0  0  0  0  0  0  0  0  0  0  0
   23.2370   14.9510    7.2550 S   0  0  0  0  0  6  0  0  0  0  0  0
   23.6610   14.4520    5.9600 O   0  0  0  0  0  0  0  0  0  0  0  0
   24.0680   15.8980    7.9810 O   0  0  0  0  0  0  0  0  0  0  0  0
   22.8090   13.6090    8.2960 C   0  0  0  0  0  0  0  0  0  0  0  0
   22.0240   12.6600    7.7530 C   0  0  0  0  0  0  0  0  0  0  0  0
   21.6120   11.4930    8.5610 C   0  0  0  0  0  0  0  0  0  0  0  0
   20.9130   10.6070    8.0880 O   0  0  0  0  0  0  0  0  0  0  0  0
   22.0680   11.4710    9.8530 N   0  0  0  0  0  0  0  0  0  0  0  0
   22.8520   12.4470   10.4090 C   0  0  0  0  0  0  0  0  0  0  0  0
   23.2470   13.5160    9.6900 C   0  0  0  0  0  0  0  0  0  0  0  0
   24.0800   14.4990   10.4030 C   0  0  0  0  0  0  0  0  0  0  0  0
   25.4230   14.7040   10.0090 C   0  0  0  0  0  0  0  0  0  0  0  0
   26.2360   15.6440   10.6570 C   0  0  0  0  0  0  0  0  0  0  0  0
   25.6910   16.3620   11.7050 C   0  0  0  0  0  0  0  0  0  0  0  0
   24.3720   16.1430   12.0950 C   0  0  0  0  0  0  0  0  0  0  0  0
   23.5460   15.2250   11.4730 C   0  0  0  0  0  0  0  0  0  0  0  0
   24.0830   17.0170   13.2360 C   0  0  0  0  0  0  0  0  0  0  0  0
   23.0490   17.0130   13.8770 O   0  0  0  0  0  0  0  0  0  0  0  0
   25.2170   17.7810   13.4540 N   0  0  0  0  0  0  0  0  0  0  0  0
   25.3710   18.6310   14.6320 C   0  0  1  0  0  0  0  0  0  0  0  0
   26.3020   17.9750   15.6550 C   0  0  0  0  0  0  0  0  0  0  0  0
   26.3390   18.8100   16.9250 C   0  0  0  0  0  0  0  0  0  0  0  0
   26.7530   20.2310   16.6320 C   0  0  0  0  0  0  0  0  0  0  0  0
   27.4100   20.9020   17.4220 O   0  0  0  0  0  0  0  0  0  0  0  0
   26.3310   20.7570   15.4370 N   0  0  0  0  0  0  0  0  0  0  0  0
   25.8560   20.0630   14.3490 C   0  0  0  0  0  0  0  0  0  0  0  0
   25.8180   20.6030   13.2460 O   0  0  0  0  0  0  0  0  0  0  0  0
   26.3120   17.4210   12.5600 C   0  0  0  0  0  0  0  0  0  0  0  0
   21.3410   16.1250    5.7230 C   0  0  0  0  0  0  0  0  0  0  0  0
   20.1940   16.7670    5.8290 N   0  0  0  0  0  0  0  0  0  0  0  0
   18.9504   19.6134    8.5356 H   0  0  0  0  0  0  0  0  0  0  0  0
   19.8320   19.3891    6.9867 H   0  0  0  0  0  0  0  0  0  0  0  0
   18.0430   19.5504    6.9867 H   0  0  0  0  0  0  0  0  0  0  0  0
   18.6254   17.4015    8.7403 H   0  0  0  0  0  0  0  0  0  0  0  0
   17.9137   17.3264    7.0702 H   0  0  0  0  0  0  0  0  0  0  0  0
   21.1107   16.2924    8.9991 H   0  0  0  0  0  0  0  0  0  0  0  0
   21.6895   12.7529    6.7092 H   0  0  0  0  0  0  0  0  0  0  0  0
   21.8044   10.6695   10.4437 H   0  0  0  0  0  0  0  0  0  0  0  0
   23.1643   12.3566   11.4599 H   0  0  0  0  0  0  0  0  0  0  0  0
   25.8373   14.1143    9.1780 H   0  0  0  0  0  0  0  0  0  0  0  0
   27.2771   15.8056   10.3409 H   0  0  0  0  0  0  0  0  0  0  0  0
   22.5091   15.0715   11.8066 H   0  0  0  0  0  0  0  0  0  0  0  0
   24.3517   18.7299   15.0334 H   0  0  0  0  0  0  0  0  0  0  0  0
   25.9324   16.9663   15.8914 H   0  0  0  0  0  0  0  0  0  0  0  0
   27.3160   17.9081   15.2338 H   0  0  0  0  0  0  0  0  0  0  0  0
   25.3378   18.8147   17.3806 H   0  0  0  0  0  0  0  0  0  0  0  0
   27.0756   18.3672   17.6116 H   0  0  0  0  0  0  0  0  0  0  0  0
   26.3747   21.7820   15.3450 H   0  0  0  0  0  0  0  0  0  0  0  0
   26.6331   18.2827   11.9564 H   0  0  0  0  0  0  0  0  0  0  0  0
   27.2183   17.0867   13.0862 H   0  0  0  0  0  0  0  0  0  0  0  0
   21.8270   15.8593    4.7726 H   0  0  0  0  0  0  0  0  0  0  0  0
  1  2  1  0
  2  3  1  0
  3  4  2  0
  4  5  1  0
  5  6  1  0
  6  7  2  0
  6  8  2  0
  6  9  1  0
  9 10  2  0
 10 11  1  0
 11 12  2  0
 11 13  1  0
 13 14  1  0
 14 15  2  0
 15 16  1  0
 16 17  2  0
 17 18  1  0
 18 19  2  0
 19 20  1  0
 20 21  2  0
 20 22  1  0
 22 23  2  0
 22 24  1  0
 24 25  1  0
 25 26  1  0
 26 27  1  0
 27 28  1  0
 28 29  2  0
 28 30  1  0
 30 31  1  0
 31 32  2  0
 24 33  1  0
  5 34  1  0
 34 35  2  0
 35  3  1  0
 15  9  1  0
 21 16  1  0
 31 25  1  0
 33 19  1  0
  1 36  1  0
  1 37  1  0
  1 38  1  0
  2 39  1  0
  2 40  1  0
  4 41  1  0
 10 42  1  0
 13 43  1  0
 14 44  1  0
 17 45  1  0
 18 46  1  0
 21 47  1  0
 25 48  1  1
 26 49  1  0
 26 50  1  0
 27 51  1  0
 27 52  1  0
 30 53  1  0
 33 54  1  0
 33 55  1  0
 34 56  1  0
M  END
>  <meeko>  (488) 
{"is_sidechain": [true], "free_energy": -10.78, "intermolecular_energy": 0.0, "internal_energy": -10.78, "cluster_size": 20, "cluster_id": 1, "rank_in_cluster": 1}

>  <_RMSD_MCS_to_ref>  (488) 
0.6503546041284791

$$$$
ligand
     RDKit          3D

 48 51  0  0  0  0  0  0  0  0999 V2000
   18.9090   19.1540    7.5370 C   0  0  0  0  0  0  0  0  0  0  0  0
   18.7730   17.6460    7.6780 C   0  0  0  0  0  0  0  0  0  0  0  0
   20.0820   16.9490    7.5500 C   0  0  0  0  0  0  0  0  0  0  0  0
   21.0990   16.8340    8.4780 C   0  0  0  0  0  0  0  0  0  0  0  0
   22.0580   16.1080    7.8340 N   0  0  0  0  0  0  0  0  0  0  0  0
   23.4360   15.4540    8.5380 S   0  0  0  0  0  6  0  0  0  0  0  0
   24.4800   16.4470    8.3830 O   0  0  0  0  0  0  0  0  0  0  0  0
   23.5530   14.1120    8.0030 O   0  0  0  0  0  0  0  0  0  0  0  0
   23.0190   15.3490   10.2590 C   0  0  0  0  0  0  0  0  0  0  0  0
   23.9320   15.8170   11.2090 C   0  0  0  0  0  0  0  0  0  0  0  0
   23.6360   15.7390   12.5830 C   0  0  0  0  0  0  0  0  0  0  0  0
   24.6380   16.2590   13.5370 C   0  0  0  0  0  0  0  0  0  0  0  0
   25.2460   15.4820   14.2630 O   0  0  0  0  0  0  0  0  0  0  0  0
   24.7990   17.6200   13.5820 N   0  0  0  0  0  0  0  0  0  0  0  0
   25.8200   18.2450   14.4080 C   0  0  2  0  0  0  0  0  0  0  0  0
   25.6350   17.9290   15.8880 C   0  0  0  0  0  0  0  0  0  0  0  0
   26.7110   18.6380   16.6950 C   0  0  0  0  0  0  0  0  0  0  0  0
   26.7080   20.1250   16.4270 C   0  0  0  0  0  0  0  0  0  0  0  0
   26.9790   20.9520   17.2930 O   0  0  0  0  0  0  0  0  0  0  0  0
   26.4080   20.5200   15.1480 N   0  0  0  0  0  0  0  0  0  0  0  0
   25.7520   19.7630   14.2100 C   0  0  0  0  0  0  0  0  0  0  0  0
   25.1530   20.2870   13.2710 O   0  0  0  0  0  0  0  0  0  0  0  0
   22.3930   15.2060   12.9910 C   0  0  0  0  0  0  0  0  0  0  0  0
   21.6890   15.0090   14.2160 C   0  0  0  0  0  0  0  0  0  0  0  0
   20.4880   14.4220   13.8920 C   0  0  0  0  0  0  0  0  0  0  0  0
   20.3880   14.2540   12.5500 O   0  0  0  0  0  0  0  0  0  0  0  0
   21.5310   14.7420   11.9990 C   0  0  0  0  0  0  0  0  0  0  0  0
   21.7970   14.7780   10.6310 C   0  0  0  0  0  0  0  0  0  0  0  0
   21.6080   15.7700    6.5980 C   0  0  0  0  0  0  0  0  0  0  0  0
   20.4110   16.2780    6.3890 N   0  0  0  0  0  0  0  0  0  0  0  0
   18.9504   19.6134    8.5356 H   0  0  0  0  0  0  0  0  0  0  0  0
   19.8320   19.3891    6.9867 H   0  0  0  0  0  0  0  0  0  0  0  0
   18.0430   19.5504    6.9867 H   0  0  0  0  0  0  0  0  0  0  0  0
   18.3463   17.4197    8.6663 H   0  0  0  0  0  0  0  0  0  0  0  0
   18.1196   17.2887    6.8684 H   0  0  0  0  0  0  0  0  0  0  0  0
   21.1287   17.2357    9.5016 H   0  0  0  0  0  0  0  0  0  0  0  0
   24.8886   16.2493   10.8803 H   0  0  0  0  0  0  0  0  0  0  0  0
   24.1796   18.2164   13.0150 H   0  0  0  0  0  0  0  0  0  0  0  0
   26.7978   17.8465   14.0997 H   0  0  0  0  0  0  0  0  0  0  0  0
   24.6433   18.2743   16.2157 H   0  0  0  0  0  0  0  0  0  0  0  0
   25.7147   16.8431   16.0442 H   0  0  0  0  0  0  0  0  0  0  0  0
   26.5271   18.4665   17.7659 H   0  0  0  0  0  0  0  0  0  0  0  0
   27.6902   18.2338   16.3986 H   0  0  0  0  0  0  0  0  0  0  0  0
   26.7005   21.4669   14.8674 H   0  0  0  0  0  0  0  0  0  0  0  0
   22.0389   15.2750   15.2244 H   0  0  0  0  0  0  0  0  0  0  0  0
   19.7166   14.1297   14.6196 H   0  0  0  0  0  0  0  0  0  0  0  0
   21.0888   14.3813    9.8887 H   0  0  0  0  0  0  0  0  0  0  0  0
   22.1650   15.1580    5.8733 H   0  0  0  0  0  0  0  0  0  0  0  0
  1  2  1  0
  2  3  1  0
  3  4  2  0
  4  5  1  0
  5  6  1  0
  6  7  2  0
  6  8  2  0
  6  9  1  0
  9 10  2  0
 10 11  1  0
 11 12  1  0
 12 13  2  0
 12 14  1  0
 14 15  1  0
 15 16  1  0
 16 17  1  0
 17 18  1  0
 18 19  2  0
 18 20  1  0
 20 21  1  0
 21 22  2  0
 11 23  2  0
 23 24  1  0
 24 25  2  0
 25 26  1  0
 26 27  1  0
 27 28  2  0
  5 29  1  0
 29 30  2  0
 30  3  1  0
 28  9  1  0
 21 15  1  0
 27 23  1  0
  1 31  1  0
  1 32  1  0
  1 33  1  0
  2 34  1  0
  2 35  1  0
  4 36  1  0
 10 37  1  0
 14 38  1  0
 15 39  1  6
 16 40  1  0
 16 41  1  0
 17 42  1  0
 17 43  1  0
 20 44  1  0
 24 45  1  0
 25 46  1  0
 28 47  1  0
 29 48  1  0
M  END
>  <meeko>  (489) 
{"is_sidechain": [true], "free_energy": -10.78, "intermolecular_energy": 0.0, "internal_energy": -10.78, "cluster_size": 20, "cluster_id": 1, "rank_in_cluster": 1}

>  <_RMSD_MCS_to_ref>  (489) 
0.5454772629949337

$$$$
ligand
     RDKit          3D

 48 51  0  0  0  0  0  0  0  0999 V2000
   18.9090   19.1540    7.5370 C   0  0  0  0  0  0  0  0  0  0  0  0
   18.7730   17.6460    7.6780 C   0  0  0  0  0  0  0  0  0  0  0  0
   20.0930   16.9580    7.6460 C   0  0  0  0  0  0  0  0  0  0  0  0
   20.9460   16.6680    8.6930 C   0  0  0  0  0  0  0  0  0  0  0  0
   21.9980   16.0320    8.1000 N   0  0  0  0  0  0  0  0  0  0  0  0
   23.4540   15.6360    8.8370 S   0  0  0  0  0  6  0  0  0  0  0  0
   23.8630   14.3590    8.2920 O   0  0  0  0  0  0  0  0  0  0  0  0
   24.2770   16.8290    8.7470 O   0  0  0  0  0  0  0  0  0  0  0  0
   23.0380   15.4100   10.5440 C   0  0  0  0  0  0  0  0  0  0  0  0
   23.8870   15.9170   11.5360 C   0  0  0  0  0  0  0  0  0  0  0  0
   23.5910   15.7460   12.8960 C   0  0  0  0  0  0  0  0  0  0  0  0
   24.5570   16.2940   13.8900 C   0  0  0  0  0  0  0  0  0  0  0  0
   25.1330   15.5370   14.6640 O   0  0  0  0  0  0  0  0  0  0  0  0
   24.7760   17.6520   13.8630 N   0  0  0  0  0  0  0  0  0  0  0  0
   25.8120   18.2610   14.6860 C   0  0  2  0  0  0  0  0  0  0  0  0
   25.6280   17.9600   16.1700 C   0  0  0  0  0  0  0  0  0  0  0  0
   26.7160   18.6620   16.9690 C   0  0  0  0  0  0  0  0  0  0  0  0
   26.7270   20.1470   16.6920 C   0  0  0  0  0  0  0  0  0  0  0  0
   27.0180   20.9750   17.5510 O   0  0  0  0  0  0  0  0  0  0  0  0
   26.4210   20.5370   15.4130 N   0  0  0  0  0  0  0  0  0  0  0  0
   25.7650   19.7780   14.4760 C   0  0  0  0  0  0  0  0  0  0  0  0
   25.1860   20.2980   13.5230 O   0  0  0  0  0  0  0  0  0  0  0  0
   22.4340   15.0520   13.2950 C   0  0  0  0  0  0  0  0  0  0  0  0
   21.5640   14.5580   12.3050 C   0  0  0  0  0  0  0  0  0  0  0  0
   20.3470   13.8440   12.2840 C   0  0  0  0  0  0  0  0  0  0  0  0
   19.9100   13.6090   11.0440 N   0  0  0  0  0  0  0  0  0  0  0  0
   20.8430   14.1790   10.2630 N   0  0  0  0  0  0  0  0  0  0  0  0
   21.8770   14.7510   10.9660 C   0  0  0  0  0  0  0  0  0  0  0  0
   21.7920   15.9840    6.7590 C   0  0  0  0  0  0  0  0  0  0  0  0
   20.6340   16.5290    6.4500 N   0  0  0  0  0  0  0  0  0  0  0  0
   18.9504   19.6134    8.5356 H   0  0  0  0  0  0  0  0  0  0  0  0
   19.8320   19.3891    6.9867 H   0  0  0  0  0  0  0  0  0  0  0  0
   18.0430   19.5504    6.9867 H   0  0  0  0  0  0  0  0  0  0  0  0
   18.2799   17.4226    8.6356 H   0  0  0  0  0  0  0  0  0  0  0  0
   18.1796   17.2790    6.8276 H   0  0  0  0  0  0  0  0  0  0  0  0
   20.8089   16.8971    9.7601 H   0  0  0  0  0  0  0  0  0  0  0  0
   24.7995   16.4573   11.2439 H   0  0  0  0  0  0  0  0  0  0  0  0
   24.1987   18.2469   13.2517 H   0  0  0  0  0  0  0  0  0  0  0  0
   26.7816   17.8399   14.3816 H   0  0  0  0  0  0  0  0  0  0  0  0
   24.6419   18.3208   16.4977 H   0  0  0  0  0  0  0  0  0  0  0  0
   25.6948   16.8745   16.3348 H   0  0  0  0  0  0  0  0  0  0  0  0
   26.5351   18.4987   18.0417 H   0  0  0  0  0  0  0  0  0  0  0  0
   27.6896   18.2455   16.6714 H   0  0  0  0  0  0  0  0  0  0  0  0
   26.7094   21.4845   15.1303 H   0  0  0  0  0  0  0  0  0  0  0  0
   22.2133   14.8982   14.3616 H   0  0  0  0  0  0  0  0  0  0  0  0
   19.8161   13.5167   13.1901 H   0  0  0  0  0  0  0  0  0  0  0  0
   20.7887   14.1867    9.2345 H   0  0  0  0  0  0  0  0  0  0  0  0
   22.4945   15.5503    6.0321 H   0  0  0  0  0  0  0  0  0  0  0  0
  1  2  1  0
  2  3  1  0
  3  4  2  0
  4  5  1  0
  5  6  1  0
  6  7  2  0
  6  8  2  0
  6  9  1  0
  9 10  2  0
 10 11  1  0
 11 12  1  0
 12 13  2  0
 12 14  1  0
 14 15  1  0
 15 16  1  0
 16 17  1  0
 17 18  1  0
 18 19  2  0
 18 20  1  0
 20 21  1  0
 21 22  2  0
 11 23  2  0
 23 24  1  0
 24 25  1  0
 25 26  2  0
 26 27  1  0
 27 28  1  0
  5 29  1  0
 29 30  2  0
 30  3  1  0
 28  9  1  0
 21 15  1  0
 28 24  2  0
  1 31  1  0
  1 32  1  0
  1 33  1  0
  2 34  1  0
  2 35  1  0
  4 36  1  0
 10 37  1  0
 14 38  1  0
 15 39  1  6
 16 40  1  0
 16 41  1  0
 17 42  1  0
 17 43  1  0
 20 44  1  0
 23 45  1  0
 25 46  1  0
 27 47  1  0
 29 48  1  0
M  END
>  <meeko>  (490) 
{"is_sidechain": [true], "free_energy": -10.78, "intermolecular_energy": 0.0, "internal_energy": -10.78, "cluster_size": 20, "cluster_id": 1, "rank_in_cluster": 1}

>  <_RMSD_MCS_to_ref>  (490) 
0.5889960384699832

$$$$
ligand
     RDKit          3D

 47 50  0  0  0  0  0  0  0  0999 V2000
   18.9090   19.1540    7.5370 C   0  0  0  0  0  0  0  0  0  0  0  0
   18.7730   17.6460    7.6780 C   0  0  0  0  0  0  0  0  0  0  0  0
   20.0180   16.9310    7.2870 C   0  0  0  0  0  0  0  0  0  0  0  0
   20.7990   16.0720    8.0350 C   0  0  0  0  0  0  0  0  0  0  0  0
   21.8200   15.7310    7.1960 N   0  0  0  0  0  0  0  0  0  0  0  0
   23.0100   14.5980    7.5010 S   0  0  0  0  0  6  0  0  0  0  0  0
   24.2830   15.2850    7.4130 O   0  0  0  0  0  0  0  0  0  0  0  0
   22.7030   13.4340    6.6930 O   0  0  0  0  0  0  0  0  0  0  0  0
   22.8940   14.0520    9.1580 C   0  0  0  0  0  0  0  0  0  0  0  0
   22.3970   12.8920    9.5650 N   0  0  0  0  0  0  0  0  0  0  0  0
   22.5160   12.8970   10.9330 C   0  0  0  0  0  0  0  0  0  0  0  0
   23.0900   14.0680   11.3600 C   0  0  0  0  0  0  0  0  0  0  0  0
   23.4680   14.6620   12.5830 C   0  0  0  0  0  0  0  0  0  0  0  0
   24.0310   15.8880   12.5450 C   0  0  0  0  0  0  0  0  0  0  0  0
   24.4210   16.5010   13.8700 C   0  0  0  0  0  0  0  0  0  0  0  0
   24.3570   15.9020   14.9370 O   0  0  0  0  0  0  0  0  0  0  0  0
   24.8390   17.8020   13.7490 N   0  0  0  0  0  0  0  0  0  0  0  0
   25.1090   18.6470   14.8960 C   0  0  1  0  0  0  0  0  0  0  0  0
   26.0860   17.9950   15.8690 C   0  0  0  0  0  0  0  0  0  0  0  0
   26.3440   18.9350   17.0370 C   0  0  0  0  0  0  0  0  0  0  0  0
   26.8400   20.2780   16.5600 C   0  0  0  0  0  0  0  0  0  0  0  0
   27.6360   20.9530   17.2050 O   0  0  0  0  0  0  0  0  0  0  0  0
   26.3300   20.7360   15.3720 N   0  0  0  0  0  0  0  0  0  0  0  0
   25.6950   19.9800   14.4160 C   0  0  0  0  0  0  0  0  0  0  0  0
   25.6000   20.3780   13.2560 O   0  0  0  0  0  0  0  0  0  0  0  0
   24.2700   16.6160   11.3790 N   0  0  0  0  0  0  0  0  0  0  0  0
   23.9170   16.0640   10.2520 C   0  0  0  0  0  0  0  0  0  0  0  0
   23.3310   14.8000   10.2200 N   0  0  0  0  0  0  0  0  0  0  0  0
   21.6140   16.3100    5.9850 C   0  0  0  0  0  0  0  0  0  0  0  0
   20.5390   17.0700    6.0150 N   0  0  0  0  0  0  0  0  0  0  0  0
   18.9504   19.6134    8.5356 H   0  0  0  0  0  0  0  0  0  0  0  0
   19.8320   19.3891    6.9867 H   0  0  0  0  0  0  0  0  0  0  0  0
   18.0430   19.5504    6.9867 H   0  0  0  0  0  0  0  0  0  0  0  0
   18.5419   17.4076    8.7267 H   0  0  0  0  0  0  0  0  0  0  0  0
   17.9678   17.3149    7.0057 H   0  0  0  0  0  0  0  0  0  0  0  0
   20.6355   15.7388    9.0705 H   0  0  0  0  0  0  0  0  0  0  0  0
   22.1962   12.0776   11.5936 H   0  0  0  0  0  0  0  0  0  0  0  0
   23.3085   14.1413   13.5388 H   0  0  0  0  0  0  0  0  0  0  0  0
   24.9662   18.1944   12.8052 H   0  0  0  0  0  0  0  0  0  0  0  0
   24.1583   18.8070   15.4258 H   0  0  0  0  0  0  0  0  0  0  0  0
   25.6568   17.0541   16.2438 H   0  0  0  0  0  0  0  0  0  0  0  0
   27.0337   17.7859   15.3511 H   0  0  0  0  0  0  0  0  0  0  0  0
   25.4076   19.0768   17.5965 H   0  0  0  0  0  0  0  0  0  0  0  0
   27.1168   18.4873   17.6792 H   0  0  0  0  0  0  0  0  0  0  0  0
   26.4327   21.7423   15.1779 H   0  0  0  0  0  0  0  0  0  0  0  0
   24.0847   16.6056    9.3094 H   0  0  0  0  0  0  0  0  0  0  0  0
   22.2550   16.1646    5.1030 H   0  0  0  0  0  0  0  0  0  0  0  0
  1  2  1  0
  2  3  1  0
  3  4  2  0
  4  5  1  0
  5  6  1  0
  6  7  2  0
  6  8  2  0
  6  9  1  0
  9 10  2  0
 10 11  1  0
 11 12  2  0
 12 13  1  0
 13 14  2  0
 14 15  1  0
 15 16  2  0
 15 17  1  0
 17 18  1  0
 18 19  1  0
 19 20  1  0
 20 21  1  0
 21 22  2  0
 21 23  1  0
 23 24  1  0
 24 25  2  0
 14 26  1  0
 26 27  2  0
 27 28  1  0
  5 29  1  0
 29 30  2  0
 30  3  1  0
 28  9  1  0
 28 12  1  0
 24 18  1  0
  1 31  1  0
  1 32  1  0
  1 33  1  0
  2 34  1  0
  2 35  1  0
  4 36  1  0
 11 37  1  0
 13 38  1  0
 17 39  1  0
 18 40  1  1
 19 41  1  0
 19 42  1  0
 20 43  1  0
 20 44  1  0
 23 45  1  0
 27 46  1  0
 29 47  1  0
M  END
>  <meeko>  (491) 
{"is_sidechain": [true], "free_energy": -10.78, "intermolecular_energy": 0.0, "internal_energy": -10.78, "cluster_size": 19, "cluster_id": 1, "rank_in_cluster": 1}

>  <_RMSD_MCS_to_ref>  (491) 
0.5292113629417518

$$$$
ligand
     RDKit          3D

 49 52  0  0  0  0  0  0  0  0999 V2000
   18.9090   19.1540    7.5370 C   0  0  0  0  0  0  0  0  0  0  0  0
   18.7730   17.6460    7.6780 C   0  0  0  0  0  0  0  0  0  0  0  0
   20.0870   16.9540    7.5960 C   0  0  0  0  0  0  0  0  0  0  0  0
   21.0670   16.8310    8.5620 C   0  0  0  0  0  0  0  0  0  0  0  0
   22.0460   16.1010    7.9520 N   0  0  0  0  0  0  0  0  0  0  0  0
   23.4360   15.5180    8.6950 S   0  0  0  0  0  6  0  0  0  0  0  0
   23.6880   14.2030    8.1420 O   0  0  0  0  0  0  0  0  0  0  0  0
   24.3950   16.5990    8.5750 O   0  0  0  0  0  0  0  0  0  0  0  0
   22.9820   15.3480   10.4060 C   0  0  0  0  0  0  0  0  0  0  0  0
   23.9020   15.8240   11.3440 C   0  0  0  0  0  0  0  0  0  0  0  0
   23.5620   15.7370   12.6760 C   0  0  0  0  0  0  0  0  0  0  0  0
   24.4980   16.2500   13.7270 C   0  0  0  0  0  0  0  0  0  0  0  0
   24.9400   15.5170   14.6040 O   0  0  0  0  0  0  0  0  0  0  0  0
   24.8190   17.5820   13.6090 N   0  0  0  0  0  0  0  0  0  0  0  0
   25.8330   18.2180   14.4320 C   0  0  2  0  0  0  0  0  0  0  0  0
   25.6350   17.9220   15.9150 C   0  0  0  0  0  0  0  0  0  0  0  0
   26.7080   18.6330   16.7230 C   0  0  0  0  0  0  0  0  0  0  0  0
   26.7120   20.1180   16.4420 C   0  0  0  0  0  0  0  0  0  0  0  0
   27.0010   20.9490   17.2980 O   0  0  0  0  0  0  0  0  0  0  0  0
   26.4070   20.5020   15.1600 N   0  0  0  0  0  0  0  0  0  0  0  0
   25.7780   19.7340   14.2130 C   0  0  0  0  0  0  0  0  0  0  0  0
   25.2250   20.2530   13.2430 O   0  0  0  0  0  0  0  0  0  0  0  0
   22.3910   15.2160   13.1170 N   0  0  0  0  0  0  0  0  0  0  0  0
   21.5180   14.7420   12.2080 C   0  0  0  0  0  0  0  0  0  0  0  0
   20.3190   14.1970   12.6390 C   0  0  0  0  0  0  0  0  0  0  0  0
   19.3490   13.6770   11.8480 N   0  0  0  0  0  0  0  0  0  0  0  0
   19.5900   13.6900   10.5300 C   0  0  0  0  0  0  0  0  0  0  0  0
   20.7500   14.2110    9.9770 C   0  0  0  0  0  0  0  0  0  0  0  0
   21.7500   14.7660   10.8170 C   0  0  0  0  0  0  0  0  0  0  0  0
   21.6710   15.8220    6.6790 C   0  0  0  0  0  0  0  0  0  0  0  0
   20.4740   16.3110    6.4360 N   0  0  0  0  0  0  0  0  0  0  0  0
   18.9504   19.6134    8.5356 H   0  0  0  0  0  0  0  0  0  0  0  0
   19.8320   19.3891    6.9867 H   0  0  0  0  0  0  0  0  0  0  0  0
   18.0430   19.5504    6.9867 H   0  0  0  0  0  0  0  0  0  0  0  0
   18.3142   17.4211    8.6521 H   0  0  0  0  0  0  0  0  0  0  0  0
   18.1480   17.2839    6.8484 H   0  0  0  0  0  0  0  0  0  0  0  0
   21.0600   17.2297    9.5872 H   0  0  0  0  0  0  0  0  0  0  0  0
   24.8646   16.2534   11.0295 H   0  0  0  0  0  0  0  0  0  0  0  0
   24.3209   18.1510   12.9097 H   0  0  0  0  0  0  0  0  0  0  0  0
   26.8116   17.8134   14.1342 H   0  0  0  0  0  0  0  0  0  0  0  0
   24.6430   18.2777   16.2303 H   0  0  0  0  0  0  0  0  0  0  0  0
   25.7076   16.8376   16.0846 H   0  0  0  0  0  0  0  0  0  0  0  0
   26.5164   18.4713   17.7940 H   0  0  0  0  0  0  0  0  0  0  0  0
   27.6877   18.2225   16.4371 H   0  0  0  0  0  0  0  0  0  0  0  0
   26.6757   21.4569   14.8828 H   0  0  0  0  0  0  0  0  0  0  0  0
   20.1377   14.1853   13.7239 H   0  0  0  0  0  0  0  0  0  0  0  0
   18.8316   13.2673    9.8546 H   0  0  0  0  0  0  0  0  0  0  0  0
   20.8951   14.1941    8.8867 H   0  0  0  0  0  0  0  0  0  0  0  0
   22.2813   15.2656    5.9524 H   0  0  0  0  0  0  0  0  0  0  0  0
  1  2  1  0
  2  3  1  0
  3  4  2  0
  4  5  1  0
  5  6  1  0
  6  7  2  0
  6  8  2  0
  6  9  1  0
  9 10  2  0
 10 11  1  0
 11 12  1  0
 12 13  2  0
 12 14  1  0
 14 15  1  0
 15 16  1  0
 16 17  1  0
 17 18  1  0
 18 19  2  0
 18 20  1  0
 20 21  1  0
 21 22  2  0
 11 23  2  0
 23 24  1  0
 24 25  2  0
 25 26  1  0
 26 27  2  0
 27 28  1  0
 28 29  2  0
  5 30  1  0
 30 31  2  0
 31  3  1  0
 29  9  1  0
 21 15  1  0
 29 24  1  0
  1 32  1  0
  1 33  1  0
  1 34  1  0
  2 35  1  0
  2 36  1  0
  4 37  1  0
 10 38  1  0
 14 39  1  0
 15 40  1  6
 16 41  1  0
 16 42  1  0
 17 43  1  0
 17 44  1  0
 20 45  1  0
 25 46  1  0
 27 47  1  0
 28 48  1  0
 30 49  1  0
M  END
>  <meeko>  (492) 
{"is_sidechain": [true], "free_energy": -10.78, "intermolecular_energy": 0.0, "internal_energy": -10.78, "cluster_size": 19, "cluster_id": 1, "rank_in_cluster": 1}

>  <_RMSD_MCS_to_ref>  (492) 
0.5562254738662883

$$$$
ligand
     RDKit          3D

 49 52  0  0  0  0  0  0  0  0999 V2000
   18.9090   19.1540    7.5370 C   0  0  0  0  0  0  0  0  0  0  0  0
   18.7730   17.6460    7.6780 C   0  0  0  0  0  0  0  0  0  0  0  0
   20.0850   16.9510    7.5730 C   0  0  0  0  0  0  0  0  0  0  0  0
   21.0840   16.8310    8.5200 C   0  0  0  0  0  0  0  0  0  0  0  0
   22.0550   16.1050    7.8900 N   0  0  0  0  0  0  0  0  0  0  0  0
   23.4360   15.4920    8.6210 S   0  0  0  0  0  6  0  0  0  0  0  0
   24.5530   16.3560    8.2980 O   0  0  0  0  0  0  0  0  0  0  0  0
   23.4420   14.0930    8.2320 O   0  0  0  0  0  0  0  0  0  0  0  0
   23.1760   15.5530   10.3710 C   0  0  0  0  0  0  0  0  0  0  0  0
   24.0160   16.3930   11.1140 C   0  0  0  0  0  0  0  0  0  0  0  0
   23.7650   16.5370   12.4670 C   0  0  0  0  0  0  0  0  0  0  0  0
   24.6380   17.4120   13.3090 C   0  0  0  0  0  0  0  0  0  0  0  0
   25.8240   17.5710   13.0470 O   0  0  0  0  0  0  0  0  0  0  0  0
   24.0060   17.9940   14.3840 N   0  0  0  0  0  0  0  0  0  0  0  0
   24.7190   18.7700   15.3820 C   0  0  1  0  0  0  0  0  0  0  0  0
   25.8070   17.9490   16.0690 C   0  0  0  0  0  0  0  0  0  0  0  0
   26.5290   18.8120   17.0900 C   0  0  0  0  0  0  0  0  0  0  0  0
   27.0890   20.0620   16.4540 C   0  0  0  0  0  0  0  0  0  0  0  0
   28.1290   20.5870   16.8380 O   0  0  0  0  0  0  0  0  0  0  0  0
   26.3560   20.6140   15.4340 N   0  0  0  0  0  0  0  0  0  0  0  0
   25.3580   19.9950   14.7190 C   0  0  0  0  0  0  0  0  0  0  0  0
   25.0030   20.4330   13.6250 O   0  0  0  0  0  0  0  0  0  0  0  0
   22.7420   15.9220   13.1070 N   0  0  0  0  0  0  0  0  0  0  0  0
   21.9390   15.1270   12.3710 C   0  0  0  0  0  0  0  0  0  0  0  0
   20.8980   14.5670   13.1170 N   0  0  0  0  0  0  0  0  0  0  0  0
   20.0450   13.8330   12.4990 C   0  0  0  0  0  0  0  0  0  0  0  0
   20.1160   13.5600   11.1660 N   0  0  0  0  0  0  0  0  0  0  0  0
   21.1740   13.9580   10.3930 C   0  0  0  0  0  0  0  0  0  0  0  0
   21.3530   13.4920    9.2800 O   0  0  0  0  0  0  0  0  0  0  0  0
   22.1220   14.8980   11.0090 C   0  0  0  0  0  0  0  0  0  0  0  0
   21.6160   15.7530    6.6550 C   0  0  0  0  0  0  0  0  0  0  0  0
   20.4310   16.2790    6.4180 N   0  0  0  0  0  0  0  0  0  0  0  0
   18.9504   19.6134    8.5356 H   0  0  0  0  0  0  0  0  0  0  0  0
   19.8320   19.3891    6.9867 H   0  0  0  0  0  0  0  0  0  0  0  0
   18.0430   19.5504    6.9867 H   0  0  0  0  0  0  0  0  0  0  0  0
   18.3302   17.4205    8.6593 H   0  0  0  0  0  0  0  0  0  0  0  0
   18.1338   17.2864    6.8582 H   0  0  0  0  0  0  0  0  0  0  0  0
   21.0950   17.2286    9.5456 H   0  0  0  0  0  0  0  0  0  0  0  0
   24.8521   16.9234   10.6348 H   0  0  0  0  0  0  0  0  0  0  0  0
   22.9879   17.8743   14.4842 H   0  0  0  0  0  0  0  0  0  0  0  0
   23.9912   19.0814   16.1458 H   0  0  0  0  0  0  0  0  0  0  0  0
   25.3495   17.0869   16.5765 H   0  0  0  0  0  0  0  0  0  0  0  0
   26.5267   17.5942   15.3166 H   0  0  0  0  0  0  0  0  0  0  0  0
   25.8209   19.0990   17.8814 H   0  0  0  0  0  0  0  0  0  0  0  0
   27.3644   18.2306   17.5073 H   0  0  0  0  0  0  0  0  0  0  0  0
   26.5748   21.5876   15.1789 H   0  0  0  0  0  0  0  0  0  0  0  0
   19.2134   13.4020   13.0758 H   0  0  0  0  0  0  0  0  0  0  0  0
   19.3471   13.0360   10.7243 H   0  0  0  0  0  0  0  0  0  0  0  0
   22.1718   15.1173    5.9500 H   0  0  0  0  0  0  0  0  0  0  0  0
  1  2  1  0
  2  3  1  0
  3  4  2  0
  4  5  1  0
  5  6  1  0
  6  7  2  0
  6  8  2  0
  6  9  1  0
  9 10  2  0
 10 11  1  0
 11 12  1  0
 12 13  2  0
 12 14  1  0
 14 15  1  0
 15 16  1  0
 16 17  1  0
 17 18  1  0
 18 19  2  0
 18 20  1  0
 20 21  1  0
 21 22  2  0
 11 23  2  0
 23 24  1  0
 24 25  1  0
 25 26  2  0
 26 27  1  0
 27 28  1  0
 28 29  2  0
 28 30  1  0
  5 31  1  0
 31 32  2  0
 32  3  1  0
 30  9  1  0
 21 15  1  0
 30 24  2  0
  1 33  1  0
  1 34  1  0
  1 35  1  0
  2 36  1  0
  2 37  1  0
  4 38  1  0
 10 39  1  0
 14 40  1  0
 15 41  1  1
 16 42  1  0
 16 43  1  0
 17 44  1  0
 17 45  1  0
 20 46  1  0
 26 47  1  0
 27 48  1  0
 31 49  1  0
M  END
>  <meeko>  (493) 
{"is_sidechain": [true], "free_energy": -10.78, "intermolecular_energy": 0.0, "internal_energy": -10.78, "cluster_size": 16, "cluster_id": 1, "rank_in_cluster": 1}

>  <_RMSD_MCS_to_ref>  (493) 
0.6662887262040886

$$$$
ligand
     RDKit          3D

 56 60  0  0  0  0  0  0  0  0999 V2000
   18.8250   19.0170    7.5350 C   0  0  0  0  0  0  0  0  0  0  0  0
   18.5200   17.5420    7.7330 C   0  0  0  0  0  0  0  0  0  0  0  0
   19.6010   16.6680    7.2010 C   0  0  0  0  0  0  0  0  0  0  0  0
   20.9660   16.7630    7.3870 C   0  0  0  0  0  0  0  0  0  0  0  0
   21.4770   15.7340    6.6470 N   0  0  0  0  0  0  0  0  0  0  0  0
   23.0760   15.1990    6.6760 S   0  0  0  0  0  6  0  0  0  0  0  0
   23.5420   15.3650    5.3120 O   0  0  0  0  0  0  0  0  0  0  0  0
   23.0120   13.8910    7.3030 O   0  0  0  0  0  0  0  0  0  0  0  0
   23.8720   16.2300    7.6530 O   0  0  0  0  0  0  0  0  0  0  0  0
   23.9590   16.0490    9.0100 C   0  0  0  0  0  0  0  0  0  0  0  0
   25.1400   16.1260    9.7640 C   0  0  0  0  0  0  0  0  0  0  0  0
   25.1150   15.9320   11.1510 C   0  0  0  0  0  0  0  0  0  0  0  0
   23.9050   15.6520   11.7670 C   0  0  0  0  0  0  0  0  0  0  0  0
   22.7300   15.5670   11.0120 C   0  0  0  0  0  0  0  0  0  0  0  0
   22.7420   15.7710    9.6410 C   0  0  0  0  0  0  0  0  0  0  0  0
   21.5430   15.2960   11.8830 C   0  0  0  0  0  0  0  0  0  0  0  0
   22.2190   14.7610   13.1540 C   0  0  0  0  0  0  0  0  0  0  0  0
   23.6040   15.4330   13.2320 C   0  0  1  0  0  0  0  0  0  0  0  0
   24.6360   14.6180   13.9990 C   0  0  0  0  0  0  0  0  0  0  0  0
   25.4100   15.6610   14.7540 C   0  0  0  0  0  0  0  0  0  0  0  0
   26.4480   15.4430   15.3600 O   0  0  0  0  0  0  0  0  0  0  0  0
   24.7470   16.8530   14.6910 N   0  0  0  0  0  0  0  0  0  0  0  0
   25.0910   17.9760   15.5520 C   0  0  1  0  0  0  0  0  0  0  0  0
   26.0800   17.6370   16.6650 C   0  0  0  0  0  0  0  0  0  0  0  0
   26.3320   18.8810   17.5040 C   0  0  0  0  0  0  0  0  0  0  0  0
   26.8240   20.0290   16.6530 C   0  0  0  0  0  0  0  0  0  0  0  0
   27.5490   20.9130   17.0990 O   0  0  0  0  0  0  0  0  0  0  0  0
   26.3730   20.0720   15.3570 N   0  0  0  0  0  0  0  0  0  0  0  0
   25.6330   19.1220   14.6900 C   0  0  0  0  0  0  0  0  0  0  0  0
   25.3930   19.2420   13.4900 O   0  0  0  0  0  0  0  0  0  0  0  0
   23.5730   16.7430   13.9950 C   0  0  0  0  0  0  0  0  0  0  0  0
   22.6630   17.5580   13.9850 O   0  0  0  0  0  0  0  0  0  0  0  0
   20.4530   15.0140    6.1200 C   0  0  0  0  0  0  0  0  0  0  0  0
   19.2970   15.5720    6.4170 N   0  0  0  0  0  0  0  0  0  0  0  0
   18.9260   19.5054    8.5155 H   0  0  0  0  0  0  0  0  0  0  0  0
   19.7645   19.1250    6.9731 H   0  0  0  0  0  0  0  0  0  0  0  0
   18.0054   19.4887    6.9731 H   0  0  0  0  0  0  0  0  0  0  0  0
   18.4031   17.3458    8.8090 H   0  0  0  0  0  0  0  0  0  0  0  0
   17.5968   17.3110    7.1813 H   0  0  0  0  0  0  0  0  0  0  0  0
   21.5161   17.4986    7.9923 H   0  0  0  0  0  0  0  0  0  0  0  0
   26.0944   16.3407    9.2611 H   0  0  0  0  0  0  0  0  0  0  0  0
   26.0403   16.0007   11.7418 H   0  0  0  0  0  0  0  0  0  0  0  0
   21.8102   15.7152    9.0591 H   0  0  0  0  0  0  0  0  0  0  0  0
   20.9740   16.2153   12.0859 H   0  0  0  0  0  0  0  0  0  0  0  0
   20.8069   14.6087   11.4406 H   0  0  0  0  0  0  0  0  0  0  0  0
   21.6208   15.0203   14.0400 H   0  0  0  0  0  0  0  0  0  0  0  0
   22.3108   13.6653   13.1234 H   0  0  0  0  0  0  0  0  0  0  0  0
   24.1481   13.9135   14.6887 H   0  0  0  0  0  0  0  0  0  0  0  0
   25.2701   14.0018   13.3446 H   0  0  0  0  0  0  0  0  0  0  0  0
   24.1650   18.2733   16.0660 H   0  0  0  0  0  0  0  0  0  0  0  0
   25.6611   16.8429   17.3005 H   0  0  0  0  0  0  0  0  0  0  0  0
   27.0264   17.2885   16.2259 H   0  0  0  0  0  0  0  0  0  0  0  0
   25.3939   19.1768   17.9964 H   0  0  0  0  0  0  0  0  0  0  0  0
   27.1062   18.6454   18.2491 H   0  0  0  0  0  0  0  0  0  0  0  0
   26.6176   20.9159   14.8195 H   0  0  0  0  0  0  0  0  0  0  0  0
   20.5721   14.0943    5.5284 H   0  0  0  0  0  0  0  0  0  0  0  0
  1  2  1  0
  2  3  1  0
  3  4  2  0
  4  5  1  0
  5  6  1  0
  6  7  2  0
  6  8  2  0
  6  9  1  0
  9 10  1  0
 10 11  2  0
 11 12  1  0
 12 13  2  0
 13 14  1  0
 14 15  2  0
 14 16  1  0
 16 17  1  0
 18 17  1  6
 18 19  1  0
 19 20  1  0
 20 21  2  0
 20 22  1  0
 22 23  1  0
 23 24  1  0
 24 25  1  0
 25 26  1  0
 26 27  2  0
 26 28  1  0
 28 29  1  0
 29 30  2  0
 22 31  1  0
 31 32  2  0
  5 33  1  0
 33 34  2  0
 34  3  1  0
 15 10  1  0
 31 18  1  0
 18 13  1  0
 29 23  1  0
  1 35  1  0
  1 36  1  0
  1 37  1  0
  2 38  1  0
  2 39  1  0
  4 40  1  0
 11 41  1  0
 12 42  1  0
 15 43  1  0
 16 44  1  0
 16 45  1  0
 17 46  1  0
 17 47  1  0
 19 48  1  0
 19 49  1  0
 23 50  1  1
 24 51  1  0
 24 52  1  0
 25 53  1  0
 25 54  1  0
 28 55  1  0
 33 56  1  0
M  END
>  <meeko>  (494) 
{"is_sidechain": [true], "free_energy": -10.77, "intermolecular_energy": 0.0, "internal_energy": -10.77, "cluster_size": 20, "cluster_id": 1, "rank_in_cluster": 1}

>  <_RMSD_MCS_to_ref>  (494) 
1.2367936367882881

$$$$
ligand
     RDKit          3D

 48 51  0  0  0  0  0  0  0  0999 V2000
   18.9090   19.1540    7.5370 C   0  0  0  0  0  0  0  0  0  0  0  0
   18.7730   17.6460    7.6780 C   0  0  0  0  0  0  0  0  0  0  0  0
   20.0140   16.9300    7.2740 C   0  0  0  0  0  0  0  0  0  0  0  0
   20.9780   16.3460    8.0710 C   0  0  0  0  0  0  0  0  0  0  0  0
   21.8720   15.8180    7.1830 N   0  0  0  0  0  0  0  0  0  0  0  0
   23.4050   15.2220    7.5690 S   0  0  0  0  0  6  0  0  0  0  0  0
   23.3360   13.8090    7.2410 O   0  0  0  0  0  0  0  0  0  0  0  0
   24.3170   16.1030    6.8590 O   0  0  0  0  0  0  0  0  0  0  0  0
   23.5910   15.4390    9.2940 C   0  0  0  0  0  0  0  0  0  0  0  0
   24.7930   16.0550    9.8470 C   0  0  0  0  0  0  0  0  0  0  0  0
   24.8890   16.2260   11.1780 C   0  0  0  0  0  0  0  0  0  0  0  0
   23.8430   15.8120   12.0100 N   0  0  0  0  0  0  0  0  0  0  0  0
   23.6920   15.8800   13.3890 C   0  0  0  0  0  0  0  0  0  0  0  0
   24.6570   16.4160   14.3170 C   0  0  0  0  0  0  0  0  0  0  0  0
   25.2900   15.7310   15.1160 O   0  0  0  0  0  0  0  0  0  0  0  0
   24.8490   17.7780   14.2510 N   0  0  0  0  0  0  0  0  0  0  0  0
   25.8860   18.4410   15.0300 C   0  0  2  0  0  0  0  0  0  0  0  0
   25.7150   18.2220   16.5280 C   0  0  0  0  0  0  0  0  0  0  0  0
   26.8010   18.9760   17.2790 C   0  0  0  0  0  0  0  0  0  0  0  0
   26.7990   20.4440   16.9200 C   0  0  0  0  0  0  0  0  0  0  0  0
   27.0930   21.3190   17.7280 O   0  0  0  0  0  0  0  0  0  0  0  0
   26.4790   20.7580   15.6240 N   0  0  0  0  0  0  0  0  0  0  0  0
   25.8210   19.9440   14.7380 C   0  0  0  0  0  0  0  0  0  0  0  0
   25.2260   20.4050   13.7640 O   0  0  0  0  0  0  0  0  0  0  0  0
   22.4480   15.3130   13.6190 C   0  0  0  0  0  0  0  0  0  0  0  0
   21.8370   14.9180   12.4610 N   0  0  0  0  0  0  0  0  0  0  0  0
   22.6850   15.2180   11.5060 C   0  0  0  0  0  0  0  0  0  0  0  0
   22.5850   15.0330   10.0970 C   0  0  0  0  0  0  0  0  0  0  0  0
   21.4830   16.1320    5.9210 C   0  0  0  0  0  0  0  0  0  0  0  0
   20.3470   16.7970    5.9400 N   0  0  0  0  0  0  0  0  0  0  0  0
   18.9504   19.6134    8.5356 H   0  0  0  0  0  0  0  0  0  0  0  0
   19.8320   19.3891    6.9867 H   0  0  0  0  0  0  0  0  0  0  0  0
   18.0430   19.5504    6.9867 H   0  0  0  0  0  0  0  0  0  0  0  0
   18.5520   17.4068    8.7287 H   0  0  0  0  0  0  0  0  0  0  0  0
   17.9609   17.3162    7.0133 H   0  0  0  0  0  0  0  0  0  0  0  0
   21.0174   16.3132    9.1698 H   0  0  0  0  0  0  0  0  0  0  0  0
   25.6101   16.3754    9.1839 H   0  0  0  0  0  0  0  0  0  0  0  0
   25.7874   16.6900   11.6110 H   0  0  0  0  0  0  0  0  0  0  0  0
   24.2448   18.3415   13.6360 H   0  0  0  0  0  0  0  0  0  0  0  0
   26.8572   18.0130   14.7410 H   0  0  0  0  0  0  0  0  0  0  0  0
   24.7279   18.5920   16.8421 H   0  0  0  0  0  0  0  0  0  0  0  0
   25.7930   17.1479   16.7522 H   0  0  0  0  0  0  0  0  0  0  0  0
   26.6277   18.8713   18.3602 H   0  0  0  0  0  0  0  0  0  0  0  0
   27.7761   18.5513   16.9982 H   0  0  0  0  0  0  0  0  0  0  0  0
   26.7582   21.6898   15.2853 H   0  0  0  0  0  0  0  0  0  0  0  0
   22.0034   15.1944   14.6182 H   0  0  0  0  0  0  0  0  0  0  0  0
   21.6905   14.5607    9.6648 H   0  0  0  0  0  0  0  0  0  0  0  0
   22.0393   15.8677    5.0096 H   0  0  0  0  0  0  0  0  0  0  0  0
  1  2  1  0
  2  3  1  0
  3  4  2  0
  4  5  1  0
  5  6  1  0
  6  7  2  0
  6  8  2  0
  6  9  1  0
  9 10  1  0
 10 11  2  0
 11 12  1  0
 12 13  1  0
 13 14  1  0
 14 15  2  0
 14 16  1  0
 16 17  1  0
 17 18  1  0
 18 19  1  0
 19 20  1  0
 20 21  2  0
 20 22  1  0
 22 23  1  0
 23 24  2  0
 13 25  2  0
 25 26  1  0
 26 27  2  0
 27 28  1  0
  5 29  1  0
 29 30  2  0
 30  3  1  0
 28  9  2  0
 27 12  1  0
 23 17  1  0
  1 31  1  0
  1 32  1  0
  1 33  1  0
  2 34  1  0
  2 35  1  0
  4 36  1  0
 10 37  1  0
 11 38  1  0
 16 39  1  0
 17 40  1  6
 18 41  1  0
 18 42  1  0
 19 43  1  0
 19 44  1  0
 22 45  1  0
 25 46  1  0
 28 47  1  0
 29 48  1  0
M  END
>  <meeko>  (495) 
{"is_sidechain": [true], "free_energy": -10.77, "intermolecular_energy": 0.0, "internal_energy": -10.77, "cluster_size": 18, "cluster_id": 1, "rank_in_cluster": 1}

>  <_RMSD_MCS_to_ref>  (495) 
0.8389976162063868

$$$$
ligand
     RDKit          3D

 48 51  0  0  0  0  0  0  0  0999 V2000
   18.9090   19.1540    7.5370 C   0  0  0  0  0  0  0  0  0  0  0  0
   18.7730   17.6460    7.6780 C   0  0  0  0  0  0  0  0  0  0  0  0
   20.0860   16.9520    7.5870 C   0  0  0  0  0  0  0  0  0  0  0  0
   20.8840   16.4680    8.6050 C   0  0  0  0  0  0  0  0  0  0  0  0
   21.9510   15.9120    7.9590 N   0  0  0  0  0  0  0  0  0  0  0  0
   23.3630   15.3570    8.6790 S   0  0  0  0  0  6  0  0  0  0  0  0
   24.3760   16.3460    8.3630 O   0  0  0  0  0  0  0  0  0  0  0  0
   23.4920   13.9640    8.3050 O   0  0  0  0  0  0  0  0  0  0  0  0
   23.0100   15.4390   10.4260 C   0  0  0  0  0  0  0  0  0  0  0  0
   23.7840   16.3480   11.2200 C   0  0  0  0  0  0  0  0  0  0  0  0
   23.6000   16.5040   12.6180 C   0  0  0  0  0  0  0  0  0  0  0  0
   24.4300   17.4330   13.4040 C   0  0  0  0  0  0  0  0  0  0  0  0
   25.5340   17.7660   12.9820 O   0  0  0  0  0  0  0  0  0  0  0  0
   23.9150   17.8790   14.5950 N   0  0  0  0  0  0  0  0  0  0  0  0
   24.6760   18.7130   15.5070 C   0  0  1  0  0  0  0  0  0  0  0  0
   25.8070   17.9340   16.1750 C   0  0  0  0  0  0  0  0  0  0  0  0
   26.5730   18.8530   17.1130 C   0  0  0  0  0  0  0  0  0  0  0  0
   27.0860   20.0730   16.3870 C   0  0  0  0  0  0  0  0  0  0  0  0
   28.1440   20.6190   16.6830 O   0  0  0  0  0  0  0  0  0  0  0  0
   26.2920   20.5710   15.3860 N   0  0  0  0  0  0  0  0  0  0  0  0
   25.2720   19.9050   14.7490 C   0  0  0  0  0  0  0  0  0  0  0  0
   24.8690   20.2830   13.6500 O   0  0  0  0  0  0  0  0  0  0  0  0
   22.5770   15.6970   13.1590 C   0  0  0  0  0  0  0  0  0  0  0  0
   22.1140   15.5690   14.4180 N   0  0  0  0  0  0  0  0  0  0  0  0
   21.1360   14.6460   14.3440 N   0  0  0  0  0  0  0  0  0  0  0  0
   20.9180   14.1580   13.0880 C   0  0  0  0  0  0  0  0  0  0  0  0
   21.8260   14.8080   12.3010 C   0  0  0  0  0  0  0  0  0  0  0  0
   21.9750   14.6220   10.9320 C   0  0  0  0  0  0  0  0  0  0  0  0
   21.8100   16.1020    6.6210 C   0  0  0  0  0  0  0  0  0  0  0  0
   20.6790   16.7240    6.3610 N   0  0  0  0  0  0  0  0  0  0  0  0
   18.9504   19.6134    8.5356 H   0  0  0  0  0  0  0  0  0  0  0  0
   19.8320   19.3891    6.9867 H   0  0  0  0  0  0  0  0  0  0  0  0
   18.0430   19.5504    6.9867 H   0  0  0  0  0  0  0  0  0  0  0  0
   18.3204   17.4210    8.6550 H   0  0  0  0  0  0  0  0  0  0  0  0
   18.1425   17.2852    6.8519 H   0  0  0  0  0  0  0  0  0  0  0  0
   20.7018   16.5188    9.6886 H   0  0  0  0  0  0  0  0  0  0  0  0
   24.5564   16.9525   10.7220 H   0  0  0  0  0  0  0  0  0  0  0  0
   22.9536   17.6123   14.8511 H   0  0  0  0  0  0  0  0  0  0  0  0
   23.9860   19.0635   16.2887 H   0  0  0  0  0  0  0  0  0  0  0  0
   25.3853   17.0949   16.7478 H   0  0  0  0  0  0  0  0  0  0  0  0
   26.4895   17.5468   15.4041 H   0  0  0  0  0  0  0  0  0  0  0  0
   25.9044   19.1741   17.9253 H   0  0  0  0  0  0  0  0  0  0  0  0
   27.4348   18.2997   17.5144 H   0  0  0  0  0  0  0  0  0  0  0  0
   26.4778   21.5374   15.0821 H   0  0  0  0  0  0  0  0  0  0  0  0
   20.5982   14.3348   15.1655 H   0  0  0  0  0  0  0  0  0  0  0  0
   20.1757   13.4077   12.7782 H   0  0  0  0  0  0  0  0  0  0  0  0
   21.3695   13.9326   10.3253 H   0  0  0  0  0  0  0  0  0  0  0  0
   22.5384   15.7812    5.8617 H   0  0  0  0  0  0  0  0  0  0  0  0
  1  2  1  0
  2  3  1  0
  3  4  2  0
  4  5  1  0
  5  6  1  0
  6  7  2  0
  6  8  2  0
  6  9  1  0
  9 10  1  0
 10 11  2  0
 11 12  1  0
 12 13  2  0
 12 14  1  0
 14 15  1  0
 15 16  1  0
 16 17  1  0
 17 18  1  0
 18 19  2  0
 18 20  1  0
 20 21  1  0
 21 22  2  0
 11 23  1  0
 23 24  2  0
 24 25  1  0
 25 26  1  0
 26 27  2  0
 27 28  1  0
  5 29  1  0
 29 30  2  0
 30  3  1  0
 28  9  2  0
 21 15  1  0
 27 23  1  0
  1 31  1  0
  1 32  1  0
  1 33  1  0
  2 34  1  0
  2 35  1  0
  4 36  1  0
 10 37  1  0
 14 38  1  0
 15 39  1  1
 16 40  1  0
 16 41  1  0
 17 42  1  0
 17 43  1  0
 20 44  1  0
 25 45  1  0
 26 46  1  0
 28 47  1  0
 29 48  1  0
M  END
>  <meeko>  (496) 
{"is_sidechain": [true], "free_energy": -10.77, "intermolecular_energy": 0.0, "internal_energy": -10.77, "cluster_size": 20, "cluster_id": 1, "rank_in_cluster": 1}

>  <_RMSD_MCS_to_ref>  (496) 
0.7152694907826316

$$$$
ligand
     RDKit          3D

 47 50  0  0  0  0  0  0  0  0999 V2000
   18.9090   19.1540    7.5370 C   0  0  0  0  0  0  0  0  0  0  0  0
   18.7730   17.6460    7.6780 C   0  0  0  0  0  0  0  0  0  0  0  0
   20.0830   16.9500    7.5550 C   0  0  0  0  0  0  0  0  0  0  0  0
   21.0870   16.8170    8.4930 C   0  0  0  0  0  0  0  0  0  0  0  0
   22.0540   16.1000    7.8510 N   0  0  0  0  0  0  0  0  0  0  0  0
   23.4160   15.4200    8.5600 S   0  0  0  0  0  6  0  0  0  0  0  0
   23.4890   14.0680    8.0410 O   0  0  0  0  0  0  0  0  0  0  0  0
   24.4880   16.3800    8.3940 O   0  0  0  0  0  0  0  0  0  0  0  0
   23.0090   15.3390   10.2880 C   0  0  0  0  0  0  0  0  0  0  0  0
   23.9180   15.8420   11.2270 C   0  0  0  0  0  0  0  0  0  0  0  0
   23.6370   15.7980   12.6060 C   0  0  0  0  0  0  0  0  0  0  0  0
   24.6160   16.3500   13.5690 C   0  0  0  0  0  0  0  0  0  0  0  0
   25.2170   15.5870   14.3180 O   0  0  0  0  0  0  0  0  0  0  0  0
   24.8240   17.7080   13.5740 N   0  0  0  0  0  0  0  0  0  0  0  0
   25.8430   18.3180   14.4180 C   0  0  2  0  0  0  0  0  0  0  0  0
   25.6360   17.9850   15.8920 C   0  0  0  0  0  0  0  0  0  0  0  0
   26.7130   18.6680   16.7220 C   0  0  0  0  0  0  0  0  0  0  0  0
   26.7290   20.1590   16.4800 C   0  0  0  0  0  0  0  0  0  0  0  0
   27.0200   20.9660   17.3580 O   0  0  0  0  0  0  0  0  0  0  0  0
   26.4310   20.5780   15.2070 N   0  0  0  0  0  0  0  0  0  0  0  0
   25.7980   19.8390   14.2390 C   0  0  0  0  0  0  0  0  0  0  0  0
   25.2480   20.3850   13.2830 O   0  0  0  0  0  0  0  0  0  0  0  0
   22.4230   15.2110   12.9650 C   0  0  0  0  0  0  0  0  0  0  0  0
   21.9310   15.0380   14.2240 O   0  0  0  0  0  0  0  0  0  0  0  0
   20.7010   14.4080   14.1650 N   0  0  0  0  0  0  0  0  0  0  0  0
   20.4650   14.2090   12.8670 C   0  0  0  0  0  0  0  0  0  0  0  0
   21.5130   14.6910   12.0550 C   0  0  0  0  0  0  0  0  0  0  0  0
   21.7980   14.7490   10.6810 C   0  0  0  0  0  0  0  0  0  0  0  0
   21.6230   15.7920    6.6000 C   0  0  0  0  0  0  0  0  0  0  0  0
   20.4280   16.3000    6.3860 N   0  0  0  0  0  0  0  0  0  0  0  0
   18.9504   19.6134    8.5356 H   0  0  0  0  0  0  0  0  0  0  0  0
   19.8320   19.3891    6.9867 H   0  0  0  0  0  0  0  0  0  0  0  0
   18.0430   19.5504    6.9867 H   0  0  0  0  0  0  0  0  0  0  0  0
   18.3428   17.4197    8.6648 H   0  0  0  0  0  0  0  0  0  0  0  0
   18.1225   17.2880    6.8664 H   0  0  0  0  0  0  0  0  0  0  0  0
   21.1036   17.2016    9.5235 H   0  0  0  0  0  0  0  0  0  0  0  0
   24.8668   16.2785   10.8817 H   0  0  0  0  0  0  0  0  0  0  0  0
   24.2468   18.3081   12.9677 H   0  0  0  0  0  0  0  0  0  0  0  0
   26.8202   17.9159   14.1125 H   0  0  0  0  0  0  0  0  0  0  0  0
   24.6455   18.3402   16.2126 H   0  0  0  0  0  0  0  0  0  0  0  0
   25.6986   16.8960   16.0344 H   0  0  0  0  0  0  0  0  0  0  0  0
   26.5170   18.4800   17.7880 H   0  0  0  0  0  0  0  0  0  0  0  0
   27.6904   18.2579   16.4279 H   0  0  0  0  0  0  0  0  0  0  0  0
   26.7086   21.5372   14.9546 H   0  0  0  0  0  0  0  0  0  0  0  0
   19.5581   13.7251   12.4753 H   0  0  0  0  0  0  0  0  0  0  0  0
   21.0951   14.3452    9.9374 H   0  0  0  0  0  0  0  0  0  0  0  0
   22.1931   15.2007    5.8683 H   0  0  0  0  0  0  0  0  0  0  0  0
  1  2  1  0
  2  3  1  0
  3  4  2  0
  4  5  1  0
  5  6  1  0
  6  7  2  0
  6  8  2  0
  6  9  1  0
  9 10  2  0
 10 11  1  0
 11 12  1  0
 12 13  2  0
 12 14  1  0
 14 15  1  0
 15 16  1  0
 16 17  1  0
 17 18  1  0
 18 19  2  0
 18 20  1  0
 20 21  1  0
 21 22  2  0
 11 23  2  0
 23 24  1  0
 24 25  1  0
 25 26  2  0
 26 27  1  0
 27 28  2  0
  5 29  1  0
 29 30  2  0
 30  3  1  0
 28  9  1  0
 21 15  1  0
 27 23  1  0
  1 31  1  0
  1 32  1  0
  1 33  1  0
  2 34  1  0
  2 35  1  0
  4 36  1  0
 10 37  1  0
 14 38  1  0
 15 39  1  6
 16 40  1  0
 16 41  1  0
 17 42  1  0
 17 43  1  0
 20 44  1  0
 26 45  1  0
 28 46  1  0
 29 47  1  0
M  END
>  <meeko>  (497) 
{"is_sidechain": [true], "free_energy": -10.77, "intermolecular_energy": 0.0, "internal_energy": -10.77, "cluster_size": 20, "cluster_id": 1, "rank_in_cluster": 1}

>  <_RMSD_MCS_to_ref>  (497) 
0.5773947234489304

$$$$
ligand
     RDKit          3D

 47 50  0  0  0  0  0  0  0  0999 V2000
   18.9090   19.1540    7.5370 C   0  0  0  0  0  0  0  0  0  0  0  0
   18.7730   17.6460    7.6780 C   0  0  0  0  0  0  0  0  0  0  0  0
   20.0920   16.9580    7.6380 C   0  0  0  0  0  0  0  0  0  0  0  0
   20.9490   16.6630    8.6800 C   0  0  0  0  0  0  0  0  0  0  0  0
   21.9990   16.0300    8.0810 N   0  0  0  0  0  0  0  0  0  0  0  0
   23.4590   15.6350    8.8090 S   0  0  0  0  0  6  0  0  0  0  0  0
   24.2830   16.8290    8.7160 O   0  0  0  0  0  0  0  0  0  0  0  0
   23.8670   14.3570    8.2650 O   0  0  0  0  0  0  0  0  0  0  0  0
   23.0650   15.4130   10.5160 C   0  0  0  0  0  0  0  0  0  0  0  0
   23.9150   15.9200   11.5090 C   0  0  0  0  0  0  0  0  0  0  0  0
   23.6210   15.7530   12.8730 C   0  0  0  0  0  0  0  0  0  0  0  0
   24.5930   16.2970   13.8620 C   0  0  0  0  0  0  0  0  0  0  0  0
   25.1930   15.5350   14.6090 O   0  0  0  0  0  0  0  0  0  0  0  0
   24.7900   17.6590   13.8590 N   0  0  0  0  0  0  0  0  0  0  0  0
   25.8230   18.2690   14.6850 C   0  0  2  0  0  0  0  0  0  0  0  0
   25.6290   17.9710   16.1680 C   0  0  0  0  0  0  0  0  0  0  0  0
   26.7140   18.6710   16.9730 C   0  0  0  0  0  0  0  0  0  0  0  0
   26.7320   20.1560   16.6940 C   0  0  0  0  0  0  0  0  0  0  0  0
   27.0290   20.9830   17.5510 O   0  0  0  0  0  0  0  0  0  0  0  0
   26.4280   20.5460   15.4140 N   0  0  0  0  0  0  0  0  0  0  0  0
   25.7820   19.7860   14.4730 C   0  0  0  0  0  0  0  0  0  0  0  0
   25.2160   20.3050   13.5100 O   0  0  0  0  0  0  0  0  0  0  0  0
   22.4670   15.0600   13.2790 C   0  0  0  0  0  0  0  0  0  0  0  0
   21.6020   14.5710   12.2900 C   0  0  0  0  0  0  0  0  0  0  0  0
   20.4260   13.8830   12.3910 N   0  0  0  0  0  0  0  0  0  0  0  0
   19.9780   13.6430   11.1640 N   0  0  0  0  0  0  0  0  0  0  0  0
   20.8580   14.1740   10.3010 N   0  0  0  0  0  0  0  0  0  0  0  0
   21.9100   14.7600   10.9520 C   0  0  0  0  0  0  0  0  0  0  0  0
   21.7880   15.9860    6.7400 C   0  0  0  0  0  0  0  0  0  0  0  0
   20.6300   16.5340    6.4390 N   0  0  0  0  0  0  0  0  0  0  0  0
   18.9504   19.6134    8.5356 H   0  0  0  0  0  0  0  0  0  0  0  0
   19.8320   19.3891    6.9867 H   0  0  0  0  0  0  0  0  0  0  0  0
   18.0430   19.5504    6.9867 H   0  0  0  0  0  0  0  0  0  0  0  0
   18.2854   17.4222    8.6383 H   0  0  0  0  0  0  0  0  0  0  0  0
   18.1744   17.2796    6.8310 H   0  0  0  0  0  0  0  0  0  0  0  0
   20.8156   16.8871    9.7486 H   0  0  0  0  0  0  0  0  0  0  0  0
   24.8283   16.4581   11.2152 H   0  0  0  0  0  0  0  0  0  0  0  0
   24.1981   18.2559   13.2638 H   0  0  0  0  0  0  0  0  0  0  0  0
   26.7933   17.8466   14.3849 H   0  0  0  0  0  0  0  0  0  0  0  0
   24.6419   18.3352   16.4890 H   0  0  0  0  0  0  0  0  0  0  0  0
   25.6918   16.8855   16.3348 H   0  0  0  0  0  0  0  0  0  0  0  0
   26.5255   18.5099   18.0447 H   0  0  0  0  0  0  0  0  0  0  0  0
   27.6881   18.2510   16.6821 H   0  0  0  0  0  0  0  0  0  0  0  0
   26.7108   21.4962   15.1345 H   0  0  0  0  0  0  0  0  0  0  0  0
   22.2483   14.9054   14.3459 H   0  0  0  0  0  0  0  0  0  0  0  0
   20.7547   14.1443    9.2766 H   0  0  0  0  0  0  0  0  0  0  0  0
   22.4865   15.5533    6.0087 H   0  0  0  0  0  0  0  0  0  0  0  0
  1  2  1  0
  2  3  1  0
  3  4  2  0
  4  5  1  0
  5  6  1  0
  6  7  2  0
  6  8  2  0
  6  9  1  0
  9 10  2  0
 10 11  1  0
 11 12  1  0
 12 13  2  0
 12 14  1  0
 14 15  1  0
 15 16  1  0
 16 17  1  0
 17 18  1  0
 18 19  2  0
 18 20  1  0
 20 21  1  0
 21 22  2  0
 11 23  2  0
 23 24  1  0
 24 25  1  0
 25 26  2  0
 26 27  1  0
 27 28  1  0
  5 29  1  0
 29 30  2  0
 30  3  1  0
 28  9  1  0
 21 15  1  0
 28 24  2  0
  1 31  1  0
  1 32  1  0
  1 33  1  0
  2 34  1  0
  2 35  1  0
  4 36  1  0
 10 37  1  0
 14 38  1  0
 15 39  1  6
 16 40  1  0
 16 41  1  0
 17 42  1  0
 17 43  1  0
 20 44  1  0
 23 45  1  0
 27 46  1  0
 29 47  1  0
M  END
>  <meeko>  (498) 
{"is_sidechain": [true], "free_energy": -10.77, "intermolecular_energy": 0.0, "internal_energy": -10.77, "cluster_size": 19, "cluster_id": 1, "rank_in_cluster": 1}

>  <_RMSD_MCS_to_ref>  (498) 
0.5974903997369141

$$$$
ligand
     RDKit          3D

 47 50  0  0  0  0  0  0  0  0999 V2000
   18.9090   19.1540    7.5370 C   0  0  0  0  0  0  0  0  0  0  0  0
   18.7730   17.6460    7.6780 C   0  0  0  0  0  0  0  0  0  0  0  0
   20.0960   16.9660    7.7320 C   0  0  0  0  0  0  0  0  0  0  0  0
   20.7890   16.5000    8.8320 C   0  0  0  0  0  0  0  0  0  0  0  0
   21.9260   15.9570    8.3050 N   0  0  0  0  0  0  0  0  0  0  0  0
   23.2470   15.4000    9.1750 S   0  0  0  0  0  6  0  0  0  0  0  0
   23.5170   14.0660    8.6650 O   0  0  0  0  0  0  0  0  0  0  0  0
   24.2270   16.4700    9.1270 O   0  0  0  0  0  0  0  0  0  0  0  0
   22.7430   15.2160   10.9010 C   0  0  0  0  0  0  0  0  0  0  0  0
   23.5150   15.8500   11.8640 N   0  0  0  0  0  0  0  0  0  0  0  0
   23.1560   15.7310   13.1050 C   0  0  0  0  0  0  0  0  0  0  0  0
   23.9890   16.4140   14.1900 C   0  0  0  0  0  0  0  0  0  0  0  0
   24.4680   15.7890   15.1210 O   0  0  0  0  0  0  0  0  0  0  0  0
   24.1120   17.7750   14.0170 N   0  0  0  0  0  0  0  0  0  0  0  0
   24.6890   18.6270   15.0430 C   0  0  1  0  0  0  0  0  0  0  0  0
   25.8260   17.9340   15.7890 C   0  0  0  0  0  0  0  0  0  0  0  0
   26.4090   18.8860   16.8220 C   0  0  0  0  0  0  0  0  0  0  0  0
   26.8610   20.1790   16.1860 C   0  0  0  0  0  0  0  0  0  0  0  0
   27.8280   20.8130   16.5980 O   0  0  0  0  0  0  0  0  0  0  0  0
   26.1140   20.6380   15.1300 N   0  0  0  0  0  0  0  0  0  0  0  0
   25.2250   19.9030   14.3870 C   0  0  0  0  0  0  0  0  0  0  0  0
   24.8740   20.2720   13.2670 O   0  0  0  0  0  0  0  0  0  0  0  0
   22.0140   14.9580   13.4490 C   0  0  0  0  0  0  0  0  0  0  0  0
   21.3790   14.6200   14.6250 C   0  0  0  0  0  0  0  0  0  0  0  0
   20.2740   13.8050   14.2780 C   0  0  0  0  0  0  0  0  0  0  0  0
   20.2780   13.6770   12.9050 C   0  0  0  0  0  0  0  0  0  0  0  0
   21.3410   14.3830   12.4180 N   0  0  0  0  0  0  0  0  0  0  0  0
   21.6810   14.4950   11.1260 N   0  0  0  0  0  0  0  0  0  0  0  0
   21.9250   16.1410    6.9600 C   0  0  0  0  0  0  0  0  0  0  0  0
   20.8160   16.7380    6.5760 N   0  0  0  0  0  0  0  0  0  0  0  0
   18.9504   19.6134    8.5356 H   0  0  0  0  0  0  0  0  0  0  0  0
   19.8320   19.3891    6.9867 H   0  0  0  0  0  0  0  0  0  0  0  0
   18.0430   19.5504    6.9867 H   0  0  0  0  0  0  0  0  0  0  0  0
   18.2227   17.4248    8.6044 H   0  0  0  0  0  0  0  0  0  0  0  0
   18.2356   17.2708    6.7946 H   0  0  0  0  0  0  0  0  0  0  0  0
   20.4930   16.5538    9.8901 H   0  0  0  0  0  0  0  0  0  0  0  0
   23.7864   18.2000   13.1371 H   0  0  0  0  0  0  0  0  0  0  0  0
   23.9001   18.8613   15.7729 H   0  0  0  0  0  0  0  0  0  0  0  0
   25.4397   17.0365   16.2943 H   0  0  0  0  0  0  0  0  0  0  0  0
   26.6101   17.6435   15.0743 H   0  0  0  0  0  0  0  0  0  0  0  0
   25.6412   19.1081   17.5777 H   0  0  0  0  0  0  0  0  0  0  0  0
   27.2828   18.4031   17.2838 H   0  0  0  0  0  0  0  0  0  0  0  0
   26.2319   21.6278   14.8708 H   0  0  0  0  0  0  0  0  0  0  0  0
   21.6744   14.9252   15.6397 H   0  0  0  0  0  0  0  0  0  0  0  0
   19.5485   13.3578   14.9734 H   0  0  0  0  0  0  0  0  0  0  0  0
   19.5523   13.1064   12.3068 H   0  0  0  0  0  0  0  0  0  0  0  0
   22.7375   15.8341    6.2850 H   0  0  0  0  0  0  0  0  0  0  0  0
  1  2  1  0
  2  3  1  0
  3  4  2  0
  4  5  1  0
  5  6  1  0
  6  7  2  0
  6  8  2  0
  6  9  1  0
  9 10  1  0
 10 11  2  0
 11 12  1  0
 12 13  2  0
 12 14  1  0
 14 15  1  0
 15 16  1  0
 16 17  1  0
 17 18  1  0
 18 19  2  0
 18 20  1  0
 20 21  1  0
 21 22  2  0
 11 23  1  0
 23 24  2  0
 24 25  1  0
 25 26  2  0
 26 27  1  0
 27 28  1  0
  5 29  1  0
 29 30  2  0
 30  3  1  0
 28  9  2  0
 21 15  1  0
 27 23  1  0
  1 31  1  0
  1 32  1  0
  1 33  1  0
  2 34  1  0
  2 35  1  0
  4 36  1  0
 14 37  1  0
 15 38  1  1
 16 39  1  0
 16 40  1  0
 17 41  1  0
 17 42  1  0
 20 43  1  0
 24 44  1  0
 25 45  1  0
 26 46  1  0
 29 47  1  0
M  END
>  <meeko>  (499) 
{"is_sidechain": [true], "free_energy": -10.77, "intermolecular_energy": 0.0, "internal_energy": -10.77, "cluster_size": 20, "cluster_id": 1, "rank_in_cluster": 1}

>  <_RMSD_MCS_to_ref>  (499) 
0.4578479854468925

$$$$
ligand
     RDKit          3D

 46 49  0  0  0  0  0  0  0  0999 V2000
   18.9090   19.1540    7.5370 C   0  0  0  0  0  0  0  0  0  0  0  0
   18.7730   17.6460    7.6780 C   0  0  0  0  0  0  0  0  0  0  0  0
   20.0920   16.9570    7.6480 C   0  0  0  0  0  0  0  0  0  0  0  0
   21.0120   16.7990    8.6650 C   0  0  0  0  0  0  0  0  0  0  0  0
   22.0400   16.1130    8.0820 N   0  0  0  0  0  0  0  0  0  0  0  0
   23.4310   15.5870    8.8610 S   0  0  0  0  0  6  0  0  0  0  0  0
   23.7330   14.2680    8.3420 O   0  0  0  0  0  0  0  0  0  0  0  0
   24.3600   16.6950    8.7400 O   0  0  0  0  0  0  0  0  0  0  0  0
   23.0320   15.4210   10.5630 C   0  0  0  0  0  0  0  0  0  0  0  0
   23.9340   15.8940   11.5210 C   0  0  0  0  0  0  0  0  0  0  0  0
   23.6050   15.7520   12.8610 C   0  0  0  0  0  0  0  0  0  0  0  0
   24.5550   16.2580   13.9070 C   0  0  0  0  0  0  0  0  0  0  0  0
   25.0380   15.5090   14.7480 O   0  0  0  0  0  0  0  0  0  0  0  0
   24.8400   17.6010   13.8300 N   0  0  0  0  0  0  0  0  0  0  0  0
   25.8500   18.2340   14.6600 C   0  0  2  0  0  0  0  0  0  0  0  0
   25.6400   17.9380   16.1410 C   0  0  0  0  0  0  0  0  0  0  0  0
   26.7120   18.6430   16.9570 C   0  0  0  0  0  0  0  0  0  0  0  0
   26.7250   20.1270   16.6780 C   0  0  0  0  0  0  0  0  0  0  0  0
   27.0090   20.9570   17.5370 O   0  0  0  0  0  0  0  0  0  0  0  0
   26.4330   20.5130   15.3950 N   0  0  0  0  0  0  0  0  0  0  0  0
   25.8050   19.7500   14.4410 C   0  0  0  0  0  0  0  0  0  0  0  0
   25.2600   20.2730   13.4700 O   0  0  0  0  0  0  0  0  0  0  0  0
   22.4650   15.1830   13.3350 N   0  0  0  0  0  0  0  0  0  0  0  0
   21.6430   14.7410   12.3640 C   0  0  0  0  0  0  0  0  0  0  0  0
   20.1530   13.9860   12.7070 S   0  0  0  0  0  0  0  0  0  0  0  0
   19.8840   13.8060   11.0230 C   0  0  0  0  0  0  0  0  0  0  0  0
   20.8270   14.2680   10.2290 N   0  0  0  0  0  0  0  0  0  0  0  0
   21.8440   14.8140   10.9880 C   0  0  0  0  0  0  0  0  0  0  0  0
   21.7280   15.8600    6.7850 C   0  0  0  0  0  0  0  0  0  0  0  0
   20.5480   16.3650    6.4870 N   0  0  0  0  0  0  0  0  0  0  0  0
   18.9504   19.6134    8.5356 H   0  0  0  0  0  0  0  0  0  0  0  0
   19.8320   19.3891    6.9867 H   0  0  0  0  0  0  0  0  0  0  0  0
   18.0430   19.5504    6.9867 H   0  0  0  0  0  0  0  0  0  0  0  0
   18.2785   17.4229    8.6349 H   0  0  0  0  0  0  0  0  0  0  0  0
   18.1812   17.2793    6.8264 H   0  0  0  0  0  0  0  0  0  0  0  0
   20.9352   17.1458    9.7061 H   0  0  0  0  0  0  0  0  0  0  0  0
   24.8804   16.3667   11.2197 H   0  0  0  0  0  0  0  0  0  0  0  0
   24.3171   18.1804   13.1579 H   0  0  0  0  0  0  0  0  0  0  0  0
   26.8290   17.8260   14.3684 H   0  0  0  0  0  0  0  0  0  0  0  0
   24.6478   18.2989   16.4497 H   0  0  0  0  0  0  0  0  0  0  0  0
   25.7052   16.8531   16.3104 H   0  0  0  0  0  0  0  0  0  0  0  0
   26.5129   18.4810   18.0266 H   0  0  0  0  0  0  0  0  0  0  0  0
   27.6914   18.2279   16.6768 H   0  0  0  0  0  0  0  0  0  0  0  0
   26.7111   21.4660   15.1205 H   0  0  0  0  0  0  0  0  0  0  0  0
   18.9739   13.3308   10.6281 H   0  0  0  0  0  0  0  0  0  0  0  0
   22.3705   15.3103    6.0814 H   0  0  0  0  0  0  0  0  0  0  0  0
  1  2  1  0
  2  3  1  0
  3  4  2  0
  4  5  1  0
  5  6  1  0
  6  7  2  0
  6  8  2  0
  6  9  1  0
  9 10  2  0
 10 11  1  0
 11 12  1  0
 12 13  2  0
 12 14  1  0
 14 15  1  0
 15 16  1  0
 16 17  1  0
 17 18  1  0
 18 19  2  0
 18 20  1  0
 20 21  1  0
 21 22  2  0
 11 23  2  0
 23 24  1  0
 24 25  1  0
 25 26  1  0
 26 27  2  0
 27 28  1  0
  5 29  1  0
 29 30  2  0
 30  3  1  0
 28  9  1  0
 21 15  1  0
 28 24  2  0
  1 31  1  0
  1 32  1  0
  1 33  1  0
  2 34  1  0
  2 35  1  0
  4 36  1  0
 10 37  1  0
 14 38  1  0
 15 39  1  6
 16 40  1  0
 16 41  1  0
 17 42  1  0
 17 43  1  0
 20 44  1  0
 26 45  1  0
 29 46  1  0
M  END
>  <meeko>  (500) 
{"is_sidechain": [true], "free_energy": -10.77, "intermolecular_energy": 0.0, "internal_energy": -10.77, "cluster_size": 20, "cluster_id": 1, "rank_in_cluster": 1}

>  <_RMSD_MCS_to_ref>  (500) 
0.598391176405535

$$$$
ligand
     RDKit          3D

 54 58  0  0  0  0  0  0  0  0999 V2000
   18.9090   19.1540    7.5370 C   0  0  0  0  0  0  0  0  0  0  0  0
   18.7730   17.6460    7.6780 C   0  0  0  0  0  0  0  0  0  0  0  0
   20.0540   17.0010    8.0740 C   0  0  0  0  0  0  0  0  0  0  0  0
   21.3110   17.1550    7.5200 C   0  0  0  0  0  0  0  0  0  0  0  0
   22.1120   16.3490    8.2780 N   0  0  0  0  0  0  0  0  0  0  0  0
   23.7430   16.0350    8.0180 S   0  0  0  0  0  6  0  0  0  0  0  0
   24.4370   16.8300    9.0150 O   0  0  0  0  0  0  0  0  0  0  0  0
   23.9410   16.2210    6.5920 O   0  0  0  0  0  0  0  0  0  0  0  0
   23.9590   14.3300    8.4020 C   0  0  0  0  0  0  0  0  0  0  0  0
   24.1340   13.5110    7.3240 N   0  0  0  0  0  0  0  0  0  0  0  0
   24.2450   12.1980    7.6200 C   0  0  0  0  0  0  0  0  0  0  0  0
   24.1740   11.7270    8.9180 C   0  0  0  0  0  0  0  0  0  0  0  0
   23.9930   12.5500    9.9790 N   0  0  0  0  0  0  0  0  0  0  0  0
   23.8930   13.8830    9.7150 C   0  0  0  0  0  0  0  0  0  0  0  0
   23.6990   14.7250   10.8990 C   0  0  0  0  0  0  0  0  0  0  0  0
   22.5150   14.6300   11.6730 C   0  0  0  0  0  0  0  0  0  0  0  0
   22.3190   15.4240   12.8070 C   0  0  0  0  0  0  0  0  0  0  0  0
   23.3210   16.3120   13.1390 C   0  0  0  0  0  0  0  0  0  0  0  0
   24.4910   16.4370   12.3970 C   0  0  0  0  0  0  0  0  0  0  0  0
   24.6910   15.6550   11.2710 C   0  0  0  0  0  0  0  0  0  0  0  0
   25.3790   17.4720   13.0070 C   0  0  0  0  0  0  0  0  0  0  0  0
   24.5850   17.9400   14.1370 N   0  0  0  0  0  0  0  0  0  0  0  0
   25.0990   18.8100   15.1910 C   0  0  1  0  0  0  0  0  0  0  0  0
   26.1180   18.0690   16.0590 C   0  0  0  0  0  0  0  0  0  0  0  0
   26.5370   18.9490   17.2250 C   0  0  0  0  0  0  0  0  0  0  0  0
   27.0800   20.2710   16.7440 C   0  0  0  0  0  0  0  0  0  0  0  0
   27.9610   20.8800   17.3440 O   0  0  0  0  0  0  0  0  0  0  0  0
   26.5140   20.7890   15.6070 N   0  0  0  0  0  0  0  0  0  0  0  0
   25.7140   20.1310   14.7010 C   0  0  0  0  0  0  0  0  0  0  0  0
   25.5100   20.6230   13.5940 O   0  0  0  0  0  0  0  0  0  0  0  0
   23.3920   17.2470   14.2670 C   0  0  0  0  0  0  0  0  0  0  0  0
   22.5640   17.3450   15.1510 O   0  0  0  0  0  0  0  0  0  0  0  0
   21.3520   15.7190    9.2120 C   0  0  0  0  0  0  0  0  0  0  0  0
   20.0950   16.1040    9.1230 N   0  0  0  0  0  0  0  0  0  0  0  0
   18.9504   19.6134    8.5356 H   0  0  0  0  0  0  0  0  0  0  0  0
   19.8320   19.3891    6.9867 H   0  0  0  0  0  0  0  0  0  0  0  0
   18.0430   19.5504    6.9867 H   0  0  0  0  0  0  0  0  0  0  0  0
   18.0150   17.4288    8.4450 H   0  0  0  0  0  0  0  0  0  0  0  0
   18.4791   17.2403    6.6987 H   0  0  0  0  0  0  0  0  0  0  0  0
   21.6001   17.7830    6.6644 H   0  0  0  0  0  0  0  0  0  0  0  0
   24.3970   11.4794    6.8012 H   0  0  0  0  0  0  0  0  0  0  0  0
   24.2678   10.6455    9.0956 H   0  0  0  0  0  0  0  0  0  0  0  0
   21.7333   13.9158   11.3748 H   0  0  0  0  0  0  0  0  0  0  0  0
   21.4026   15.3438   13.4102 H   0  0  0  0  0  0  0  0  0  0  0  0
   25.6104   15.7583   10.6760 H   0  0  0  0  0  0  0  0  0  0  0  0
   26.3295   17.0324   13.3435 H   0  0  0  0  0  0  0  0  0  0  0  0
   25.6642   18.2728   12.3089 H   0  0  0  0  0  0  0  0  0  0  0  0
   24.2111   19.0846   15.7795 H   0  0  0  0  0  0  0  0  0  0  0  0
   25.6653   17.1434   16.4442 H   0  0  0  0  0  0  0  0  0  0  0  0
   27.0023   17.8242   15.4524 H   0  0  0  0  0  0  0  0  0  0  0  0
   25.6634   19.1326   17.8678 H   0  0  0  0  0  0  0  0  0  0  0  0
   27.3291   18.4306   17.7851 H   0  0  0  0  0  0  0  0  0  0  0  0
   26.7095   21.7808   15.4093 H   0  0  0  0  0  0  0  0  0  0  0  0
   21.7333   14.9890    9.9411 H   0  0  0  0  0  0  0  0  0  0  0  0
  1  2  1  0
  2  3  1  0
  3  4  2  0
  4  5  1  0
  5  6  1  0
  6  7  2  0
  6  8  2  0
  6  9  1  0
  9 10  2  0
 10 11  1  0
 11 12  2  0
 12 13  1  0
 13 14  2  0
 14 15  1  0
 15 16  2  0
 16 17  1  0
 17 18  2  0
 18 19  1  0
 19 20  2  0
 19 21  1  0
 21 22  1  0
 22 23  1  0
 23 24  1  0
 24 25  1  0
 25 26  1  0
 26 27  2  0
 26 28  1  0
 28 29  1  0
 29 30  2  0
 22 31  1  0
 31 32  2  0
  5 33  1  0
 33 34  2  0
 34  3  1  0
 14  9  1  0
 20 15  1  0
 29 23  1  0
 31 18  1  0
  1 35  1  0
  1 36  1  0
  1 37  1  0
  2 38  1  0
  2 39  1  0
  4 40  1  0
 11 41  1  0
 12 42  1  0
 16 43  1  0
 17 44  1  0
 20 45  1  0
 21 46  1  0
 21 47  1  0
 23 48  1  1
 24 49  1  0
 24 50  1  0
 25 51  1  0
 25 52  1  0
 28 53  1  0
 33 54  1  0
M  END
>  <meeko>  (501) 
{"is_sidechain": [true], "free_energy": -10.77, "intermolecular_energy": 0.0, "internal_energy": -10.77, "cluster_size": 20, "cluster_id": 1, "rank_in_cluster": 1}

>  <_RMSD_MCS_to_ref>  (501) 
1.181865145531512

$$$$
ligand
     RDKit          3D

 48 51  0  0  0  0  0  0  0  0999 V2000
   18.9090   19.1540    7.5370 C   0  0  0  0  0  0  0  0  0  0  0  0
   18.7730   17.6460    7.6780 C   0  0  0  0  0  0  0  0  0  0  0  0
   19.8830   16.9160    7.0070 C   0  0  0  0  0  0  0  0  0  0  0  0
   21.2040   16.8020    7.3910 C   0  0  0  0  0  0  0  0  0  0  0  0
   21.7760   16.0500    6.4050 N   0  0  0  0  0  0  0  0  0  0  0  0
   23.3250   15.4000    6.4330 S   0  0  0  0  0  6  0  0  0  0  0  0
   24.2200   16.4870    6.0860 O   0  0  0  0  0  0  0  0  0  0  0  0
   23.2530   14.1750    5.6600 O   0  0  0  0  0  0  0  0  0  0  0  0
   23.5730   14.9870    8.1410 C   0  0  0  0  0  0  0  0  0  0  0  0
   23.4560   13.6520    8.5490 C   0  0  0  0  0  0  0  0  0  0  0  0
   23.6490   13.3020    9.8940 C   0  0  0  0  0  0  0  0  0  0  0  0
   23.9690   14.3140   10.8170 C   0  0  0  0  0  0  0  0  0  0  0  0
   24.2310   14.3670   12.2110 C   0  0  0  0  0  0  0  0  0  0  0  0
   24.4920   15.6890   12.5220 C   0  0  0  0  0  0  0  0  0  0  0  0
   24.8150   16.3210   13.7820 C   0  0  0  0  0  0  0  0  0  0  0  0
   24.8560   15.7220   14.8530 O   0  0  0  0  0  0  0  0  0  0  0  0
   25.0680   17.6700   13.6890 N   0  0  0  0  0  0  0  0  0  0  0  0
   25.2500   18.5090   14.8600 C   0  0  1  0  0  0  0  0  0  0  0  0
   26.2500   17.9120   15.8440 C   0  0  0  0  0  0  0  0  0  0  0  0
   26.4190   18.8490   17.0290 C   0  0  0  0  0  0  0  0  0  0  0  0
   26.8290   20.2330   16.5800 C   0  0  0  0  0  0  0  0  0  0  0  0
   27.5650   20.9500   17.2490 O   0  0  0  0  0  0  0  0  0  0  0  0
   26.3090   20.6710   15.3890 N   0  0  0  0  0  0  0  0  0  0  0  0
   25.7530   19.8840   14.4100 C   0  0  0  0  0  0  0  0  0  0  0  0
   25.6590   20.2850   13.2510 O   0  0  0  0  0  0  0  0  0  0  0  0
   24.4020   16.4550   11.3880 O   0  0  0  0  0  0  0  0  0  0  0  0
   24.0860   15.6210   10.3610 C   0  0  0  0  0  0  0  0  0  0  0  0
   23.9040   16.0120    9.0380 C   0  0  0  0  0  0  0  0  0  0  0  0
   20.8210   15.6930    5.5070 C   0  0  0  0  0  0  0  0  0  0  0  0
   19.6590   16.2140    5.8380 N   0  0  0  0  0  0  0  0  0  0  0  0
   18.9504   19.6134    8.5356 H   0  0  0  0  0  0  0  0  0  0  0  0
   19.8320   19.3891    6.9867 H   0  0  0  0  0  0  0  0  0  0  0  0
   18.0430   19.5504    6.9867 H   0  0  0  0  0  0  0  0  0  0  0  0
   18.7753   17.3886    8.7475 H   0  0  0  0  0  0  0  0  0  0  0  0
   17.8311   17.3454    7.1958 H   0  0  0  0  0  0  0  0  0  0  0  0
   21.6858   17.2211    8.2866 H   0  0  0  0  0  0  0  0  0  0  0  0
   23.2115   12.8739    7.8109 H   0  0  0  0  0  0  0  0  0  0  0  0
   23.5519   12.2560   10.2204 H   0  0  0  0  0  0  0  0  0  0  0  0
   24.2272   13.5182   12.9107 H   0  0  0  0  0  0  0  0  0  0  0  0
   25.1306   18.1003   12.7553 H   0  0  0  0  0  0  0  0  0  0  0  0
   24.2805   18.5899   15.3734 H   0  0  0  0  0  0  0  0  0  0  0  0
   25.8798   16.9381   16.1969 H   0  0  0  0  0  0  0  0  0  0  0  0
   27.2200   17.7770   15.3431 H   0  0  0  0  0  0  0  0  0  0  0  0
   25.4646   18.9163   17.5717 H   0  0  0  0  0  0  0  0  0  0  0  0
   27.2090   18.4467   17.6801 H   0  0  0  0  0  0  0  0  0  0  0  0
   26.3381   21.6853   15.2119 H   0  0  0  0  0  0  0  0  0  0  0  0
   24.0129   17.0584    8.7167 H   0  0  0  0  0  0  0  0  0  0  0  0
   20.9949   15.0573    4.6263 H   0  0  0  0  0  0  0  0  0  0  0  0
  1  2  1  0
  2  3  1  0
  3  4  2  0
  4  5  1  0
  5  6  1  0
  6  7  2  0
  6  8  2  0
  6  9  1  0
  9 10  2  0
 10 11  1  0
 11 12  2  0
 12 13  1  0
 13 14  2  0
 14 15  1  0
 15 16  2  0
 15 17  1  0
 17 18  1  0
 18 19  1  0
 19 20  1  0
 20 21  1  0
 21 22  2  0
 21 23  1  0
 23 24  1  0
 24 25  2  0
 14 26  1  0
 26 27  1  0
 27 28  2  0
  5 29  1  0
 29 30  2  0
 30  3  1  0
 28  9  1  0
 27 12  1  0
 24 18  1  0
  1 31  1  0
  1 32  1  0
  1 33  1  0
  2 34  1  0
  2 35  1  0
  4 36  1  0
 10 37  1  0
 11 38  1  0
 13 39  1  0
 17 40  1  0
 18 41  1  1
 19 42  1  0
 19 43  1  0
 20 44  1  0
 20 45  1  0
 23 46  1  0
 28 47  1  0
 29 48  1  0
M  END
>  <meeko>  (502) 
{"is_sidechain": [true], "free_energy": -10.76, "intermolecular_energy": 0.0, "internal_energy": -10.76, "cluster_size": 18, "cluster_id": 1, "rank_in_cluster": 1}

>  <_RMSD_MCS_to_ref>  (502) 
0.5370428288321144

$$$$
ligand
     RDKit          3D

 47 50  0  0  0  0  0  0  0  0999 V2000
   18.9090   19.1540    7.5370 C   0  0  0  0  0  0  0  0  0  0  0  0
   18.7730   17.6460    7.6780 C   0  0  0  0  0  0  0  0  0  0  0  0
   20.0900   16.9550    7.6150 C   0  0  0  0  0  0  0  0  0  0  0  0
   21.0550   16.8310    8.5960 C   0  0  0  0  0  0  0  0  0  0  0  0
   22.0560   16.1260    7.9940 N   0  0  0  0  0  0  0  0  0  0  0  0
   23.3670   15.4060    8.7840 S   0  0  0  0  0  6  0  0  0  0  0  0
   24.4620   16.3390    8.5930 O   0  0  0  0  0  0  0  0  0  0  0  0
   23.4340   14.0740    8.2090 O   0  0  0  0  0  0  0  0  0  0  0  0
   22.9400   15.3180   10.4590 C   0  0  0  0  0  0  0  0  0  0  0  0
   23.7960   15.8210   11.3740 C   0  0  0  0  0  0  0  0  0  0  0  0
   23.4740   15.7320   12.8000 C   0  0  0  0  0  0  0  0  0  0  0  0
   24.4610   16.2530   13.7980 C   0  0  0  0  0  0  0  0  0  0  0  0
   25.0360   15.4900   14.5670 O   0  0  0  0  0  0  0  0  0  0  0  0
   24.7080   17.5990   13.7400 N   0  0  0  0  0  0  0  0  0  0  0  0
   25.7680   18.2090   14.5350 C   0  0  2  0  0  0  0  0  0  0  0  0
   25.6020   17.9350   16.0250 C   0  0  0  0  0  0  0  0  0  0  0  0
   26.7130   18.6340   16.7950 C   0  0  0  0  0  0  0  0  0  0  0  0
   26.7420   20.1140   16.4930 C   0  0  0  0  0  0  0  0  0  0  0  0
   27.0630   20.9510   17.3300 O   0  0  0  0  0  0  0  0  0  0  0  0
   26.4200   20.4870   15.2110 N   0  0  0  0  0  0  0  0  0  0  0  0
   25.7400   19.7210   14.2980 C   0  0  0  0  0  0  0  0  0  0  0  0
   25.1550   20.2310   13.3430 O   0  0  0  0  0  0  0  0  0  0  0  0
   22.3460   15.1160   13.2110 C   0  0  0  0  0  0  0  0  0  0  0  0
   21.4420   14.5910   12.2480 C   0  0  0  0  0  0  0  0  0  0  0  0
   20.2980   13.9600   12.3770 N   0  0  0  0  0  0  0  0  0  0  0  0
   19.8320   13.6750   11.1200 N   0  0  0  0  0  0  0  0  0  0  0  0
   20.7000   14.1400   10.2520 C   0  0  0  0  0  0  0  0  0  0  0  0
   21.7610   14.7180   10.8980 N   0  0  0  0  0  0  0  0  0  0  0  0
   21.6760   15.8030    6.7310 C   0  0  0  0  0  0  0  0  0  0  0  0
   20.4880   16.3010    6.4660 N   0  0  0  0  0  0  0  0  0  0  0  0
   18.9504   19.6134    8.5356 H   0  0  0  0  0  0  0  0  0  0  0  0
   19.8320   19.3891    6.9867 H   0  0  0  0  0  0  0  0  0  0  0  0
   18.0430   19.5504    6.9867 H   0  0  0  0  0  0  0  0  0  0  0  0
   18.3011   17.4217    8.6460 H   0  0  0  0  0  0  0  0  0  0  0  0
   18.1600   17.2821    6.8403 H   0  0  0  0  0  0  0  0  0  0  0  0
   21.0234   17.2134    9.6269 H   0  0  0  0  0  0  0  0  0  0  0  0
   24.7332   16.2966   11.0492 H   0  0  0  0  0  0  0  0  0  0  0  0
   24.1343   18.1918   13.1232 H   0  0  0  0  0  0  0  0  0  0  0  0
   26.7275   17.7710   14.2228 H   0  0  0  0  0  0  0  0  0  0  0  0
   24.6265   18.3159   16.3616 H   0  0  0  0  0  0  0  0  0  0  0  0
   25.6546   16.8515   16.2071 H   0  0  0  0  0  0  0  0  0  0  0  0
   26.5467   18.4913   17.8730 H   0  0  0  0  0  0  0  0  0  0  0  0
   27.6754   18.1980   16.4890 H   0  0  0  0  0  0  0  0  0  0  0  0
   26.7155   21.4259   14.9077 H   0  0  0  0  0  0  0  0  0  0  0  0
   22.1274   15.0207   14.2848 H   0  0  0  0  0  0  0  0  0  0  0  0
   20.5909   14.0748    9.1594 H   0  0  0  0  0  0  0  0  0  0  0  0
   22.2776   15.2081    6.0280 H   0  0  0  0  0  0  0  0  0  0  0  0
  1  2  1  0
  2  3  1  0
  3  4  2  0
  4  5  1  0
  5  6  1  0
  6  7  2  0
  6  8  2  0
  6  9  1  0
  9 10  2  0
 10 11  1  0
 11 12  1  0
 12 13  2  0
 12 14  1  0
 14 15  1  0
 15 16  1  0
 16 17  1  0
 17 18  1  0
 18 19  2  0
 18 20  1  0
 20 21  1  0
 21 22  2  0
 11 23  2  0
 23 24  1  0
 24 25  2  0
 25 26  1  0
 26 27  2  0
 27 28  1  0
  5 29  1  0
 29 30  2  0
 30  3  1  0
 28  9  1  0
 21 15  1  0
 28 24  1  0
  1 31  1  0
  1 32  1  0
  1 33  1  0
  2 34  1  0
  2 35  1  0
  4 36  1  0
 10 37  1  0
 14 38  1  0
 15 39  1  6
 16 40  1  0
 16 41  1  0
 17 42  1  0
 17 43  1  0
 20 44  1  0
 23 45  1  0
 27 46  1  0
 29 47  1  0
M  END
>  <meeko>  (503) 
{"is_sidechain": [true], "free_energy": -10.76, "intermolecular_energy": 0.0, "internal_energy": -10.76, "cluster_size": 18, "cluster_id": 1, "rank_in_cluster": 1}

>  <_RMSD_MCS_to_ref>  (503) 
0.529972221494255

$$$$
ligand
     RDKit          3D

 46 50  0  0  0  0  0  0  0  0999 V2000
   18.9090   19.1540    7.5370 C   0  0  0  0  0  0  0  0  0  0  0  0
   18.7730   17.6460    7.6780 C   0  0  0  0  0  0  0  0  0  0  0  0
   20.0950   16.9670    7.7650 C   0  0  0  0  0  0  0  0  0  0  0  0
   20.5360   16.0380    8.6870 C   0  0  0  0  0  0  0  0  0  0  0  0
   21.8220   15.7780    8.3110 N   0  0  0  0  0  0  0  0  0  0  0  0
   22.7910   14.5410    8.9210 S   0  0  0  0  0  6  0  0  0  0  0  0
   22.0400   13.3230    8.6750 O   0  0  0  0  0  0  0  0  0  0  0  0
   24.0920   14.7650    8.3220 O   0  0  0  0  0  0  0  0  0  0  0  0
   22.8700   14.7890   10.5350 O   0  0  0  0  0  0  0  0  0  0  0  0
   23.8930   15.5610   10.9970 C   0  0  0  0  0  0  0  0  0  0  0  0
   25.1250   15.5940   10.3440 C   0  0  0  0  0  0  0  0  0  0  0  0
   26.1740   16.3760   10.8610 C   0  0  0  0  0  0  0  0  0  0  0  0
   26.0020   17.1270   12.0300 C   0  0  0  0  0  0  0  0  0  0  0  0
   24.7700   17.0720   12.6480 C   0  0  0  0  0  0  0  0  0  0  0  0
   23.7440   16.2950   12.1550 C   0  0  0  0  0  0  0  0  0  0  0  0
   22.6070   16.3320   12.9430 O   0  0  0  0  0  0  0  0  0  0  0  0
   23.0000   17.1700   13.9920 C   0  0  0  0  0  0  0  0  0  0  0  0
   22.2800   17.4110   14.9510 O   0  0  0  0  0  0  0  0  0  0  0  0
   24.2790   17.6700   13.7900 N   0  0  0  0  0  0  0  0  0  0  0  0
   25.0400   18.4780   14.7490 C   0  0  1  0  0  0  0  0  0  0  0  0
   24.6060   18.3390   16.2580 C   0  0  0  0  0  0  0  0  0  0  0  0
   26.1130   18.6470   16.5460 C   0  0  1  0  0  0  0  0  0  0  0  0
   26.3750   17.8010   15.2610 C   0  0  0  0  0  0  0  0  0  0  0  0
   26.4910   20.1740   16.3890 C   0  0  0  0  0  0  0  0  0  0  0  0
   27.0770   20.8720   17.2100 O   0  0  0  0  0  0  0  0  0  0  0  0
   26.0580   20.7040   15.1890 N   0  0  0  0  0  0  0  0  0  0  0  0
   25.2580   20.0080   14.2990 C   0  0  0  0  0  0  0  0  0  0  0  0
   24.7760   20.5810   13.3250 O   0  0  0  0  0  0  0  0  0  0  0  0
   22.0980   16.4590    7.1690 C   0  0  0  0  0  0  0  0  0  0  0  0
   21.0770   17.2170    6.8260 N   0  0  0  0  0  0  0  0  0  0  0  0
   18.9504   19.6134    8.5356 H   0  0  0  0  0  0  0  0  0  0  0  0
   19.8320   19.3891    6.9867 H   0  0  0  0  0  0  0  0  0  0  0  0
   18.0430   19.5504    6.9867 H   0  0  0  0  0  0  0  0  0  0  0  0
   18.2011   17.4259    8.5915 H   0  0  0  0  0  0  0  0  0  0  0  0
   18.2582   17.2685    6.7822 H   0  0  0  0  0  0  0  0  0  0  0  0
   19.9783   15.6064    9.5312 H   0  0  0  0  0  0  0  0  0  0  0  0
   25.2764   15.0087    9.4250 H   0  0  0  0  0  0  0  0  0  0  0  0
   27.1424   16.3977   10.3397 H   0  0  0  0  0  0  0  0  0  0  0  0
   26.8192   17.7383   12.4405 H   0  0  0  0  0  0  0  0  0  0  0  0
   23.8924   19.0958   16.6159 H   0  0  0  0  0  0  0  0  0  0  0  0
   24.0755   17.4637   16.6609 H   0  0  0  0  0  0  0  0  0  0  0  0
   26.5987   18.4487   17.5128 H   0  0  0  0  0  0  0  0  0  0  0  0
   27.2836   18.0638   14.6994 H   0  0  0  0  0  0  0  0  0  0  0  0
   26.5421   16.7138   15.2707 H   0  0  0  0  0  0  0  0  0  0  0  0
   26.3441   21.6629   14.9448 H   0  0  0  0  0  0  0  0  0  0  0  0
   23.0420   16.3876    6.6089 H   0  0  0  0  0  0  0  0  0  0  0  0
  1  2  1  0
  2  3  1  0
  3  4  2  0
  4  5  1  0
  5  6  1  0
  6  7  2  0
  6  8  2  0
  6  9  1  0
  9 10  1  0
 10 11  2  0
 11 12  1  0
 12 13  2  0
 13 14  1  0
 14 15  2  0
 15 16  1  0
 16 17  1  0
 17 18  2  0
 17 19  1  0
 20 19  1  6
 20 21  1  0
 21 22  1  0
 22 23  1  0
 22 24  1  0
 24 25  2  0
 24 26  1  0
 26 27  1  0
 27 28  2  0
  5 29  1  0
 29 30  2  0
 30  3  1  0
 15 10  1  0
 23 20  1  0
 19 14  1  0
 27 20  1  0
  1 31  1  0
  1 32  1  0
  1 33  1  0
  2 34  1  0
  2 35  1  0
  4 36  1  0
 11 37  1  0
 12 38  1  0
 13 39  1  0
 21 40  1  0
 21 41  1  0
 22 42  1  1
 23 43  1  0
 23 44  1  0
 26 45  1  0
 29 46  1  0
M  END
>  <meeko>  (504) 
{"is_sidechain": [true], "free_energy": -10.76, "intermolecular_energy": 0.0, "internal_energy": -10.76, "cluster_size": 20, "cluster_id": 1, "rank_in_cluster": 1}

>  <_RMSD_MCS_to_ref>  (504) 
0.615304170489866

$$$$
ligand
     RDKit          3D

 50 53  0  0  0  0  0  0  0  0999 V2000
   18.9090   19.1540    7.5370 C   0  0  0  0  0  0  0  0  0  0  0  0
   18.7730   17.6460    7.6780 C   0  0  0  0  0  0  0  0  0  0  0  0
   20.0660   16.9430    7.4590 C   0  0  0  0  0  0  0  0  0  0  0  0
   20.5700   15.8290    8.1020 C   0  0  0  0  0  0  0  0  0  0  0  0
   21.7750   15.6140    7.4990 N   0  0  0  0  0  0  0  0  0  0  0  0
   22.8090   14.3250    7.8060 S   0  0  0  0  0  6  0  0  0  0  0  0
   21.9800   13.2230    8.2530 O   0  0  0  0  0  0  0  0  0  0  0  0
   23.6250   14.2300    6.6110 O   0  0  0  0  0  0  0  0  0  0  0  0
   23.8120   14.8760    9.1480 C   0  0  0  0  0  0  0  0  0  0  0  0
   25.0920   15.2950    8.8200 C   0  0  0  0  0  0  0  0  0  0  0  0
   25.9580   15.8000    9.7160 N   0  0  0  0  0  0  0  0  0  0  0  0
   25.5270   15.8900   10.9950 C   0  0  0  0  0  0  0  0  0  0  0  0
   24.2640   15.4810   11.4570 C   0  0  0  0  0  0  0  0  0  0  0  0
   23.8620   15.5720   12.8180 C   0  0  0  0  0  0  0  0  0  0  0  0
   24.7540   16.1610   13.8490 C   0  0  0  0  0  0  0  0  0  0  0  0
   25.2180   15.4700   14.7450 O   0  0  0  0  0  0  0  0  0  0  0  0
   25.0040   17.5060   13.7170 N   0  0  0  0  0  0  0  0  0  0  0  0
   25.9500   18.1970   14.5810 C   0  0  2  0  0  0  0  0  0  0  0  0
   25.7150   17.8900   16.0560 C   0  0  0  0  0  0  0  0  0  0  0  0
   26.7140   18.6690   16.9000 C   0  0  0  0  0  0  0  0  0  0  0  0
   26.6410   20.1500   16.6100 C   0  0  0  0  0  0  0  0  0  0  0  0
   26.8280   21.0000   17.4750 O   0  0  0  0  0  0  0  0  0  0  0  0
   26.3790   20.5100   15.3130 N   0  0  0  0  0  0  0  0  0  0  0  0
   25.8080   19.7060   14.3580 C   0  0  0  0  0  0  0  0  0  0  0  0
   25.2250   20.1850   13.3850 O   0  0  0  0  0  0  0  0  0  0  0  0
   22.5980   15.1330   13.2310 C   0  0  0  0  0  0  0  0  0  0  0  0
   21.7280   14.5820   12.3050 C   0  0  0  0  0  0  0  0  0  0  0  0
   22.1100   14.4800   10.9660 C   0  0  0  0  0  0  0  0  0  0  0  0
   23.3710   14.9350   10.4980 C   0  0  0  0  0  0  0  0  0  0  0  0
   21.9870   16.5740    6.5640 C   0  0  0  0  0  0  0  0  0  0  0  0
   20.9560   17.3900    6.5000 N   0  0  0  0  0  0  0  0  0  0  0  0
   18.9504   19.6134    8.5356 H   0  0  0  0  0  0  0  0  0  0  0  0
   19.8320   19.3891    6.9867 H   0  0  0  0  0  0  0  0  0  0  0  0
   18.0430   19.5504    6.9867 H   0  0  0  0  0  0  0  0  0  0  0  0
   18.4117   17.4159    8.6912 H   0  0  0  0  0  0  0  0  0  0  0  0
   18.0647   17.2973    6.9120 H   0  0  0  0  0  0  0  0  0  0  0  0
   20.1065   15.2488    8.9135 H   0  0  0  0  0  0  0  0  0  0  0  0
   25.4161   15.2099    7.7723 H   0  0  0  0  0  0  0  0  0  0  0  0
   26.2211   16.3179   11.7334 H   0  0  0  0  0  0  0  0  0  0  0  0
   24.5091   18.0389   12.9877 H   0  0  0  0  0  0  0  0  0  0  0  0
   26.9611   17.8486   14.3237 H   0  0  0  0  0  0  0  0  0  0  0  0
   24.6920   18.1840   16.3336 H   0  0  0  0  0  0  0  0  0  0  0  0
   25.8465   16.8122   16.2325 H   0  0  0  0  0  0  0  0  0  0  0  0
   26.4919   18.5009   17.9642 H   0  0  0  0  0  0  0  0  0  0  0  0
   27.7263   18.3165   16.6532 H   0  0  0  0  0  0  0  0  0  0  0  0
   26.6329   21.4675   15.0306 H   0  0  0  0  0  0  0  0  0  0  0  0
   22.2978   15.2253   14.2852 H   0  0  0  0  0  0  0  0  0  0  0  0
   20.7375   14.2253   12.6240 H   0  0  0  0  0  0  0  0  0  0  0  0
   21.4086   14.0308   10.2475 H   0  0  0  0  0  0  0  0  0  0  0  0
   22.8932   16.6586    5.9462 H   0  0  0  0  0  0  0  0  0  0  0  0
  1  2  1  0
  2  3  1  0
  3  4  2  0
  4  5  1  0
  5  6  1  0
  6  7  2  0
  6  8  2  0
  6  9  1  0
  9 10  2  0
 10 11  1  0
 11 12  2  0
 12 13  1  0
 13 14  2  0
 14 15  1  0
 15 16  2  0
 15 17  1  0
 17 18  1  0
 18 19  1  0
 19 20  1  0
 20 21  1  0
 21 22  2  0
 21 23  1  0
 23 24  1  0
 24 25  2  0
 14 26  1  0
 26 27  2  0
 27 28  1  0
 28 29  2  0
  5 30  1  0
 30 31  2  0
 31  3  1  0
 29  9  1  0
 29 13  1  0
 24 18  1  0
  1 32  1  0
  1 33  1  0
  1 34  1  0
  2 35  1  0
  2 36  1  0
  4 37  1  0
 10 38  1  0
 12 39  1  0
 17 40  1  0
 18 41  1  6
 19 42  1  0
 19 43  1  0
 20 44  1  0
 20 45  1  0
 23 46  1  0
 26 47  1  0
 27 48  1  0
 28 49  1  0
 30 50  1  0
M  END
>  <meeko>  (505) 
{"is_sidechain": [true], "free_energy": -10.76, "intermolecular_energy": 0.0, "internal_energy": -10.76, "cluster_size": 19, "cluster_id": 1, "rank_in_cluster": 1}

>  <_RMSD_MCS_to_ref>  (505) 
0.6080106906954846

$$$$
ligand
     RDKit          3D

 55 58  0  0  0  0  0  0  0  0999 V2000
   18.9090   19.1540    7.5370 C   0  0  0  0  0  0  0  0  0  0  0  0
   18.7730   17.6460    7.6780 C   0  0  0  0  0  0  0  0  0  0  0  0
   20.0950   16.9610    7.6820 C   0  0  0  0  0  0  0  0  0  0  0  0
   20.9400   16.7110    8.7450 C   0  0  0  0  0  0  0  0  0  0  0  0
   22.0020   16.0650    8.1800 N   0  0  0  0  0  0  0  0  0  0  0  0
   23.3980   15.5860    8.9850 S   0  0  0  0  0  6  0  0  0  0  0  0
   24.3070   16.7130    8.9580 O   0  0  0  0  0  0  0  0  0  0  0  0
   23.7460   14.3120    8.3840 O   0  0  0  0  0  0  0  0  0  0  0  0
   22.8620   15.2900   10.6660 C   0  0  0  0  0  0  0  0  0  0  0  0
   23.5540   15.9930   11.6700 C   0  0  0  0  0  0  0  0  0  0  0  0
   23.2050   15.8320   13.0110 C   0  0  0  0  0  0  0  0  0  0  0  0
   23.9260   16.5370   14.1060 C   0  0  0  0  0  0  0  0  0  0  0  0
   24.2470   15.9340   15.1240 O   0  0  0  0  0  0  0  0  0  0  0  0
   24.1730   17.8790   13.9180 N   0  0  0  0  0  0  0  0  0  0  0  0
   24.7300   18.6920   14.9920 C   0  0  1  0  0  0  0  0  0  0  0  0
   25.8530   17.9750   15.7330 C   0  0  0  0  0  0  0  0  0  0  0  0
   26.4160   18.8910   16.8090 C   0  0  0  0  0  0  0  0  0  0  0  0
   26.8770   20.2050   16.2250 C   0  0  0  0  0  0  0  0  0  0  0  0
   27.8360   20.8250   16.6750 O   0  0  0  0  0  0  0  0  0  0  0  0
   26.1490   20.7000   15.1730 N   0  0  0  0  0  0  0  0  0  0  0  0
   25.2770   19.9890   14.3870 C   0  0  0  0  0  0  0  0  0  0  0  0
   24.9490   20.3910   13.2710 O   0  0  0  0  0  0  0  0  0  0  0  0
   22.1690   14.9620   13.3480 C   0  0  0  0  0  0  0  0  0  0  0  0
   21.4460   14.2750   12.3560 C   0  0  0  0  0  0  0  0  0  0  0  0
   21.7950   14.4190   10.9920 C   0  0  0  0  0  0  0  0  0  0  0  0
   20.9780   13.7020    9.9390 C   0  0  0  0  0  0  0  0  0  0  0  0
   20.1250   12.5510   10.4700 C   0  0  0  0  0  0  0  0  0  0  0  0
   19.3580   12.9890   11.7050 C   0  0  0  0  0  0  0  0  0  0  0  0
   20.3360   13.3540   12.8140 C   0  0  0  0  0  0  0  0  0  0  0  0
   21.7840   15.9240    6.8490 C   0  0  0  0  0  0  0  0  0  0  0  0
   20.6360   16.4730    6.5100 N   0  0  0  0  0  0  0  0  0  0  0  0
   18.9504   19.6134    8.5356 H   0  0  0  0  0  0  0  0  0  0  0  0
   19.8320   19.3891    6.9867 H   0  0  0  0  0  0  0  0  0  0  0  0
   18.0430   19.5504    6.9867 H   0  0  0  0  0  0  0  0  0  0  0  0
   18.2557   17.4236    8.6230 H   0  0  0  0  0  0  0  0  0  0  0  0
   18.2029   17.2756    6.8133 H   0  0  0  0  0  0  0  0  0  0  0  0
   20.7918   16.9721    9.8032 H   0  0  0  0  0  0  0  0  0  0  0  0
   24.3742   16.6728   11.3958 H   0  0  0  0  0  0  0  0  0  0  0  0
   23.9617   18.3130   13.0081 H   0  0  0  0  0  0  0  0  0  0  0  0
   23.9296   18.8962   15.7184 H   0  0  0  0  0  0  0  0  0  0  0  0
   25.4588   17.0602   16.1996 H   0  0  0  0  0  0  0  0  0  0  0  0
   26.6503   17.7101   15.0229 H   0  0  0  0  0  0  0  0  0  0  0  0
   25.6345   19.0864   17.5581 H   0  0  0  0  0  0  0  0  0  0  0  0
   27.2818   18.3934   17.2704 H   0  0  0  0  0  0  0  0  0  0  0  0
   26.2679   21.6990   14.9522 H   0  0  0  0  0  0  0  0  0  0  0  0
   21.9128   14.8103   14.4069 H   0  0  0  0  0  0  0  0  0  0  0  0
   20.3084   14.4355    9.4661 H   0  0  0  0  0  0  0  0  0  0  0  0
   21.6975   13.2578    9.2354 H   0  0  0  0  0  0  0  0  0  0  0  0
   19.4125   12.2387    9.6923 H   0  0  0  0  0  0  0  0  0  0  0  0
   20.7836   11.7115   10.7372 H   0  0  0  0  0  0  0  0  0  0  0  0
   18.7397   13.8651   11.4598 H   0  0  0  0  0  0  0  0  0  0  0  0
   18.7131   12.1651   12.0446 H   0  0  0  0  0  0  0  0  0  0  0  0
   19.7787   13.8534   13.6202 H   0  0  0  0  0  0  0  0  0  0  0  0
   20.8076   12.4195   13.1522 H   0  0  0  0  0  0  0  0  0  0  0  0
   22.4696   15.4217    6.1507 H   0  0  0  0  0  0  0  0  0  0  0  0
  1  2  1  0
  2  3  1  0
  3  4  2  0
  4  5  1  0
  5  6  1  0
  6  7  2  0
  6  8  2  0
  6  9  1  0
  9 10  2  0
 10 11  1  0
 11 12  1  0
 12 13  2  0
 12 14  1  0
 14 15  1  0
 15 16  1  0
 16 17  1  0
 17 18  1  0
 18 19  2  0
 18 20  1  0
 20 21  1  0
 21 22  2  0
 11 23  2  0
 23 24  1  0
 24 25  2  0
 25 26  1  0
 26 27  1  0
 27 28  1  0
 28 29  1  0
  5 30  1  0
 30 31  2  0
 31  3  1  0
 25  9  1  0
 21 15  1  0
 29 24  1  0
  1 32  1  0
  1 33  1  0
  1 34  1  0
  2 35  1  0
  2 36  1  0
  4 37  1  0
 10 38  1  0
 14 39  1  0
 15 40  1  1
 16 41  1  0
 16 42  1  0
 17 43  1  0
 17 44  1  0
 20 45  1  0
 23 46  1  0
 26 47  1  0
 26 48  1  0
 27 49  1  0
 27 50  1  0
 28 51  1  0
 28 52  1  0
 29 53  1  0
 29 54  1  0
 30 55  1  0
M  END
>  <meeko>  (506) 
{"is_sidechain": [true], "free_energy": -10.76, "intermolecular_energy": 0.0, "internal_energy": -10.76, "cluster_size": 20, "cluster_id": 1, "rank_in_cluster": 1}

>  <_RMSD_MCS_to_ref>  (506) 
0.4597449776174228

$$$$
ligand
     RDKit          3D

 47 50  0  0  0  0  0  0  0  0999 V2000
   18.9090   19.1540    7.5370 C   0  0  0  0  0  0  0  0  0  0  0  0
   18.7730   17.6460    7.6780 C   0  0  0  0  0  0  0  0  0  0  0  0
   19.8740   16.9160    6.9920 C   0  0  0  0  0  0  0  0  0  0  0  0
   21.2090   16.8370    7.3370 C   0  0  0  0  0  0  0  0  0  0  0  0
   21.7620   16.0640    6.3550 N   0  0  0  0  0  0  0  0  0  0  0  0
   23.3210   15.4380    6.3530 S   0  0  0  0  0  6  0  0  0  0  0  0
   23.2660   14.2510    5.5240 O   0  0  0  0  0  0  0  0  0  0  0  0
   24.2000   16.5530    6.0580 O   0  0  0  0  0  0  0  0  0  0  0  0
   23.5770   14.9480    8.0370 C   0  0  0  0  0  0  0  0  0  0  0  0
   23.4680   13.6040    8.3920 C   0  0  0  0  0  0  0  0  0  0  0  0
   23.6720   13.2080    9.7170 C   0  0  0  0  0  0  0  0  0  0  0  0
   23.9940   14.1920   10.6670 C   0  0  0  0  0  0  0  0  0  0  0  0
   24.2970   14.0140   12.3530 S   0  0  0  0  0  0  0  0  0  0  0  0
   24.5620   15.6980   12.4790 C   0  0  0  0  0  0  0  0  0  0  0  0
   24.8960   16.3180   13.7580 C   0  0  0  0  0  0  0  0  0  0  0  0
   25.0120   15.7220   14.8280 O   0  0  0  0  0  0  0  0  0  0  0  0
   25.0680   17.6860   13.6790 N   0  0  0  0  0  0  0  0  0  0  0  0
   25.2450   18.5220   14.8520 C   0  0  1  0  0  0  0  0  0  0  0  0
   26.2390   17.9190   15.8400 C   0  0  0  0  0  0  0  0  0  0  0  0
   26.4000   18.8500   17.0300 C   0  0  0  0  0  0  0  0  0  0  0  0
   26.8140   20.2350   16.5920 C   0  0  0  0  0  0  0  0  0  0  0  0
   27.5440   20.9510   17.2710 O   0  0  0  0  0  0  0  0  0  0  0  0
   26.3050   20.6790   15.3970 N   0  0  0  0  0  0  0  0  0  0  0  0
   25.7490   19.9000   14.4130 C   0  0  0  0  0  0  0  0  0  0  0  0
   25.6550   20.3110   13.2570 O   0  0  0  0  0  0  0  0  0  0  0  0
   24.4430   16.3930   11.3620 N   0  0  0  0  0  0  0  0  0  0  0  0
   24.1200   15.5410   10.3220 C   0  0  0  0  0  0  0  0  0  0  0  0
   23.9140   15.9260    8.9830 C   0  0  0  0  0  0  0  0  0  0  0  0
   20.7860   15.6650    5.4990 C   0  0  0  0  0  0  0  0  0  0  0  0
   19.6250   16.1760    5.8540 N   0  0  0  0  0  0  0  0  0  0  0  0
   18.9504   19.6134    8.5356 H   0  0  0  0  0  0  0  0  0  0  0  0
   19.8320   19.3891    6.9867 H   0  0  0  0  0  0  0  0  0  0  0  0
   18.0430   19.5504    6.9867 H   0  0  0  0  0  0  0  0  0  0  0  0
   18.7885   17.3873    8.7470 H   0  0  0  0  0  0  0  0  0  0  0  0
   17.8247   17.3468    7.2076 H   0  0  0  0  0  0  0  0  0  0  0  0
   21.7117   17.2918    8.2033 H   0  0  0  0  0  0  0  0  0  0  0  0
   23.2207   12.8531    7.6271 H   0  0  0  0  0  0  0  0  0  0  0  0
   23.5826   12.1512   10.0090 H   0  0  0  0  0  0  0  0  0  0  0  0
   25.0708   18.1309   12.7501 H   0  0  0  0  0  0  0  0  0  0  0  0
   24.2721   18.6031   15.3589 H   0  0  0  0  0  0  0  0  0  0  0  0
   25.8662   16.9435   16.1857 H   0  0  0  0  0  0  0  0  0  0  0  0
   27.2122   17.7857   15.3450 H   0  0  0  0  0  0  0  0  0  0  0  0
   25.4416   18.9153   17.5659 H   0  0  0  0  0  0  0  0  0  0  0  0
   27.1853   18.4439   17.6844 H   0  0  0  0  0  0  0  0  0  0  0  0
   26.3440   21.6933   15.2220 H   0  0  0  0  0  0  0  0  0  0  0  0
   24.0161   16.9796    8.6837 H   0  0  0  0  0  0  0  0  0  0  0  0
   20.9430   15.0075    4.6312 H   0  0  0  0  0  0  0  0  0  0  0  0
  1  2  1  0
  2  3  1  0
  3  4  2  0
  4  5  1  0
  5  6  1  0
  6  7  2  0
  6  8  2  0
  6  9  1  0
  9 10  2  0
 10 11  1  0
 11 12  2  0
 12 13  1  0
 13 14  1  0
 14 15  1  0
 15 16  2  0
 15 17  1  0
 17 18  1  0
 18 19  1  0
 19 20  1  0
 20 21  1  0
 21 22  2  0
 21 23  1  0
 23 24  1  0
 24 25  2  0
 14 26  2  0
 26 27  1  0
 27 28  2  0
  5 29  1  0
 29 30  2  0
 30  3  1  0
 28  9  1  0
 27 12  1  0
 24 18  1  0
  1 31  1  0
  1 32  1  0
  1 33  1  0
  2 34  1  0
  2 35  1  0
  4 36  1  0
 10 37  1  0
 11 38  1  0
 17 39  1  0
 18 40  1  1
 19 41  1  0
 19 42  1  0
 20 43  1  0
 20 44  1  0
 23 45  1  0
 28 46  1  0
 29 47  1  0
M  END
>  <meeko>  (507) 
{"is_sidechain": [true], "free_energy": -10.76, "intermolecular_energy": 0.0, "internal_energy": -10.76, "cluster_size": 20, "cluster_id": 1, "rank_in_cluster": 1}

>  <_RMSD_MCS_to_ref>  (507) 
0.5353148606194303

$$$$
ligand
     RDKit          3D

 51 54  0  0  0  0  0  0  0  0999 V2000
   18.9090   19.1540    7.5370 C   0  0  0  0  0  0  0  0  0  0  0  0
   18.7730   17.6460    7.6780 C   0  0  0  0  0  0  0  0  0  0  0  0
   20.0270   16.9340    7.3120 C   0  0  0  0  0  0  0  0  0  0  0  0
   21.0250   16.4520    8.1360 C   0  0  0  0  0  0  0  0  0  0  0  0
   21.9250   15.8880    7.2760 N   0  0  0  0  0  0  0  0  0  0  0  0
   23.2970   15.0300    7.7220 S   0  0  0  0  0  6  0  0  0  0  0  0
   22.9280   13.6290    7.7690 O   0  0  0  0  0  0  0  0  0  0  0  0
   24.3310   15.5250    6.8320 O   0  0  0  0  0  0  0  0  0  0  0  0
   23.7070   15.5580    9.3650 C   0  0  0  0  0  0  0  0  0  0  0  0
   24.8400   16.3630    9.5300 C   0  0  0  0  0  0  0  0  0  0  0  0
   25.2020   16.8110   10.8020 C   0  0  0  0  0  0  0  0  0  0  0  0
   24.4310   16.4620   11.9200 C   0  0  0  0  0  0  0  0  0  0  0  0
   24.8160   16.9500   13.2800 C   0  0  0  0  0  0  0  0  0  0  0  0
   24.8560   16.1760   14.2300 O   0  0  0  0  0  0  0  0  0  0  0  0
   25.0740   18.2970   13.4100 N   0  0  0  0  0  0  0  0  0  0  0  0
   25.3070   18.8950   14.7200 C   0  0  1  0  0  0  0  0  0  0  0  0
   26.3770   18.1550   15.5140 C   0  0  0  0  0  0  0  0  0  0  0  0
   26.6020   18.8600   16.8420 C   0  0  0  0  0  0  0  0  0  0  0  0
   26.9590   20.3130   16.6370 C   0  0  0  0  0  0  0  0  0  0  0  0
   27.7340   20.9140   17.3760 O   0  0  0  0  0  0  0  0  0  0  0  0
   26.3480   20.9540   15.5890 N   0  0  0  0  0  0  0  0  0  0  0  0
   25.7550   20.3450   14.5120 C   0  0  0  0  0  0  0  0  0  0  0  0
   25.5880   20.9420   13.4480 O   0  0  0  0  0  0  0  0  0  0  0  0
   23.3010   15.6310   11.7490 C   0  0  0  0  0  0  0  0  0  0  0  0
   22.9350   15.1840   10.4690 C   0  0  0  0  0  0  0  0  0  0  0  0
   21.8900   14.3290   10.2620 O   0  0  0  0  0  0  0  0  0  0  0  0
   20.9330   14.2530   11.3110 C   0  0  0  0  0  0  0  0  0  0  0  0
   21.4010   14.4810   12.7400 C   0  0  0  0  0  0  0  0  0  0  0  0
   20.7710   14.0980   13.7220 O   0  0  0  0  0  0  0  0  0  0  0  0
   22.5440   15.2180   12.8540 N   0  0  0  0  0  0  0  0  0  0  0  0
   21.4800   16.0390    6.0020 C   0  0  0  0  0  0  0  0  0  0  0  0
   20.3200   16.6630    5.9890 N   0  0  0  0  0  0  0  0  0  0  0  0
   18.9504   19.6134    8.5356 H   0  0  0  0  0  0  0  0  0  0  0  0
   19.8320   19.3891    6.9867 H   0  0  0  0  0  0  0  0  0  0  0  0
   18.0430   19.5504    6.9867 H   0  0  0  0  0  0  0  0  0  0  0  0
   18.5223   17.4087    8.7224 H   0  0  0  0  0  0  0  0  0  0  0  0
   17.9812   17.3118    6.9915 H   0  0  0  0  0  0  0  0  0  0  0  0
   21.0823   16.5090    9.2330 H   0  0  0  0  0  0  0  0  0  0  0  0
   25.4464   16.6432    8.6561 H   0  0  0  0  0  0  0  0  0  0  0  0
   26.0955   17.4402   10.9275 H   0  0  0  0  0  0  0  0  0  0  0  0
   25.1028   18.8911   12.5691 H   0  0  0  0  0  0  0  0  0  0  0  0
   24.3710   18.8377   15.2950 H   0  0  0  0  0  0  0  0  0  0  0  0
   26.0476   17.1219   15.6987 H   0  0  0  0  0  0  0  0  0  0  0  0
   27.3161   18.1439   14.9414 H   0  0  0  0  0  0  0  0  0  0  0  0
   25.6817   18.7980   17.4413 H   0  0  0  0  0  0  0  0  0  0  0  0
   27.4373   18.3665   17.3605 H   0  0  0  0  0  0  0  0  0  0  0  0
   26.3332   21.9836   15.6129 H   0  0  0  0  0  0  0  0  0  0  0  0
   20.1590   15.0053   11.0992 H   0  0  0  0  0  0  0  0  0  0  0  0
   20.6052   13.2030   11.3000 H   0  0  0  0  0  0  0  0  0  0  0  0
   22.8653   15.4831   13.7960 H   0  0  0  0  0  0  0  0  0  0  0  0
   22.0136   15.6891    5.1060 H   0  0  0  0  0  0  0  0  0  0  0  0
  1  2  1  0
  2  3  1  0
  3  4  2  0
  4  5  1  0
  5  6  1  0
  6  7  2  0
  6  8  2  0
  6  9  1  0
  9 10  2  0
 10 11  1  0
 11 12  2  0
 12 13  1  0
 13 14  2  0
 13 15  1  0
 15 16  1  0
 16 17  1  0
 17 18  1  0
 18 19  1  0
 19 20  2  0
 19 21  1  0
 21 22  1  0
 22 23  2  0
 12 24  1  0
 24 25  2  0
 25 26  1  0
 26 27  1  0
 27 28  1  0
 28 29  2  0
 28 30  1  0
  5 31  1  0
 31 32  2  0
 32  3  1  0
 25  9  1  0
 22 16  1  0
 30 24  1  0
  1 33  1  0
  1 34  1  0
  1 35  1  0
  2 36  1  0
  2 37  1  0
  4 38  1  0
 10 39  1  0
 11 40  1  0
 15 41  1  0
 16 42  1  1
 17 43  1  0
 17 44  1  0
 18 45  1  0
 18 46  1  0
 21 47  1  0
 27 48  1  0
 27 49  1  0
 30 50  1  0
 31 51  1  0
M  END
>  <meeko>  (508) 
{"is_sidechain": [true], "free_energy": -10.76, "intermolecular_energy": 0.0, "internal_energy": -10.76, "cluster_size": 14, "cluster_id": 1, "rank_in_cluster": 1}

>  <_RMSD_MCS_to_ref>  (508) 
0.7576655667978528

$$$$
ligand
     RDKit          3D

 52 56  0  0  0  0  0  0  0  0999 V2000
   18.7970   18.8170    7.7190 C   0  0  0  0  0  0  0  0  0  0  0  0
   18.5280   17.3290    7.8810 C   0  0  0  0  0  0  0  0  0  0  0  0
   19.6420   16.4950    7.3570 C   0  0  0  0  0  0  0  0  0  0  0  0
   20.6430   15.8460    8.0520 C   0  0  0  0  0  0  0  0  0  0  0  0
   21.3750   15.2220    7.0820 N   0  0  0  0  0  0  0  0  0  0  0  0
   22.7840   14.3370    7.3120 S   0  0  0  0  0  6  0  0  0  0  0  0
   22.3480   12.9660    7.5090 O   0  0  0  0  0  0  0  0  0  0  0  0
   23.6590   14.7180    6.2180 O   0  0  0  0  0  0  0  0  0  0  0  0
   23.4920   14.9260    8.8340 C   0  0  0  0  0  0  0  0  0  0  0  0
   22.6110   14.9110    9.8660 N   0  0  0  0  0  0  0  0  0  0  0  0
   23.0820   15.3420   11.0510 C   0  0  0  0  0  0  0  0  0  0  0  0
   24.3900   15.7730   11.2680 C   0  0  0  0  0  0  0  0  0  0  0  0
   24.7440   16.1490   12.6180 C   0  0  0  0  0  0  0  0  0  0  0  0
   24.7610   17.4220   13.1420 C   0  0  0  0  0  0  0  0  0  0  0  0
   25.1650   17.2400   14.4320 N   0  0  0  0  0  0  0  0  0  0  0  0
   25.4110   18.2260   15.4730 C   0  0  1  0  0  0  0  0  0  0  0  0
   26.5600   17.7850   16.3810 C   0  0  0  0  0  0  0  0  0  0  0  0
   26.7570   18.8050   17.4910 C   0  0  0  0  0  0  0  0  0  0  0  0
   26.9990   20.1840   16.9270 C   0  0  0  0  0  0  0  0  0  0  0  0
   27.6530   21.0340   17.5200 O   0  0  0  0  0  0  0  0  0  0  0  0
   26.3990   20.4620   15.7230 N   0  0  0  0  0  0  0  0  0  0  0  0
   25.6830   19.6100   14.9110 C   0  0  0  0  0  0  0  0  0  0  0  0
   25.2760   20.0070   13.8210 O   0  0  0  0  0  0  0  0  0  0  0  0
   25.4770   15.9490   14.6630 N   0  0  0  0  0  0  0  0  0  0  0  0
   25.2170   15.2700   13.5540 N   0  0  0  0  0  0  0  0  0  0  0  0
   25.2870   15.8090   10.1650 C   0  0  0  0  0  0  0  0  0  0  0  0
   26.6180   16.2960   10.2540 C   0  0  0  0  0  0  0  0  0  0  0  0
   27.4790   16.3100    9.1560 C   0  0  0  0  0  0  0  0  0  0  0  0
   27.0370   15.8450    7.9300 C   0  0  0  0  0  0  0  0  0  0  0  0
   25.7310   15.3800    7.7980 C   0  0  0  0  0  0  0  0  0  0  0  0
   24.8320   15.3590    8.8980 C   0  0  0  0  0  0  0  0  0  0  0  0
   20.8510   15.5250    5.8650 C   0  0  0  0  0  0  0  0  0  0  0  0
   19.7830   16.2850    5.9980 N   0  0  0  0  0  0  0  0  0  0  0  0
   18.8815   19.2845    8.7111 H   0  0  0  0  0  0  0  0  0  0  0  0
   19.7359   18.9616    7.1643 H   0  0  0  0  0  0  0  0  0  0  0  0
   17.9682   19.2812    7.1643 H   0  0  0  0  0  0  0  0  0  0  0  0
   18.3930   17.1080    8.9501 H   0  0  0  0  0  0  0  0  0  0  0  0
   17.6240   17.0851    7.3037 H   0  0  0  0  0  0  0  0  0  0  0  0
   20.8124   15.8341    9.1388 H   0  0  0  0  0  0  0  0  0  0  0  0
   22.3888   15.3550   11.9050 H   0  0  0  0  0  0  0  0  0  0  0  0
   24.5077   18.3662   12.6377 H   0  0  0  0  0  0  0  0  0  0  0  0
   24.4888   18.2921   16.0690 H   0  0  0  0  0  0  0  0  0  0  0  0
   26.3221   16.8059   16.8223 H   0  0  0  0  0  0  0  0  0  0  0  0
   27.4836   17.7088   15.7885 H   0  0  0  0  0  0  0  0  0  0  0  0
   25.8559   18.8280   18.1215 H   0  0  0  0  0  0  0  0  0  0  0  0
   27.6364   18.5110   18.0828 H   0  0  0  0  0  0  0  0  0  0  0  0
   26.4968   21.4299   15.3845 H   0  0  0  0  0  0  0  0  0  0  0  0
   26.9823   16.6747   11.2204 H   0  0  0  0  0  0  0  0  0  0  0  0
   28.5057   16.6895    9.2647 H   0  0  0  0  0  0  0  0  0  0  0  0
   27.7144   15.8427    7.0633 H   0  0  0  0  0  0  0  0  0  0  0  0
   25.3867   15.0199    6.8173 H   0  0  0  0  0  0  0  0  0  0  0  0
   21.2613   15.1834    4.9033 H   0  0  0  0  0  0  0  0  0  0  0  0
  1  2  1  0
  2  3  1  0
  3  4  2  0
  4  5  1  0
  5  6  1  0
  6  7  2  0
  6  8  2  0
  6  9  1  0
  9 10  2  0
 10 11  1  0
 11 12  2  0
 12 13  1  0
 13 14  2  0
 14 15  1  0
 15 16  1  0
 16 17  1  0
 17 18  1  0
 18 19  1  0
 19 20  2  0
 19 21  1  0
 21 22  1  0
 22 23  2  0
 15 24  1  0
 24 25  2  0
 12 26  1  0
 26 27  2  0
 27 28  1  0
 28 29  2  0
 29 30  1  0
 30 31  2  0
  5 32  1  0
 32 33  2  0
 33  3  1  0
 31  9  1  0
 25 13  1  0
 31 26  1  0
 22 16  1  0
  1 34  1  0
  1 35  1  0
  1 36  1  0
  2 37  1  0
  2 38  1  0
  4 39  1  0
 11 40  1  0
 14 41  1  0
 16 42  1  1
 17 43  1  0
 17 44  1  0
 18 45  1  0
 18 46  1  0
 21 47  1  0
 27 48  1  0
 28 49  1  0
 29 50  1  0
 30 51  1  0
 32 52  1  0
M  END
>  <meeko>  (509) 
{"is_sidechain": [true], "free_energy": -10.75, "intermolecular_energy": 0.0, "internal_energy": -10.75, "cluster_size": 7, "cluster_id": 1, "rank_in_cluster": 1}

>  <_RMSD_MCS_to_ref>  (509) 
0.5301540656576474

$$$$
ligand
     RDKit          3D

 56 60  0  0  0  0  0  0  0  0999 V2000
   18.7970   18.8160    7.7190 C   0  0  0  0  0  0  0  0  0  0  0  0
   18.5280   17.3300    7.8810 C   0  0  0  0  0  0  0  0  0  0  0  0
   19.7250   16.5770    8.3470 C   0  0  0  0  0  0  0  0  0  0  0  0
   20.9010   16.3080    7.6730 C   0  0  0  0  0  0  0  0  0  0  0  0
   21.6510   15.6110    8.5750 N   0  0  0  0  0  0  0  0  0  0  0  0
   23.2330   15.0920    8.3710 S   0  0  0  0  0  6  0  0  0  0  0  0
   23.9830   15.8760    9.3360 O   0  0  0  0  0  0  0  0  0  0  0  0
   23.5220   15.1590    6.9510 O   0  0  0  0  0  0  0  0  0  0  0  0
   23.2770   13.3870    8.8810 C   0  0  0  0  0  0  0  0  0  0  0  0
   23.1180   12.4240    7.8690 C   0  0  0  0  0  0  0  0  0  0  0  0
   23.1640   11.0660    8.1740 C   0  0  0  0  0  0  0  0  0  0  0  0
   23.3640   10.6610    9.4880 C   0  0  0  0  0  0  0  0  0  0  0  0
   23.5110   11.6160   10.4970 C   0  0  0  0  0  0  0  0  0  0  0  0
   23.4660   12.9980   10.2210 C   0  0  0  0  0  0  0  0  0  0  0  0
   23.6040   13.9230   11.3530 C   0  0  0  0  0  0  0  0  0  0  0  0
   22.4520   14.3770   12.0450 C   0  0  0  0  0  0  0  0  0  0  0  0
   22.5510   15.2690   13.1150 C   0  0  0  0  0  0  0  0  0  0  0  0
   23.8140   15.6900   13.4750 C   0  0  0  0  0  0  0  0  0  0  0  0
   24.9620   15.2760   12.8080 C   0  0  0  0  0  0  0  0  0  0  0  0
   24.8710   14.4040   11.7360 C   0  0  0  0  0  0  0  0  0  0  0  0
   26.1630   15.9190   13.4120 C   0  0  0  0  0  0  0  0  0  0  0  0
   25.6030   16.6340   14.5510 N   0  0  0  0  0  0  0  0  0  0  0  0
   26.4020   17.5870   15.3150 C   0  0  2  0  0  0  0  0  0  0  0  0
   25.9730   17.7190   16.7760 C   0  0  0  0  0  0  0  0  0  0  0  0
   26.9060   18.6840   17.4900 C   0  0  0  0  0  0  0  0  0  0  0  0
   26.9340   20.0290   16.8020 C   0  0  0  0  0  0  0  0  0  0  0  0
   27.2540   21.0580   17.3910 O   0  0  0  0  0  0  0  0  0  0  0  0
   26.6620   20.0400   15.4570 N   0  0  0  0  0  0  0  0  0  0  0  0
   26.4270   18.9630   14.6330 C   0  0  0  0  0  0  0  0  0  0  0  0
   26.3540   19.1190   13.4140 O   0  0  0  0  0  0  0  0  0  0  0  0
   24.2160   16.6000   14.5530 C   0  0  0  0  0  0  0  0  0  0  0  0
   23.4440   17.1980   15.2760 O   0  0  0  0  0  0  0  0  0  0  0  0
   20.9710   15.5220    9.7470 C   0  0  0  0  0  0  0  0  0  0  0  0
   19.7770   16.0630    9.6310 N   0  0  0  0  0  0  0  0  0  0  0  0
   18.8816   19.2836    8.7111 H   0  0  0  0  0  0  0  0  0  0  0  0
   19.7359   18.9603    7.1643 H   0  0  0  0  0  0  0  0  0  0  0  0
   17.9683   19.2803    7.1643 H   0  0  0  0  0  0  0  0  0  0  0  0
   17.7203   17.1966    8.6157 H   0  0  0  0  0  0  0  0  0  0  0  0
   18.2493   16.9331    6.8937 H   0  0  0  0  0  0  0  0  0  0  0  0
   21.1707   16.5910    6.6448 H   0  0  0  0  0  0  0  0  0  0  0  0
   22.9562   12.7454    6.8295 H   0  0  0  0  0  0  0  0  0  0  0  0
   23.0425   10.3169    7.3778 H   0  0  0  0  0  0  0  0  0  0  0  0
   23.4065    9.5896    9.7335 H   0  0  0  0  0  0  0  0  0  0  0  0
   23.6658   11.2812   11.5333 H   0  0  0  0  0  0  0  0  0  0  0  0
   21.4600   14.0190   11.7323 H   0  0  0  0  0  0  0  0  0  0  0  0
   21.6568   15.6219   13.6496 H   0  0  0  0  0  0  0  0  0  0  0  0
   25.7746   14.0918   11.1919 H   0  0  0  0  0  0  0  0  0  0  0  0
   26.8953   15.1654   13.7375 H   0  0  0  0  0  0  0  0  0  0  0  0
   26.7086   16.5697   12.7128 H   0  0  0  0  0  0  0  0  0  0  0  0
   27.4212   17.1736   15.3295 H   0  0  0  0  0  0  0  0  0  0  0  0
   24.9428   18.1017   16.8230 H   0  0  0  0  0  0  0  0  0  0  0  0
   26.0194   16.7340   17.2634 H   0  0  0  0  0  0  0  0  0  0  0  0
   26.5594   18.8180   18.5253 H   0  0  0  0  0  0  0  0  0  0  0  0
   27.9221   18.2629   17.4719 H   0  0  0  0  0  0  0  0  0  0  0  0
   26.6298   20.9672   15.0097 H   0  0  0  0  0  0  0  0  0  0  0  0
   21.3636   15.0617   10.6657 H   0  0  0  0  0  0  0  0  0  0  0  0
  1  2  1  0
  2  3  1  0
  3  4  2  0
  4  5  1  0
  5  6  1  0
  6  7  2  0
  6  8  2  0
  6  9  1  0
  9 10  2  0
 10 11  1  0
 11 12  2  0
 12 13  1  0
 13 14  2  0
 14 15  1  0
 15 16  2  0
 16 17  1  0
 17 18  2  0
 18 19  1  0
 19 20  2  0
 19 21  1  0
 21 22  1  0
 22 23  1  0
 23 24  1  0
 24 25  1  0
 25 26  1  0
 26 27  2  0
 26 28  1  0
 28 29  1  0
 29 30  2  0
 22 31  1  0
 31 32  2  0
  5 33  1  0
 33 34  2  0
 34  3  1  0
 14  9  1  0
 20 15  1  0
 29 23  1  0
 31 18  1  0
  1 35  1  0
  1 36  1  0
  1 37  1  0
  2 38  1  0
  2 39  1  0
  4 40  1  0
 10 41  1  0
 11 42  1  0
 12 43  1  0
 13 44  1  0
 16 45  1  0
 17 46  1  0
 20 47  1  0
 21 48  1  0
 21 49  1  0
 23 50  1  1
 24 51  1  0
 24 52  1  0
 25 53  1  0
 25 54  1  0
 28 55  1  0
 33 56  1  0
M  END
>  <meeko>  (510) 
{"is_sidechain": [true], "free_energy": -10.75, "intermolecular_energy": 0.0, "internal_energy": -10.75, "cluster_size": 20, "cluster_id": 1, "rank_in_cluster": 1}

>  <_RMSD_MCS_to_ref>  (510) 
1.3188785429716836

$$$$
ligand
     RDKit          3D

 55 59  0  0  0  0  0  0  0  0999 V2000
   18.7970   18.8170    7.7190 C   0  0  0  0  0  0  0  0  0  0  0  0
   18.5280   17.3290    7.8810 C   0  0  0  0  0  0  0  0  0  0  0  0
   19.7530   16.5110    7.6670 C   0  0  0  0  0  0  0  0  0  0  0  0
   20.9390   16.5260    8.3730 C   0  0  0  0  0  0  0  0  0  0  0  0
   21.7090   15.5850    7.7520 N   0  0  0  0  0  0  0  0  0  0  0  0
   23.2940   15.2040    8.1520 S   0  0  0  0  0  6  0  0  0  0  0  0
   23.9950   15.2470    6.8800 O   0  0  0  0  0  0  0  0  0  0  0  0
   23.6740   16.0560    9.2600 O   0  0  0  0  0  0  0  0  0  0  0  0
   23.2640   13.5180    8.7070 C   0  0  0  0  0  0  0  0  0  0  0  0
   23.1620   12.5290    7.7190 C   0  0  0  0  0  0  0  0  0  0  0  0
   23.1090   11.2070    8.1150 C   0  0  0  0  0  0  0  0  0  0  0  0
   23.1530   10.8230    9.4030 N   0  0  0  0  0  0  0  0  0  0  0  0
   23.2720   11.7960   10.3350 C   0  0  0  0  0  0  0  0  0  0  0  0
   23.3350   13.1640   10.0640 C   0  0  0  0  0  0  0  0  0  0  0  0
   23.4820   14.0980   11.1830 C   0  0  0  0  0  0  0  0  0  0  0  0
   22.3390   14.5770   11.8690 C   0  0  0  0  0  0  0  0  0  0  0  0
   22.4520   15.4690   12.9380 C   0  0  0  0  0  0  0  0  0  0  0  0
   23.7230   15.8630   13.3020 C   0  0  0  0  0  0  0  0  0  0  0  0
   24.8640   15.4210   12.6420 C   0  0  0  0  0  0  0  0  0  0  0  0
   24.7600   14.5540   11.5670 C   0  0  0  0  0  0  0  0  0  0  0  0
   26.0780   16.0140   13.2740 C   0  0  0  0  0  0  0  0  0  0  0  0
   25.5250   16.7600   14.3940 N   0  0  0  0  0  0  0  0  0  0  0  0
   26.3500   17.6730   15.1770 C   0  0  2  0  0  0  0  0  0  0  0  0
   25.9560   17.7500   16.6520 C   0  0  0  0  0  0  0  0  0  0  0  0
   26.9120   18.6800   17.3810 C   0  0  0  0  0  0  0  0  0  0  0  0
   26.9360   20.0510   16.7450 C   0  0  0  0  0  0  0  0  0  0  0  0
   27.2860   21.0520   17.3630 O   0  0  0  0  0  0  0  0  0  0  0  0
   26.6270   20.1170   15.4100 N   0  0  0  0  0  0  0  0  0  0  0  0
   26.3690   19.0740   14.5490 C   0  0  0  0  0  0  0  0  0  0  0  0
   26.2750   19.2770   13.3390 O   0  0  0  0  0  0  0  0  0  0  0  0
   24.1390   16.7660   14.3820 C   0  0  0  0  0  0  0  0  0  0  0  0
   23.3760   17.3930   15.0900 O   0  0  0  0  0  0  0  0  0  0  0  0
   20.9970   15.0150    6.7460 C   0  0  0  0  0  0  0  0  0  0  0  0
   19.8100   15.5810    6.6470 N   0  0  0  0  0  0  0  0  0  0  0  0
   18.8815   19.2845    8.7111 H   0  0  0  0  0  0  0  0  0  0  0  0
   19.7359   18.9616    7.1643 H   0  0  0  0  0  0  0  0  0  0  0  0
   17.9682   19.2812    7.1643 H   0  0  0  0  0  0  0  0  0  0  0  0
   18.1524   17.1454    8.8984 H   0  0  0  0  0  0  0  0  0  0  0  0
   17.7878   17.0345    7.1225 H   0  0  0  0  0  0  0  0  0  0  0  0
   21.2032   17.1525    9.2377 H   0  0  0  0  0  0  0  0  0  0  0  0
   23.1250   12.7994    6.6534 H   0  0  0  0  0  0  0  0  0  0  0  0
   23.0269   10.4310    7.3397 H   0  0  0  0  0  0  0  0  0  0  0  0
   23.3231   11.4850   11.3889 H   0  0  0  0  0  0  0  0  0  0  0  0
   21.3409   14.2393   11.5531 H   0  0  0  0  0  0  0  0  0  0  0  0
   21.5634   15.8422   13.4682 H   0  0  0  0  0  0  0  0  0  0  0  0
   25.6581   14.2270   11.0225 H   0  0  0  0  0  0  0  0  0  0  0  0
   26.7671   15.2302   13.6214 H   0  0  0  0  0  0  0  0  0  0  0  0
   26.6686   16.6358   12.5851 H   0  0  0  0  0  0  0  0  0  0  0  0
   27.3656   17.2512   15.1531 H   0  0  0  0  0  0  0  0  0  0  0  0
   24.9300   18.1370   16.7383 H   0  0  0  0  0  0  0  0  0  0  0  0
   26.0066   16.7463   17.0991 H   0  0  0  0  0  0  0  0  0  0  0  0
   26.5895   18.7763   18.4282 H   0  0  0  0  0  0  0  0  0  0  0  0
   27.9239   18.2526   17.3233 H   0  0  0  0  0  0  0  0  0  0  0  0
   26.5826   21.0618   15.0022 H   0  0  0  0  0  0  0  0  0  0  0  0
   21.3588   14.1976    6.1050 H   0  0  0  0  0  0  0  0  0  0  0  0
  1  2  1  0
  2  3  1  0
  3  4  2  0
  4  5  1  0
  5  6  1  0
  6  7  2  0
  6  8  2  0
  6  9  1  0
  9 10  2  0
 10 11  1  0
 11 12  2  0
 12 13  1  0
 13 14  2  0
 14 15  1  0
 15 16  2  0
 16 17  1  0
 17 18  2  0
 18 19  1  0
 19 20  2  0
 19 21  1  0
 21 22  1  0
 22 23  1  0
 23 24  1  0
 24 25  1  0
 25 26  1  0
 26 27  2  0
 26 28  1  0
 28 29  1  0
 29 30  2  0
 22 31  1  0
 31 32  2  0
  5 33  1  0
 33 34  2  0
 34  3  1  0
 14  9  1  0
 20 15  1  0
 29 23  1  0
 31 18  1  0
  1 35  1  0
  1 36  1  0
  1 37  1  0
  2 38  1  0
  2 39  1  0
  4 40  1  0
 10 41  1  0
 11 42  1  0
 13 43  1  0
 16 44  1  0
 17 45  1  0
 20 46  1  0
 21 47  1  0
 21 48  1  0
 23 49  1  1
 24 50  1  0
 24 51  1  0
 25 52  1  0
 25 53  1  0
 28 54  1  0
 33 55  1  0
M  END
>  <meeko>  (511) 
{"is_sidechain": [true], "free_energy": -10.75, "intermolecular_energy": 0.0, "internal_energy": -10.75, "cluster_size": 19, "cluster_id": 1, "rank_in_cluster": 1}

>  <_RMSD_MCS_to_ref>  (511) 
1.193989693795088

$$$$
ligand
     RDKit          3D

 59 63  0  0  0  0  0  0  0  0999 V2000
   18.9090   19.1540    7.5370 C   0  0  0  0  0  0  0  0  0  0  0  0
   18.7730   17.6460    7.6780 C   0  0  0  0  0  0  0  0  0  0  0  0
   20.0700   16.9440    7.4800 C   0  0  0  0  0  0  0  0  0  0  0  0
   20.5820   15.8570    8.1600 C   0  0  0  0  0  0  0  0  0  0  0  0
   21.7810   15.6170    7.5540 N   0  0  0  0  0  0  0  0  0  0  0  0
   22.9640   14.5540    8.0960 S   0  0  0  0  0  6  0  0  0  0  0  0
   22.3480   13.2430    8.1170 O   0  0  0  0  0  0  0  0  0  0  0  0
   24.1450   14.8450    7.3060 O   0  0  0  0  0  0  0  0  0  0  0  0
   23.2530   15.0700    9.7660 C   0  0  0  0  0  0  0  0  0  0  0  0
   24.3880   15.8310   10.0570 C   0  0  0  0  0  0  0  0  0  0  0  0
   24.5680   16.1930   11.3770 C   0  0  0  0  0  0  0  0  0  0  0  0
   23.6720   15.8530   12.3910 C   0  0  0  0  0  0  0  0  0  0  0  0
   22.5320   15.1180   12.1000 C   0  0  0  0  0  0  0  0  0  0  0  0
   21.5770   14.7440   13.1460 C   0  0  0  0  0  0  0  0  0  0  0  0
   21.9960   14.6110   14.4170 C   0  0  0  0  0  0  0  0  0  0  0  0
   21.0310   14.2510   15.5130 C   0  0  0  0  0  0  0  0  0  0  0  0
   19.6600   13.8060   14.9800 C   0  0  0  0  0  0  0  0  0  0  0  0
   19.2030   14.6580   13.8780 N   0  0  0  0  0  0  0  0  0  0  0  0
   20.1320   14.5720   12.7420 C   0  0  0  0  0  0  0  0  0  0  0  0
   22.3260   14.7200   10.7700 C   0  0  0  0  0  0  0  0  0  0  0  0
   24.1480   16.4060   13.6950 C   0  0  0  0  0  0  0  0  0  0  0  0
   25.4270   17.0090   13.3380 N   0  0  0  0  0  0  0  0  0  0  0  0
   26.1540   17.9190   14.2150 C   0  0  2  0  0  0  0  0  0  0  0  0
   25.8630   17.6670   15.6910 C   0  0  0  0  0  0  0  0  0  0  0  0
   26.7180   18.5960   16.5400 C   0  0  0  0  0  0  0  0  0  0  0  0
   26.4960   20.0420   16.1620 C   0  0  0  0  0  0  0  0  0  0  0  0
   26.5270   20.9490   16.9870 O   0  0  0  0  0  0  0  0  0  0  0  0
   26.2760   20.3020   14.8330 N   0  0  0  0  0  0  0  0  0  0  0  0
   25.8520   19.3930   13.8900 C   0  0  0  0  0  0  0  0  0  0  0  0
   25.2740   19.7750   12.8750 O   0  0  0  0  0  0  0  0  0  0  0  0
   25.6610   16.9670   11.9730 C   0  0  0  0  0  0  0  0  0  0  0  0
   26.5810   17.4600   11.3500 O   0  0  0  0  0  0  0  0  0  0  0  0
   21.9900   16.5530    6.5930 C   0  0  0  0  0  0  0  0  0  0  0  0
   20.9620   17.3710    6.5160 N   0  0  0  0  0  0  0  0  0  0  0  0
   18.9504   19.6134    8.5356 H   0  0  0  0  0  0  0  0  0  0  0  0
   19.8320   19.3891    6.9867 H   0  0  0  0  0  0  0  0  0  0  0  0
   18.0430   19.5504    6.9867 H   0  0  0  0  0  0  0  0  0  0  0  0
   18.3964   17.4169    8.6858 H   0  0  0  0  0  0  0  0  0  0  0  0
   18.0772   17.2955    6.9015 H   0  0  0  0  0  0  0  0  0  0  0  0
   20.1273   15.3094    8.9987 H   0  0  0  0  0  0  0  0  0  0  0  0
   25.1019   16.1267    9.2741 H   0  0  0  0  0  0  0  0  0  0  0  0
   23.0578   14.7675   14.6580 H   0  0  0  0  0  0  0  0  0  0  0  0
   21.4616   13.4291   16.1038 H   0  0  0  0  0  0  0  0  0  0  0  0
   20.8716   15.1530   16.1221 H   0  0  0  0  0  0  0  0  0  0  0  0
   19.7369   12.7692   14.6205 H   0  0  0  0  0  0  0  0  0  0  0  0
   18.9312   13.8864   15.8000 H   0  0  0  0  0  0  0  0  0  0  0  0
   18.2682   14.3489   13.5756 H   0  0  0  0  0  0  0  0  0  0  0  0
   20.0157   13.5862   12.2681 H   0  0  0  0  0  0  0  0  0  0  0  0
   19.8839   15.3918   12.0518 H   0  0  0  0  0  0  0  0  0  0  0  0
   21.4348   14.1306   10.5085 H   0  0  0  0  0  0  0  0  0  0  0  0
   23.4488   17.1602   14.0852 H   0  0  0  0  0  0  0  0  0  0  0  0
   24.2283   15.6480   14.4881 H   0  0  0  0  0  0  0  0  0  0  0  0
   27.2190   17.7167   14.0286 H   0  0  0  0  0  0  0  0  0  0  0  0
   24.7991   17.8599   15.8935 H   0  0  0  0  0  0  0  0  0  0  0  0
   26.0987   16.6215   15.9389 H   0  0  0  0  0  0  0  0  0  0  0  0
   26.4549   18.4577   17.5991 H   0  0  0  0  0  0  0  0  0  0  0  0
   27.7761   18.3497   16.3675 H   0  0  0  0  0  0  0  0  0  0  0  0
   26.4435   21.2660   14.5111 H   0  0  0  0  0  0  0  0  0  0  0  0
   22.8919   16.6184    5.9667 H   0  0  0  0  0  0  0  0  0  0  0  0
  1  2  1  0
  2  3  1  0
  3  4  2  0
  4  5  1  0
  5  6  1  0
  6  7  2  0
  6  8  2  0
  6  9  1  0
  9 10  2  0
 10 11  1  0
 11 12  2  0
 12 13  1  0
 13 14  1  0
 14 15  2  0
 15 16  1  0
 16 17  1  0
 17 18  1  0
 18 19  1  0
 13 20  2  0
 12 21  1  0
 21 22  1  0
 22 23  1  0
 23 24  1  0
 24 25  1  0
 25 26  1  0
 26 27  2  0
 26 28  1  0
 28 29  1  0
 29 30  2  0
 22 31  1  0
 31 32  2  0
  5 33  1  0
 33 34  2  0
 34  3  1  0
 20  9  1  0
 29 23  1  0
 31 11  1  0
 19 14  1  0
  1 35  1  0
  1 36  1  0
  1 37  1  0
  2 38  1  0
  2 39  1  0
  4 40  1  0
 10 41  1  0
 15 42  1  0
 16 43  1  0
 16 44  1  0
 17 45  1  0
 17 46  1  0
 18 47  1  0
 19 48  1  0
 19 49  1  0
 20 50  1  0
 21 51  1  0
 21 52  1  0
 23 53  1  1
 24 54  1  0
 24 55  1  0
 25 56  1  0
 25 57  1  0
 28 58  1  0
 33 59  1  0
M  END
>  <meeko>  (512) 
{"is_sidechain": [true], "free_energy": -10.75, "intermolecular_energy": 0.0, "internal_energy": -10.75, "cluster_size": 17, "cluster_id": 1, "rank_in_cluster": 1}

>  <_RMSD_MCS_to_ref>  (512) 
1.9840032342043528

$$$$
ligand
     RDKit          3D

 47 50  0  0  0  0  0  0  0  0999 V2000
   18.9090   19.1540    7.5370 C   0  0  0  0  0  0  0  0  0  0  0  0
   18.7730   17.6460    7.6780 C   0  0  0  0  0  0  0  0  0  0  0  0
   20.0960   16.9650    7.7250 C   0  0  0  0  0  0  0  0  0  0  0  0
   20.6040   16.1190    8.6910 C   0  0  0  0  0  0  0  0  0  0  0  0
   21.8560   15.8100    8.2390 N   0  0  0  0  0  0  0  0  0  0  0  0
   22.8840   14.6590    8.8990 S   0  0  0  0  0  6  0  0  0  0  0  0
   23.3590   13.8790    7.7730 O   0  0  0  0  0  0  0  0  0  0  0  0
   22.1480   14.0700    9.9990 O   0  0  0  0  0  0  0  0  0  0  0  0
   24.2850   15.5000    9.5860 C   0  0  0  0  0  0  0  0  0  0  0  0
   25.5140   15.5180    8.9230 C   0  0  0  0  0  0  0  0  0  0  0  0
   26.5860   16.1870    9.5020 C   0  0  0  0  0  0  0  0  0  0  0  0
   26.4250   16.8280   10.7310 C   0  0  0  0  0  0  0  0  0  0  0  0
   25.2150   16.8270   11.4110 C   0  0  0  0  0  0  0  0  0  0  0  0
   25.1500   17.4690   12.5830 N   0  0  0  0  0  0  0  0  0  0  0  0
   23.9890   17.4810   13.2410 C   0  0  0  0  0  0  0  0  0  0  0  0
   23.9810   18.1740   14.4400 N   0  0  0  0  0  0  0  0  0  0  0  0
   25.2990   18.5340   14.9580 C   0  0  2  0  0  0  0  0  0  0  0  0
   25.3280   18.3440   16.4740 C   0  0  0  0  0  0  0  0  0  0  0  0
   26.6730   18.7910   17.0230 C   0  0  0  0  0  0  0  0  0  0  0  0
   26.9610   20.2270   16.6580 C   0  0  0  0  0  0  0  0  0  0  0  0
   27.6620   20.9550   17.3540 O   0  0  0  0  0  0  0  0  0  0  0  0
   26.4430   20.6730   15.4700 N   0  0  0  0  0  0  0  0  0  0  0  0
   25.5800   20.0090   14.6310 C   0  0  0  0  0  0  0  0  0  0  0  0
   25.0920   20.5790   13.6540 O   0  0  0  0  0  0  0  0  0  0  0  0
   22.8830   16.8750   12.8050 N   0  0  0  0  0  0  0  0  0  0  0  0
   22.9690   16.2350   11.6220 C   0  0  0  0  0  0  0  0  0  0  0  0
   24.1260   16.1610   10.8420 C   0  0  0  0  0  0  0  0  0  0  0  0
   22.0660   16.4250    7.0470 C   0  0  0  0  0  0  0  0  0  0  0  0
   21.0080   17.1280    6.7010 N   0  0  0  0  0  0  0  0  0  0  0  0
   18.9504   19.6134    8.5356 H   0  0  0  0  0  0  0  0  0  0  0  0
   19.8320   19.3891    6.9867 H   0  0  0  0  0  0  0  0  0  0  0  0
   18.0430   19.5504    6.9867 H   0  0  0  0  0  0  0  0  0  0  0  0
   18.2272   17.4247    8.6071 H   0  0  0  0  0  0  0  0  0  0  0  0
   18.2311   17.2715    6.7971 H   0  0  0  0  0  0  0  0  0  0  0  0
   20.1134   15.7732    9.6128 H   0  0  0  0  0  0  0  0  0  0  0  0
   25.6322   15.0092    7.9549 H   0  0  0  0  0  0  0  0  0  0  0  0
   27.5603   16.2111    8.9919 H   0  0  0  0  0  0  0  0  0  0  0  0
   27.2848   17.3510   11.1752 H   0  0  0  0  0  0  0  0  0  0  0  0
   23.1091   18.4180   14.9311 H   0  0  0  0  0  0  0  0  0  0  0  0
   26.0625   17.8916   14.4949 H   0  0  0  0  0  0  0  0  0  0  0  0
   24.5285   18.9444   16.9327 H   0  0  0  0  0  0  0  0  0  0  0  0
   25.1746   17.2806   16.7099 H   0  0  0  0  0  0  0  0  0  0  0  0
   26.6635   18.6942   18.1187 H   0  0  0  0  0  0  0  0  0  0  0  0
   27.4569   18.1560   16.5845 H   0  0  0  0  0  0  0  0  0  0  0  0
   26.7341   21.6148   15.1713 H   0  0  0  0  0  0  0  0  0  0  0  0
   22.0647   15.7357   11.2439 H   0  0  0  0  0  0  0  0  0  0  0  0
   22.9893   16.3470    6.4543 H   0  0  0  0  0  0  0  0  0  0  0  0
  1  2  1  0
  2  3  1  0
  3  4  2  0
  4  5  1  0
  5  6  1  0
  6  7  2  0
  6  8  2  0
  6  9  1  0
  9 10  2  0
 10 11  1  0
 11 12  2  0
 12 13  1  0
 13 14  2  0
 14 15  1  0
 15 16  1  0
 16 17  1  0
 17 18  1  0
 18 19  1  0
 19 20  1  0
 20 21  2  0
 20 22  1  0
 22 23  1  0
 23 24  2  0
 15 25  2  0
 25 26  1  0
 26 27  2  0
  5 28  1  0
 28 29  2  0
 29  3  1  0
 27  9  1  0
 27 13  1  0
 23 17  1  0
  1 30  1  0
  1 31  1  0
  1 32  1  0
  2 33  1  0
  2 34  1  0
  4 35  1  0
 10 36  1  0
 11 37  1  0
 12 38  1  0
 16 39  1  0
 17 40  1  6
 18 41  1  0
 18 42  1  0
 19 43  1  0
 19 44  1  0
 22 45  1  0
 26 46  1  0
 28 47  1  0
M  END
>  <meeko>  (513) 
{"is_sidechain": [true], "free_energy": -10.75, "intermolecular_energy": 0.0, "internal_energy": -10.75, "cluster_size": 19, "cluster_id": 1, "rank_in_cluster": 1}

>  <_RMSD_MCS_to_ref>  (513) 
0.7600456126663275

$$$$
ligand
     RDKit          3D

 47 50  0  0  0  0  0  0  0  0999 V2000
   18.9090   19.1540    7.5370 C   0  0  0  0  0  0  0  0  0  0  0  0
   18.7730   17.6460    7.6780 C   0  0  0  0  0  0  0  0  0  0  0  0
   19.9090   16.9180    7.0510 C   0  0  0  0  0  0  0  0  0  0  0  0
   21.1960   16.7460    7.5210 C   0  0  0  0  0  0  0  0  0  0  0  0
   21.8080   15.9970    6.5570 N   0  0  0  0  0  0  0  0  0  0  0  0
   23.4270   15.5570    6.5180 S   0  0  0  0  0  6  0  0  0  0  0  0
   24.1590   16.7780    6.2380 O   0  0  0  0  0  0  0  0  0  0  0  0
   23.4990   14.3960    5.6480 O   0  0  0  0  0  0  0  0  0  0  0  0
   23.8370   15.0370    8.1640 C   0  0  0  0  0  0  0  0  0  0  0  0
   23.9600   13.6750    8.4210 C   0  0  0  0  0  0  0  0  0  0  0  0
   24.2890   13.2720    9.7160 C   0  0  0  0  0  0  0  0  0  0  0  0
   24.4720   14.2780   10.6800 C   0  0  0  0  0  0  0  0  0  0  0  0
   24.7990   14.3250   12.0580 C   0  0  0  0  0  0  0  0  0  0  0  0
   24.8210   15.6610   12.4180 C   0  0  0  0  0  0  0  0  0  0  0  0
   25.0930   16.2950   13.6880 C   0  0  0  0  0  0  0  0  0  0  0  0
   25.2080   15.6780   14.7430 O   0  0  0  0  0  0  0  0  0  0  0  0
   25.2060   17.6650   13.6260 N   0  0  0  0  0  0  0  0  0  0  0  0
   25.3370   18.4880   14.8150 C   0  0  1  0  0  0  0  0  0  0  0  0
   26.3390   17.9020   15.8060 C   0  0  0  0  0  0  0  0  0  0  0  0
   26.4510   18.8180   17.0150 C   0  0  0  0  0  0  0  0  0  0  0  0
   26.8220   20.2240   16.6060 C   0  0  0  0  0  0  0  0  0  0  0  0
   27.5100   20.9550   17.3140 O   0  0  0  0  0  0  0  0  0  0  0  0
   26.3210   20.6680   15.4100 N   0  0  0  0  0  0  0  0  0  0  0  0
   25.7990   19.8900   14.4060 C   0  0  0  0  0  0  0  0  0  0  0  0
   25.6970   20.3190   13.2570 O   0  0  0  0  0  0  0  0  0  0  0  0
   24.5240   16.4390   11.3310 O   0  0  0  0  0  0  0  0  0  0  0  0
   24.3140   15.6050   10.2780 C   0  0  0  0  0  0  0  0  0  0  0  0
   24.0030   16.0500    9.0480 N   0  0  0  0  0  0  0  0  0  0  0  0
   20.9290   15.7700    5.5460 C   0  0  0  0  0  0  0  0  0  0  0  0
   19.7570   16.3010    5.8230 N   0  0  0  0  0  0  0  0  0  0  0  0
   18.9504   19.6134    8.5356 H   0  0  0  0  0  0  0  0  0  0  0  0
   19.8320   19.3891    6.9867 H   0  0  0  0  0  0  0  0  0  0  0  0
   18.0430   19.5504    6.9867 H   0  0  0  0  0  0  0  0  0  0  0  0
   18.7368   17.3921    8.7477 H   0  0  0  0  0  0  0  0  0  0  0  0
   17.8505   17.3405    7.1625 H   0  0  0  0  0  0  0  0  0  0  0  0
   21.6293   17.1257    8.4581 H   0  0  0  0  0  0  0  0  0  0  0  0
   23.8018   12.9343    7.6233 H   0  0  0  0  0  0  0  0  0  0  0  0
   24.4007   12.2081    9.9722 H   0  0  0  0  0  0  0  0  0  0  0  0
   24.9972   13.4652   12.7149 H   0  0  0  0  0  0  0  0  0  0  0  0
   25.1973   18.1229   12.7034 H   0  0  0  0  0  0  0  0  0  0  0  0
   24.3550   18.5281   15.3090 H   0  0  0  0  0  0  0  0  0  0  0  0
   25.9963   16.9081   16.1295 H   0  0  0  0  0  0  0  0  0  0  0  0
   27.3228   17.8111   15.3224 H   0  0  0  0  0  0  0  0  0  0  0  0
   25.4837   18.8405   17.5383 H   0  0  0  0  0  0  0  0  0  0  0  0
   27.2410   18.4282   17.6738 H   0  0  0  0  0  0  0  0  0  0  0  0
   26.3377   21.6851   15.2484 H   0  0  0  0  0  0  0  0  0  0  0  0
   21.1644   15.2187    4.6237 H   0  0  0  0  0  0  0  0  0  0  0  0
  1  2  1  0
  2  3  1  0
  3  4  2  0
  4  5  1  0
  5  6  1  0
  6  7  2  0
  6  8  2  0
  6  9  1  0
  9 10  2  0
 10 11  1  0
 11 12  2  0
 12 13  1  0
 13 14  2  0
 14 15  1  0
 15 16  2  0
 15 17  1  0
 17 18  1  0
 18 19  1  0
 19 20  1  0
 20 21  1  0
 21 22  2  0
 21 23  1  0
 23 24  1  0
 24 25  2  0
 14 26  1  0
 26 27  1  0
 27 28  2  0
  5 29  1  0
 29 30  2  0
 30  3  1  0
 28  9  1  0
 27 12  1  0
 24 18  1  0
  1 31  1  0
  1 32  1  0
  1 33  1  0
  2 34  1  0
  2 35  1  0
  4 36  1  0
 10 37  1  0
 11 38  1  0
 13 39  1  0
 17 40  1  0
 18 41  1  1
 19 42  1  0
 19 43  1  0
 20 44  1  0
 20 45  1  0
 23 46  1  0
 29 47  1  0
M  END
>  <meeko>  (514) 
{"is_sidechain": [true], "free_energy": -10.75, "intermolecular_energy": 0.0, "internal_energy": -10.75, "cluster_size": 20, "cluster_id": 1, "rank_in_cluster": 1}

>  <_RMSD_MCS_to_ref>  (514) 
0.5735696218517075

$$$$
ligand
     RDKit          3D

 47 50  0  0  0  0  0  0  0  0999 V2000
   18.9090   19.1540    7.5370 C   0  0  0  0  0  0  0  0  0  0  0  0
   18.7730   17.6460    7.6780 C   0  0  0  0  0  0  0  0  0  0  0  0
   20.0920   16.9580    7.6480 C   0  0  0  0  0  0  0  0  0  0  0  0
   21.0210   16.8140    8.6590 C   0  0  0  0  0  0  0  0  0  0  0  0
   22.0460   16.1240    8.0780 N   0  0  0  0  0  0  0  0  0  0  0  0
   23.3380   15.4080    8.8960 S   0  0  0  0  0  6  0  0  0  0  0  0
   24.4310   16.3510    8.7480 O   0  0  0  0  0  0  0  0  0  0  0  0
   23.4250   14.0720    8.3330 O   0  0  0  0  0  0  0  0  0  0  0  0
   22.8720   15.3180   10.5770 C   0  0  0  0  0  0  0  0  0  0  0  0
   23.7420   15.8250   11.6390 C   0  0  0  0  0  0  0  0  0  0  0  0
   23.3830   15.7610   12.9430 C   0  0  0  0  0  0  0  0  0  0  0  0
   24.3250   16.3210   13.9650 C   0  0  0  0  0  0  0  0  0  0  0  0
   24.9220   15.5880   14.7500 O   0  0  0  0  0  0  0  0  0  0  0  0
   24.4800   17.6870   13.9540 N   0  0  0  0  0  0  0  0  0  0  0  0
   25.5900   18.3120   14.6550 C   0  0  2  0  0  0  0  0  0  0  0  0
   25.5380   17.9920   16.1440 C   0  0  0  0  0  0  0  0  0  0  0  0
   26.7060   18.6630   16.8480 C   0  0  0  0  0  0  0  0  0  0  0  0
   26.7200   20.1520   16.5930 C   0  0  0  0  0  0  0  0  0  0  0  0
   27.1150   20.9580   17.4300 O   0  0  0  0  0  0  0  0  0  0  0  0
   26.2940   20.5680   15.3570 N   0  0  0  0  0  0  0  0  0  0  0  0
   25.5380   19.8380   14.4700 C   0  0  0  0  0  0  0  0  0  0  0  0
   24.8850   20.4020   13.5940 O   0  0  0  0  0  0  0  0  0  0  0  0
   22.1320   15.1750   13.2860 C   0  0  0  0  0  0  0  0  0  0  0  0
   21.5150   14.9710   14.4330 N   0  0  0  0  0  0  0  0  0  0  0  0
   20.3160   14.3510   14.1650 N   0  0  0  0  0  0  0  0  0  0  0  0
   20.2250   14.1960   12.8630 C   0  0  0  0  0  0  0  0  0  0  0  0
   21.3400   14.6970   12.2540 N   0  0  0  0  0  0  0  0  0  0  0  0
   21.6910   14.7600   10.9090 C   0  0  0  0  0  0  0  0  0  0  0  0
   21.7090   15.8230    6.7970 C   0  0  0  0  0  0  0  0  0  0  0  0
   20.5310   16.3270    6.4990 N   0  0  0  0  0  0  0  0  0  0  0  0
   18.9504   19.6134    8.5356 H   0  0  0  0  0  0  0  0  0  0  0  0
   19.8320   19.3891    6.9867 H   0  0  0  0  0  0  0  0  0  0  0  0
   18.0430   19.5504    6.9867 H   0  0  0  0  0  0  0  0  0  0  0  0
   18.2786   17.4227    8.6349 H   0  0  0  0  0  0  0  0  0  0  0  0
   18.1810   17.2790    6.8266 H   0  0  0  0  0  0  0  0  0  0  0  0
   20.9513   17.1733    9.6963 H   0  0  0  0  0  0  0  0  0  0  0  0
   24.7120   16.2693   11.3711 H   0  0  0  0  0  0  0  0  0  0  0  0
   23.8035   18.2731   13.4444 H   0  0  0  0  0  0  0  0  0  0  0  0
   26.5254   17.9156   14.2334 H   0  0  0  0  0  0  0  0  0  0  0  0
   24.5928   18.3641   16.5661 H   0  0  0  0  0  0  0  0  0  0  0  0
   25.6003   16.9031   16.2872 H   0  0  0  0  0  0  0  0  0  0  0  0
   26.6214   18.4858   17.9303 H   0  0  0  0  0  0  0  0  0  0  0  0
   27.6400   18.2351   16.4548 H   0  0  0  0  0  0  0  0  0  0  0  0
   26.5664   21.5176   15.0656 H   0  0  0  0  0  0  0  0  0  0  0  0
   19.3758   13.7312   12.3407 H   0  0  0  0  0  0  0  0  0  0  0  0
   21.0192   14.3630   10.1337 H   0  0  0  0  0  0  0  0  0  0  0  0
   22.3340   15.2392    6.1052 H   0  0  0  0  0  0  0  0  0  0  0  0
  1  2  1  0
  2  3  1  0
  3  4  2  0
  4  5  1  0
  5  6  1  0
  6  7  2  0
  6  8  2  0
  6  9  1  0
  9 10  1  0
 10 11  2  0
 11 12  1  0
 12 13  2  0
 12 14  1  0
 14 15  1  0
 15 16  1  0
 16 17  1  0
 17 18  1  0
 18 19  2  0
 18 20  1  0
 20 21  1  0
 21 22  2  0
 11 23  1  0
 23 24  2  0
 24 25  1  0
 25 26  2  0
 26 27  1  0
 27 28  1  0
  5 29  1  0
 29 30  2  0
 30  3  1  0
 28  9  2  0
 21 15  1  0
 27 23  1  0
  1 31  1  0
  1 32  1  0
  1 33  1  0
  2 34  1  0
  2 35  1  0
  4 36  1  0
 10 37  1  0
 14 38  1  0
 15 39  1  6
 16 40  1  0
 16 41  1  0
 17 42  1  0
 17 43  1  0
 20 44  1  0
 26 45  1  0
 28 46  1  0
 29 47  1  0
M  END
>  <meeko>  (515) 
{"is_sidechain": [true], "free_energy": -10.75, "intermolecular_energy": 0.0, "internal_energy": -10.75, "cluster_size": 20, "cluster_id": 1, "rank_in_cluster": 1}

>  <_RMSD_MCS_to_ref>  (515) 
0.4936820839366163

$$$$
ligand
     RDKit          3D

 49 52  0  0  0  0  0  0  0  0999 V2000
   18.9090   19.1540    7.5370 C   0  0  0  0  0  0  0  0  0  0  0  0
   18.7730   17.6460    7.6780 C   0  0  0  0  0  0  0  0  0  0  0  0
   20.0930   16.9590    7.6700 C   0  0  0  0  0  0  0  0  0  0  0  0
   20.9610   16.7290    8.7200 C   0  0  0  0  0  0  0  0  0  0  0  0
   22.0010   16.0520    8.1520 N   0  0  0  0  0  0  0  0  0  0  0  0
   23.4430   15.6470    8.9070 S   0  0  0  0  0  6  0  0  0  0  0  0
   24.3010   16.8040    8.7470 O   0  0  0  0  0  0  0  0  0  0  0  0
   23.7930   14.3380    8.3920 O   0  0  0  0  0  0  0  0  0  0  0  0
   23.1380   15.4560   10.6430 C   0  0  0  0  0  0  0  0  0  0  0  0
   24.0180   15.9840   11.5910 C   0  0  0  0  0  0  0  0  0  0  0  0
   23.7400   15.8210   12.9510 C   0  0  0  0  0  0  0  0  0  0  0  0
   24.6990   16.3860   13.9390 C   0  0  0  0  0  0  0  0  0  0  0  0
   25.2780   15.6400   14.7180 O   0  0  0  0  0  0  0  0  0  0  0  0
   24.9160   17.7440   13.8980 N   0  0  0  0  0  0  0  0  0  0  0  0
   25.9380   18.3660   14.7300 C   0  0  2  0  0  0  0  0  0  0  0  0
   25.7560   18.0420   16.2090 C   0  0  0  0  0  0  0  0  0  0  0  0
   26.8260   18.7540   17.0210 C   0  0  0  0  0  0  0  0  0  0  0  0
   26.8080   20.2430   16.7660 C   0  0  0  0  0  0  0  0  0  0  0  0
   27.0860   21.0630   17.6360 O   0  0  0  0  0  0  0  0  0  0  0  0
   26.4920   20.6450   15.4930 N   0  0  0  0  0  0  0  0  0  0  0  0
   25.8620   19.8850   14.5400 C   0  0  0  0  0  0  0  0  0  0  0  0
   25.2840   20.4050   13.5860 O   0  0  0  0  0  0  0  0  0  0  0  0
   22.6000   15.1130   13.3460 C   0  0  0  0  0  0  0  0  0  0  0  0
   21.7140   14.5840   12.4200 C   0  0  0  0  0  0  0  0  0  0  0  0
   20.6470   13.9310   12.8920 N   0  0  0  0  0  0  0  0  0  0  0  0
   19.7910   13.4240   11.9950 C   0  0  0  0  0  0  0  0  0  0  0  0
   19.9090   13.5130   10.6690 N   0  0  0  0  0  0  0  0  0  0  0  0
   20.9960   14.1750   10.2250 C   0  0  0  0  0  0  0  0  0  0  0  0
   21.9700   14.7520   11.0520 C   0  0  0  0  0  0  0  0  0  0  0  0
   21.7700   15.9120    6.8210 C   0  0  0  0  0  0  0  0  0  0  0  0
   20.6160   16.4540    6.4960 N   0  0  0  0  0  0  0  0  0  0  0  0
   18.9504   19.6134    8.5356 H   0  0  0  0  0  0  0  0  0  0  0  0
   19.8320   19.3891    6.9867 H   0  0  0  0  0  0  0  0  0  0  0  0
   18.0430   19.5504    6.9867 H   0  0  0  0  0  0  0  0  0  0  0  0
   18.2637   17.4235    8.6273 H   0  0  0  0  0  0  0  0  0  0  0  0
   18.1954   17.2773    6.8175 H   0  0  0  0  0  0  0  0  0  0  0  0
   20.8412   17.0240    9.7729 H   0  0  0  0  0  0  0  0  0  0  0  0
   24.9215   16.5231   11.2699 H   0  0  0  0  0  0  0  0  0  0  0  0
   24.3476   18.3298   13.2698 H   0  0  0  0  0  0  0  0  0  0  0  0
   26.9167   17.9704   14.4208 H   0  0  0  0  0  0  0  0  0  0  0  0
   24.7618   18.3785   16.5381 H   0  0  0  0  0  0  0  0  0  0  0  0
   25.8448   16.9559   16.3593 H   0  0  0  0  0  0  0  0  0  0  0  0
   26.6451   18.5713   18.0905 H   0  0  0  0  0  0  0  0  0  0  0  0
   27.8087   18.3619   16.7202 H   0  0  0  0  0  0  0  0  0  0  0  0
   26.7516   21.6059   15.2282 H   0  0  0  0  0  0  0  0  0  0  0  0
   22.4014   14.9724   14.4187 H   0  0  0  0  0  0  0  0  0  0  0  0
   18.9140   12.8873   12.3859 H   0  0  0  0  0  0  0  0  0  0  0  0
   21.1282   14.2692    9.1370 H   0  0  0  0  0  0  0  0  0  0  0  0
   22.4515   15.4156    6.1145 H   0  0  0  0  0  0  0  0  0  0  0  0
  1  2  1  0
  2  3  1  0
  3  4  2  0
  4  5  1  0
  5  6  1  0
  6  7  2  0
  6  8  2  0
  6  9  1  0
  9 10  2  0
 10 11  1  0
 11 12  1  0
 12 13  2  0
 12 14  1  0
 14 15  1  0
 15 16  1  0
 16 17  1  0
 17 18  1  0
 18 19  2  0
 18 20  1  0
 20 21  1  0
 21 22  2  0
 11 23  2  0
 23 24  1  0
 24 25  2  0
 25 26  1  0
 26 27  2  0
 27 28  1  0
 28 29  2  0
  5 30  1  0
 30 31  2  0
 31  3  1  0
 29  9  1  0
 21 15  1  0
 29 24  1  0
  1 32  1  0
  1 33  1  0
  1 34  1  0
  2 35  1  0
  2 36  1  0
  4 37  1  0
 10 38  1  0
 14 39  1  0
 15 40  1  6
 16 41  1  0
 16 42  1  0
 17 43  1  0
 17 44  1  0
 20 45  1  0
 23 46  1  0
 26 47  1  0
 28 48  1  0
 30 49  1  0
M  END
>  <meeko>  (516) 
{"is_sidechain": [true], "free_energy": -10.75, "intermolecular_energy": 0.0, "internal_energy": -10.75, "cluster_size": 20, "cluster_id": 1, "rank_in_cluster": 1}

>  <_RMSD_MCS_to_ref>  (516) 
0.6927942615877302

$$$$
ligand
     RDKit          3D

 47 50  0  0  0  0  0  0  0  0999 V2000
   18.9090   19.1540    7.5370 C   0  0  0  0  0  0  0  0  0  0  0  0
   18.7730   17.6460    7.6780 C   0  0  0  0  0  0  0  0  0  0  0  0
   19.9870   16.9260    7.2040 C   0  0  0  0  0  0  0  0  0  0  0  0
   21.2030   16.7610    7.8380 C   0  0  0  0  0  0  0  0  0  0  0  0
   21.9510   16.0520    6.9420 N   0  0  0  0  0  0  0  0  0  0  0  0
   23.4630   15.3990    7.2310 S   0  0  0  0  0  6  0  0  0  0  0  0
   24.4320   16.3750    6.7580 O   0  0  0  0  0  0  0  0  0  0  0  0
   23.4330   14.0410    6.7210 O   0  0  0  0  0  0  0  0  0  0  0  0
   23.7040   15.2920    8.9750 C   0  0  0  0  0  0  0  0  0  0  0  0
   23.3600   14.2430    9.6560 N   0  0  0  0  0  0  0  0  0  0  0  0
   23.6270   14.3430   10.9850 C   0  0  0  0  0  0  0  0  0  0  0  0
   23.2650   13.0540   12.0330 S   0  0  0  0  0  0  0  0  0  0  0  0
   23.8600   13.9120   13.3780 C   0  0  0  0  0  0  0  0  0  0  0  0
   24.3280   15.1840   13.0730 C   0  0  0  0  0  0  0  0  0  0  0  0
   24.8500   16.0300   14.1570 C   0  0  0  0  0  0  0  0  0  0  0  0
   25.4310   15.5430   15.1250 O   0  0  0  0  0  0  0  0  0  0  0  0
   24.6440   17.3790   14.0630 N   0  0  0  0  0  0  0  0  0  0  0  0
   25.0740   18.3010   15.1020 C   0  0  1  0  0  0  0  0  0  0  0  0
   26.3240   17.7920   15.8120 C   0  0  0  0  0  0  0  0  0  0  0  0
   26.7490   18.7920   16.8740 C   0  0  0  0  0  0  0  0  0  0  0  0
   26.9650   20.1650   16.2810 C   0  0  0  0  0  0  0  0  0  0  0  0
   27.8040   20.9460   16.7180 O   0  0  0  0  0  0  0  0  0  0  0  0
   26.1460   20.5180   15.2380 N   0  0  0  0  0  0  0  0  0  0  0  0
   25.3610   19.6770   14.4870 C   0  0  0  0  0  0  0  0  0  0  0  0
   24.9050   20.0440   13.4050 O   0  0  0  0  0  0  0  0  0  0  0  0
   24.1970   15.4160   11.6500 C   0  0  0  0  0  0  0  0  0  0  0  0
   24.5660   16.5620   10.8360 C   0  0  0  0  0  0  0  0  0  0  0  0
   25.0810   17.5820   11.2760 O   0  0  0  0  0  0  0  0  0  0  0  0
   24.2880   16.4250    9.5000 N   0  0  0  0  0  0  0  0  0  0  0  0
   21.1880   15.7520    5.8610 C   0  0  0  0  0  0  0  0  0  0  0  0
   19.9930   16.2900    5.9790 N   0  0  0  0  0  0  0  0  0  0  0  0
   18.9504   19.6134    8.5356 H   0  0  0  0  0  0  0  0  0  0  0  0
   19.8320   19.3891    6.9867 H   0  0  0  0  0  0  0  0  0  0  0  0
   18.0430   19.5504    6.9867 H   0  0  0  0  0  0  0  0  0  0  0  0
   18.6078   17.4026    8.7379 H   0  0  0  0  0  0  0  0  0  0  0  0
   17.9245   17.3235    7.0567 H   0  0  0  0  0  0  0  0  0  0  0  0
   21.5004   17.1183    8.8349 H   0  0  0  0  0  0  0  0  0  0  0  0
   23.8727   13.4966   14.3965 H   0  0  0  0  0  0  0  0  0  0  0  0
   24.1690   17.7538   13.2294 H   0  0  0  0  0  0  0  0  0  0  0  0
   24.2642   18.3818   15.8421 H   0  0  0  0  0  0  0  0  0  0  0  0
   26.1069   16.8237   16.2867 H   0  0  0  0  0  0  0  0  0  0  0  0
   27.1358   17.6690   15.0799 H   0  0  0  0  0  0  0  0  0  0  0  0
   25.9646   18.8532   17.6428 H   0  0  0  0  0  0  0  0  0  0  0  0
   27.6982   18.4502   17.3124 H   0  0  0  0  0  0  0  0  0  0  0  0
   26.1168   21.5179   14.9926 H   0  0  0  0  0  0  0  0  0  0  0  0
   24.5250   17.1994    8.8636 H   0  0  0  0  0  0  0  0  0  0  0  0
   21.5213   15.1447    5.0065 H   0  0  0  0  0  0  0  0  0  0  0  0
  1  2  1  0
  2  3  1  0
  3  4  2  0
  4  5  1  0
  5  6  1  0
  6  7  2  0
  6  8  2  0
  6  9  1  0
  9 10  2  0
 10 11  1  0
 11 12  1  0
 12 13  1  0
 13 14  2  0
 14 15  1  0
 15 16  2  0
 15 17  1  0
 17 18  1  0
 18 19  1  0
 19 20  1  0
 20 21  1  0
 21 22  2  0
 21 23  1  0
 23 24  1  0
 24 25  2  0
 14 26  1  0
 26 27  1  0
 27 28  2  0
 27 29  1  0
  5 30  1  0
 30 31  2  0
 31  3  1  0
 29  9  1  0
 26 11  2  0
 24 18  1  0
  1 32  1  0
  1 33  1  0
  1 34  1  0
  2 35  1  0
  2 36  1  0
  4 37  1  0
 13 38  1  0
 17 39  1  0
 18 40  1  1
 19 41  1  0
 19 42  1  0
 20 43  1  0
 20 44  1  0
 23 45  1  0
 29 46  1  0
 30 47  1  0
M  END
>  <meeko>  (517) 
{"is_sidechain": [true], "free_energy": -10.75, "intermolecular_energy": 0.0, "internal_energy": -10.75, "cluster_size": 13, "cluster_id": 1, "rank_in_cluster": 1}

>  <_RMSD_MCS_to_ref>  (517) 
0.4401150102214446

$$$$
ligand
     RDKit          3D

 55 59  0  0  0  0  0  0  0  0999 V2000
   18.9090   19.1540    7.5370 C   0  0  0  0  0  0  0  0  0  0  0  0
   18.7730   17.6460    7.6780 C   0  0  0  0  0  0  0  0  0  0  0  0
   19.7180   16.9100    6.7950 C   0  0  0  0  0  0  0  0  0  0  0  0
   20.9990   16.4730    7.0730 C   0  0  0  0  0  0  0  0  0  0  0  0
   21.4020   15.8570    5.9220 N   0  0  0  0  0  0  0  0  0  0  0  0
   22.7950   14.9360    5.7270 S   0  0  0  0  0  6  0  0  0  0  0  0
   23.8960   15.8830    5.7350 O   0  0  0  0  0  0  0  0  0  0  0  0
   22.5310   14.0630    4.5970 O   0  0  0  0  0  0  0  0  0  0  0  0
   22.9000   13.9410    7.1880 C   0  0  0  0  0  0  0  0  0  0  0  0
   22.8260   12.5650    7.1010 C   0  0  0  0  0  0  0  0  0  0  0  0
   22.9040   11.8570    8.2920 C   0  0  0  0  0  0  0  0  0  0  0  0
   23.0570   12.5470    9.4990 C   0  0  0  0  0  0  0  0  0  0  0  0
   23.1340   13.9420    9.4960 C   0  0  0  0  0  0  0  0  0  0  0  0
   23.3060   14.7650   10.7150 C   0  0  0  0  0  0  0  0  0  0  0  0
   22.3600   14.7490   11.7770 C   0  0  0  0  0  0  0  0  0  0  0  0
   22.5350   15.5160   12.9370 C   0  0  0  0  0  0  0  0  0  0  0  0
   23.6690   16.2970   13.0190 C   0  0  0  0  0  0  0  0  0  0  0  0
   24.6210   16.3390   12.0100 C   0  0  0  0  0  0  0  0  0  0  0  0
   24.4530   15.5800   10.8620 C   0  0  0  0  0  0  0  0  0  0  0  0
   25.7420   17.2430   12.3940 C   0  0  0  0  0  0  0  0  0  0  0  0
   25.2940   17.7720   13.6780 N   0  0  0  0  0  0  0  0  0  0  0  0
   26.1690   18.4910   14.5950 C   0  0  2  0  0  0  0  0  0  0  0  0
   25.9510   18.0830   16.0500 C   0  0  0  0  0  0  0  0  0  0  0  0
   26.9560   18.8040   16.9330 C   0  0  0  0  0  0  0  0  0  0  0  0
   26.8700   20.3020   16.7490 C   0  0  0  0  0  0  0  0  0  0  0  0
   27.0640   21.0880   17.6710 O   0  0  0  0  0  0  0  0  0  0  0  0
   26.5870   20.7510   15.4840 N   0  0  0  0  0  0  0  0  0  0  0  0
   26.0070   20.0170   14.4740 C   0  0  0  0  0  0  0  0  0  0  0  0
   25.4120   20.5850   13.5610 O   0  0  0  0  0  0  0  0  0  0  0  0
   24.1170   17.1750   14.1060 C   0  0  0  0  0  0  0  0  0  0  0  0
   23.5420   17.3240   15.1660 O   0  0  0  0  0  0  0  0  0  0  0  0
   23.0460   14.6400    8.3400 N   0  0  0  0  0  0  0  0  0  0  0  0
   20.3920   15.9110    5.0140 C   0  0  0  0  0  0  0  0  0  0  0  0
   19.3530   16.5520    5.5100 N   0  0  0  0  0  0  0  0  0  0  0  0
   18.9504   19.6134    8.5356 H   0  0  0  0  0  0  0  0  0  0  0  0
   19.8320   19.3891    6.9867 H   0  0  0  0  0  0  0  0  0  0  0  0
   18.0430   19.5504    6.9867 H   0  0  0  0  0  0  0  0  0  0  0  0
   18.9758   17.3685    8.7229 H   0  0  0  0  0  0  0  0  0  0  0  0
   17.7503   17.3706    7.3811 H   0  0  0  0  0  0  0  0  0  0  0  0
   21.5654   16.5936    8.0082 H   0  0  0  0  0  0  0  0  0  0  0  0
   22.7107   12.0542    6.1336 H   0  0  0  0  0  0  0  0  0  0  0  0
   22.8458   10.7586    8.2868 H   0  0  0  0  0  0  0  0  0  0  0  0
   23.1165   11.9931   10.4475 H   0  0  0  0  0  0  0  0  0  0  0  0
   21.4649   14.1162   11.6853 H   0  0  0  0  0  0  0  0  0  0  0  0
   21.7958   15.4959   13.7514 H   0  0  0  0  0  0  0  0  0  0  0  0
   25.2113   15.6115   10.0657 H   0  0  0  0  0  0  0  0  0  0  0  0
   26.6841   16.6852   12.5005 H   0  0  0  0  0  0  0  0  0  0  0  0
   25.9525   18.0228   11.6473 H   0  0  0  0  0  0  0  0  0  0  0  0
   27.1915   18.2130   14.2996 H   0  0  0  0  0  0  0  0  0  0  0  0
   24.9306   18.3545   16.3582 H   0  0  0  0  0  0  0  0  0  0  0  0
   26.0869   16.9961   16.1509 H   0  0  0  0  0  0  0  0  0  0  0  0
   26.7494   18.5594   17.9854 H   0  0  0  0  0  0  0  0  0  0  0  0
   27.9669   18.4758   16.6496 H   0  0  0  0  0  0  0  0  0  0  0  0
   26.8312   21.7284   15.2699 H   0  0  0  0  0  0  0  0  0  0  0  0
   20.4359   15.4788    4.0034 H   0  0  0  0  0  0  0  0  0  0  0  0
  1  2  1  0
  2  3  1  0
  3  4  2  0
  4  5  1  0
  5  6  1  0
  6  7  2  0
  6  8  2  0
  6  9  1  0
  9 10  2  0
 10 11  1  0
 11 12  2  0
 12 13  1  0
 13 14  1  0
 14 15  2  0
 15 16  1  0
 16 17  2  0
 17 18  1  0
 18 19  2  0
 18 20  1  0
 20 21  1  0
 21 22  1  0
 22 23  1  0
 23 24  1  0
 24 25  1  0
 25 26  2  0
 25 27  1  0
 27 28  1  0
 28 29  2  0
 21 30  1  0
 30 31  2  0
 13 32  2  0
  5 33  1  0
 33 34  2  0
 34  3  1  0
 32  9  1  0
 19 14  1  0
 28 22  1  0
 30 17  1  0
  1 35  1  0
  1 36  1  0
  1 37  1  0
  2 38  1  0
  2 39  1  0
  4 40  1  0
 10 41  1  0
 11 42  1  0
 12 43  1  0
 15 44  1  0
 16 45  1  0
 19 46  1  0
 20 47  1  0
 20 48  1  0
 22 49  1  6
 23 50  1  0
 23 51  1  0
 24 52  1  0
 24 53  1  0
 27 54  1  0
 33 55  1  0
M  END
>  <meeko>  (518) 
{"is_sidechain": [true], "free_energy": -10.75, "intermolecular_energy": 0.0, "internal_energy": -10.75, "cluster_size": 20, "cluster_id": 1, "rank_in_cluster": 1}

>  <_RMSD_MCS_to_ref>  (518) 
1.2238431272021753

$$$$
ligand
     RDKit          3D

 54 58  0  0  0  0  0  0  0  0999 V2000
   18.7970   18.8160    7.7190 C   0  0  0  0  0  0  0  0  0  0  0  0
   18.5280   17.3300    7.8810 C   0  0  0  0  0  0  0  0  0  0  0  0
   19.7640   16.5520    8.1710 C   0  0  0  0  0  0  0  0  0  0  0  0
   20.2920   16.1830    9.3930 C   0  0  0  0  0  0  0  0  0  0  0  0
   21.4440   15.5270    9.0730 N   0  0  0  0  0  0  0  0  0  0  0  0
   22.4980   14.7730   10.1300 S   0  0  0  0  0  6  0  0  0  0  0  0
   23.5660   15.7080   10.4230 O   0  0  0  0  0  0  0  0  0  0  0  0
   22.7400   13.4510    9.5860 O   0  0  0  0  0  0  0  0  0  0  0  0
   21.6960   14.4650   11.6750 C   0  0  0  0  0  0  0  0  0  0  0  0
   20.3310   14.2730   11.6930 N   0  0  0  0  0  0  0  0  0  0  0  0
   19.8730   14.0880   12.9730 C   0  0  0  0  0  0  0  0  0  0  0  0
   18.5720   13.8810   13.4450 C   0  0  0  0  0  0  0  0  0  0  0  0
   18.4010   13.7180   14.8220 C   0  0  0  0  0  0  0  0  0  0  0  0
   19.4900   13.7610   15.6900 C   0  0  0  0  0  0  0  0  0  0  0  0
   20.7840   13.9700   15.2010 C   0  0  0  0  0  0  0  0  0  0  0  0
   20.9830   14.1410   13.8150 C   0  0  0  0  0  0  0  0  0  0  0  0
   22.1270   14.3660   12.9900 C   0  0  0  0  0  0  0  0  0  0  0  0
   23.5140   14.5110   13.3860 C   0  0  0  0  0  0  0  0  0  0  0  0
   24.3830   13.4260   13.2800 C   0  0  0  0  0  0  0  0  0  0  0  0
   25.7060   13.5640   13.6850 C   0  0  0  0  0  0  0  0  0  0  0  0
   26.1600   14.7820   14.2010 C   0  0  0  0  0  0  0  0  0  0  0  0
   25.3080   15.8890   14.3240 C   0  0  0  0  0  0  0  0  0  0  0  0
   25.7750   17.1340   14.8670 N   0  0  0  0  0  0  0  0  0  0  0  0
   26.5360   17.1370   16.1140 C   0  0  0  0  0  0  0  0  0  0  0  0
   26.2180   18.3650   16.9390 C   0  0  0  0  0  0  0  0  0  0  0  0
   26.4270   19.5900   16.1050 C   0  0  0  0  0  0  0  0  0  0  0  0
   26.6530   20.6920   16.5950 O   0  0  0  0  0  0  0  0  0  0  0  0
   26.2600   19.4250   14.7580 N   0  0  0  0  0  0  0  0  0  0  0  0
   25.7480   18.3190   14.1220 C   0  0  0  0  0  0  0  0  0  0  0  0
   25.3330   18.4540   12.9740 O   0  0  0  0  0  0  0  0  0  0  0  0
   23.9820   15.7360   13.8880 C   0  0  0  0  0  0  0  0  0  0  0  0
   21.5720   15.4780    7.7230 C   0  0  0  0  0  0  0  0  0  0  0  0
   20.5670   16.0980    7.1410 N   0  0  0  0  0  0  0  0  0  0  0  0
   18.8816   19.2836    8.7111 H   0  0  0  0  0  0  0  0  0  0  0  0
   19.7359   18.9603    7.1643 H   0  0  0  0  0  0  0  0  0  0  0  0
   17.9683   19.2803    7.1643 H   0  0  0  0  0  0  0  0  0  0  0  0
   17.8200   17.1887    8.7110 H   0  0  0  0  0  0  0  0  0  0  0  0
   18.1175   16.9604    6.9298 H   0  0  0  0  0  0  0  0  0  0  0  0
   19.8783   16.3743   10.3941 H   0  0  0  0  0  0  0  0  0  0  0  0
   19.7328   14.2690   10.8546 H   0  0  0  0  0  0  0  0  0  0  0  0
   17.7147   13.8478   12.7566 H   0  0  0  0  0  0  0  0  0  0  0  0
   17.3916   13.5533   15.2269 H   0  0  0  0  0  0  0  0  0  0  0  0
   19.3308   13.6293   16.7704 H   0  0  0  0  0  0  0  0  0  0  0  0
   21.6395   14.0007   15.8918 H   0  0  0  0  0  0  0  0  0  0  0  0
   24.0243   12.4668   12.8785 H   0  0  0  0  0  0  0  0  0  0  0  0
   26.3975   12.7128   13.5993 H   0  0  0  0  0  0  0  0  0  0  0  0
   27.2094   14.8738   14.5176 H   0  0  0  0  0  0  0  0  0  0  0  0
   26.2805   16.2378   16.6938 H   0  0  0  0  0  0  0  0  0  0  0  0
   27.6087   17.1459   15.8705 H   0  0  0  0  0  0  0  0  0  0  0  0
   25.1707   18.3222   17.2727 H   0  0  0  0  0  0  0  0  0  0  0  0
   26.8797   18.4001   17.8170 H   0  0  0  0  0  0  0  0  0  0  0  0
   26.5476   20.2109   14.1575 H   0  0  0  0  0  0  0  0  0  0  0  0
   23.2955   16.5938   13.9408 H   0  0  0  0  0  0  0  0  0  0  0  0
   22.4000   14.9885    7.1893 H   0  0  0  0  0  0  0  0  0  0  0  0
  1  2  1  0
  2  3  1  0
  3  4  2  0
  4  5  1  0
  5  6  1  0
  6  7  2  0
  6  8  2  0
  6  9  1  0
  9 10  1  0
 10 11  1  0
 11 12  2  0
 12 13  1  0
 13 14  2  0
 14 15  1  0
 15 16  2  0
 16 17  1  0
 17 18  1  0
 18 19  2  0
 19 20  1  0
 20 21  2  0
 21 22  1  0
 22 23  1  0
 23 24  1  0
 24 25  1  0
 25 26  1  0
 26 27  2  0
 26 28  1  0
 28 29  1  0
 29 30  2  0
 22 31  2  0
  5 32  1  0
 32 33  2  0
 33  3  1  0
 17  9  2  0
 31 18  1  0
 16 11  1  0
 29 23  1  0
  1 34  1  0
  1 35  1  0
  1 36  1  0
  2 37  1  0
  2 38  1  0
  4 39  1  0
 10 40  1  0
 12 41  1  0
 13 42  1  0
 14 43  1  0
 15 44  1  0
 19 45  1  0
 20 46  1  0
 21 47  1  0
 24 48  1  0
 24 49  1  0
 25 50  1  0
 25 51  1  0
 28 52  1  0
 31 53  1  0
 32 54  1  0
M  END
>  <meeko>  (519) 
{"is_sidechain": [true], "free_energy": -10.74, "intermolecular_energy": 0.0, "internal_energy": -10.74, "cluster_size": 14, "cluster_id": 1, "rank_in_cluster": 1}

>  <_RMSD_MCS_to_ref>  (519) 
1.1714542778102783

$$$$
ligand
     RDKit          3D

 53 57  0  0  0  0  0  0  0  0999 V2000
   18.9090   19.1540    7.5370 C   0  0  0  0  0  0  0  0  0  0  0  0
   18.7730   17.6460    7.6780 C   0  0  0  0  0  0  0  0  0  0  0  0
   20.0660   16.9960    8.0290 C   0  0  0  0  0  0  0  0  0  0  0  0
   20.9860   16.3930    7.1960 C   0  0  0  0  0  0  0  0  0  0  0  0
   21.9930   16.0000    8.0310 N   0  0  0  0  0  0  0  0  0  0  0  0
   23.2560   14.9800    7.6130 S   0  0  0  0  0  6  0  0  0  0  0  0
   23.5720   15.2580    6.2260 O   0  0  0  0  0  0  0  0  0  0  0  0
   22.8640   13.6620    8.0780 O   0  0  0  0  0  0  0  0  0  0  0  0
   24.6490   15.4670    8.5510 C   0  0  0  0  0  0  0  0  0  0  0  0
   25.8400   15.7770    7.9970 N   0  0  0  0  0  0  0  0  0  0  0  0
   26.6270   16.0610    9.0460 N   0  0  0  0  0  0  0  0  0  0  0  0
   26.0100   15.8900   10.2490 C   0  0  0  0  0  0  0  0  0  0  0  0
   24.7160   15.5020    9.9700 C   0  0  0  0  0  0  0  0  0  0  0  0
   23.7490   15.2260   11.0050 C   0  0  0  0  0  0  0  0  0  0  0  0
   22.9060   14.1080   10.9080 C   0  0  0  0  0  0  0  0  0  0  0  0
   21.9590   13.8210   11.9100 C   0  0  0  0  0  0  0  0  0  0  0  0
   21.8360   14.6480   13.0250 C   0  0  0  0  0  0  0  0  0  0  0  0
   22.6710   15.7470   13.0960 C   0  0  0  0  0  0  0  0  0  0  0  0
   23.6180   16.0480   12.1160 C   0  0  0  0  0  0  0  0  0  0  0  0
   24.3690   17.2810   12.5020 C   0  0  0  0  0  0  0  0  0  0  0  0
   23.7570   17.6460   13.7720 N   0  0  0  0  0  0  0  0  0  0  0  0
   24.3480   18.5970   14.7090 C   0  0  1  0  0  0  0  0  0  0  0  0
   25.3830   17.9080   15.6000 C   0  0  0  0  0  0  0  0  0  0  0  0
   25.9130   18.8840   16.6360 C   0  0  0  0  0  0  0  0  0  0  0  0
   26.4890   20.1110   15.9750 C   0  0  0  0  0  0  0  0  0  0  0  0
   27.4670   20.7050   16.4190 O   0  0  0  0  0  0  0  0  0  0  0  0
   25.8450   20.5580   14.8490 N   0  0  0  0  0  0  0  0  0  0  0  0
   24.9880   19.8330   14.0530 C   0  0  0  0  0  0  0  0  0  0  0  0
   24.7630   20.2030   12.9020 O   0  0  0  0  0  0  0  0  0  0  0  0
   22.7800   16.7450   14.1630 C   0  0  0  0  0  0  0  0  0  0  0  0
   22.1490   16.7290   15.2030 O   0  0  0  0  0  0  0  0  0  0  0  0
   21.6580   16.3190    9.3080 C   0  0  0  0  0  0  0  0  0  0  0  0
   20.4850   16.9180    9.3430 N   0  0  0  0  0  0  0  0  0  0  0  0
   18.9504   19.6134    8.5356 H   0  0  0  0  0  0  0  0  0  0  0  0
   19.8320   19.3891    6.9867 H   0  0  0  0  0  0  0  0  0  0  0  0
   18.0430   19.5504    6.9867 H   0  0  0  0  0  0  0  0  0  0  0  0
   18.0407   17.4286    8.4695 H   0  0  0  0  0  0  0  0  0  0  0  0
   18.4447   17.2439    6.7082 H   0  0  0  0  0  0  0  0  0  0  0  0
   20.9228   16.2591    6.1060 H   0  0  0  0  0  0  0  0  0  0  0  0
   27.6026   16.3775    8.9512 H   0  0  0  0  0  0  0  0  0  0  0  0
   26.4553   16.0330   11.2446 H   0  0  0  0  0  0  0  0  0  0  0  0
   22.9864   13.4446   10.0343 H   0  0  0  0  0  0  0  0  0  0  0  0
   21.3114   12.9373   11.8119 H   0  0  0  0  0  0  0  0  0  0  0  0
   21.1033   14.4345   13.8172 H   0  0  0  0  0  0  0  0  0  0  0  0
   25.4415   17.0697   12.6250 H   0  0  0  0  0  0  0  0  0  0  0  0
   24.3147   18.0789   11.7467 H   0  0  0  0  0  0  0  0  0  0  0  0
   23.5011   18.9646   15.3070 H   0  0  0  0  0  0  0  0  0  0  0  0
   24.9128   17.0549   16.1110 H   0  0  0  0  0  0  0  0  0  0  0  0
   26.2181   17.5569   14.9761 H   0  0  0  0  0  0  0  0  0  0  0  0
   25.0900   19.1858   17.3005 H   0  0  0  0  0  0  0  0  0  0  0  0
   26.7091   18.3882   17.2107 H   0  0  0  0  0  0  0  0  0  0  0  0
   26.0206   21.5343   14.5716 H   0  0  0  0  0  0  0  0  0  0  0  0
   22.2796   16.1068   10.1904 H   0  0  0  0  0  0  0  0  0  0  0  0
  1  2  1  0
  2  3  1  0
  3  4  2  0
  4  5  1  0
  5  6  1  0
  6  7  2  0
  6  8  2  0
  6  9  1  0
  9 10  2  0
 10 11  1  0
 11 12  1  0
 12 13  2  0
 13 14  1  0
 14 15  2  0
 15 16  1  0
 16 17  2  0
 17 18  1  0
 18 19  2  0
 19 20  1  0
 20 21  1  0
 21 22  1  0
 22 23  1  0
 23 24  1  0
 24 25  1  0
 25 26  2  0
 25 27  1  0
 27 28  1  0
 28 29  2  0
 21 30  1  0
 30 31  2  0
  5 32  1  0
 32 33  2  0
 33  3  1  0
 13  9  1  0
 19 14  1  0
 28 22  1  0
 30 18  1  0
  1 34  1  0
  1 35  1  0
  1 36  1  0
  2 37  1  0
  2 38  1  0
  4 39  1  0
 11 40  1  0
 12 41  1  0
 15 42  1  0
 16 43  1  0
 17 44  1  0
 20 45  1  0
 20 46  1  0
 22 47  1  1
 23 48  1  0
 23 49  1  0
 24 50  1  0
 24 51  1  0
 27 52  1  0
 32 53  1  0
M  END
>  <meeko>  (520) 
{"is_sidechain": [true], "free_energy": -10.74, "intermolecular_energy": 0.0, "internal_energy": -10.74, "cluster_size": 16, "cluster_id": 1, "rank_in_cluster": 1}

>  <_RMSD_MCS_to_ref>  (520) 
1.4891891529732997

$$$$
ligand
     RDKit          3D

 56 60  0  0  0  0  0  0  0  0999 V2000
   18.7970   18.8170    7.7190 C   0  0  0  0  0  0  0  0  0  0  0  0
   18.5280   17.3290    7.8810 C   0  0  0  0  0  0  0  0  0  0  0  0
   19.7590   16.5120    7.7070 C   0  0  0  0  0  0  0  0  0  0  0  0
   20.4370   15.7530    8.6410 C   0  0  0  0  0  0  0  0  0  0  0  0
   21.4780   15.2160    7.9410 N   0  0  0  0  0  0  0  0  0  0  0  0
   22.6780   14.2240    8.5770 S   0  0  0  0  0  6  0  0  0  0  0  0
   23.4700   15.0710    9.4500 O   0  0  0  0  0  0  0  0  0  0  0  0
   23.2820   13.6300    7.3930 O   0  0  0  0  0  0  0  0  0  0  0  0
   21.9130   12.9170    9.4880 C   0  0  0  0  0  0  0  0  0  0  0  0
   20.9540   12.1530    8.8330 N   0  0  0  0  0  0  0  0  0  0  0  0
   20.2700   11.1070    9.3840 C   0  0  0  0  0  0  0  0  0  0  0  0
   19.4230   10.4680    8.7730 O   0  0  0  0  0  0  0  0  0  0  0  0
   20.6100   10.7910   10.7860 C   0  0  0  0  0  0  0  0  0  0  0  0
   21.5340   11.5240   11.4210 C   0  0  0  0  0  0  0  0  0  0  0  0
   22.2300   12.6410   10.7760 C   0  0  0  0  0  0  0  0  0  0  0  0
   23.2230   13.3970   11.5660 C   0  0  0  0  0  0  0  0  0  0  0  0
   24.5960   13.0780   11.4480 C   0  0  0  0  0  0  0  0  0  0  0  0
   25.5690   13.7760   12.1740 C   0  0  0  0  0  0  0  0  0  0  0  0
   25.1530   14.8040   12.9990 C   0  0  0  0  0  0  0  0  0  0  0  0
   23.8020   15.1330   13.0840 C   0  0  0  0  0  0  0  0  0  0  0  0
   22.8190   14.4610   12.3820 C   0  0  0  0  0  0  0  0  0  0  0  0
   23.6660   16.2660   14.0040 C   0  0  0  0  0  0  0  0  0  0  0  0
   22.6260   16.8470   14.2470 O   0  0  0  0  0  0  0  0  0  0  0  0
   24.9310   16.5270   14.5100 N   0  0  0  0  0  0  0  0  0  0  0  0
   25.2220   17.7400   15.2620 C   0  0  1  0  0  0  0  0  0  0  0  0
   26.0820   17.4720   16.4930 C   0  0  0  0  0  0  0  0  0  0  0  0
   26.2700   18.7660   17.2710 C   0  0  0  0  0  0  0  0  0  0  0  0
   26.8560   19.8490   16.3950 C   0  0  0  0  0  0  0  0  0  0  0  0
   27.6560   20.6760   16.8200 O   0  0  0  0  0  0  0  0  0  0  0  0
   26.4370   19.8760   15.0890 N   0  0  0  0  0  0  0  0  0  0  0  0
   25.9100   18.8100   14.3960 C   0  0  0  0  0  0  0  0  0  0  0  0
   26.0130   18.7530   13.1730 O   0  0  0  0  0  0  0  0  0  0  0  0
   25.9560   15.7130   13.8700 C   0  0  0  0  0  0  0  0  0  0  0  0
   21.4050   15.6180    6.6460 C   0  0  0  0  0  0  0  0  0  0  0  0
   20.3810   16.4320    6.4770 N   0  0  0  0  0  0  0  0  0  0  0  0
   18.8815   19.2845    8.7111 H   0  0  0  0  0  0  0  0  0  0  0  0
   19.7359   18.9616    7.1643 H   0  0  0  0  0  0  0  0  0  0  0  0
   17.9682   19.2812    7.1643 H   0  0  0  0  0  0  0  0  0  0  0  0
   18.1237   17.1499    8.8882 H   0  0  0  0  0  0  0  0  0  0  0  0
   17.8114   17.0291    7.1021 H   0  0  0  0  0  0  0  0  0  0  0  0
   20.1937   15.6135    9.7046 H   0  0  0  0  0  0  0  0  0  0  0  0
   20.7424   12.3949    7.8544 H   0  0  0  0  0  0  0  0  0  0  0  0
   20.1086    9.9605   11.3045 H   0  0  0  0  0  0  0  0  0  0  0  0
   21.7794   11.2786   12.4648 H   0  0  0  0  0  0  0  0  0  0  0  0
   24.9053   12.2663   10.7732 H   0  0  0  0  0  0  0  0  0  0  0  0
   26.6340   13.5137   12.0901 H   0  0  0  0  0  0  0  0  0  0  0  0
   21.7608   14.7507   12.4612 H   0  0  0  0  0  0  0  0  0  0  0  0
   24.2427   18.1181   15.5904 H   0  0  0  0  0  0  0  0  0  0  0  0
   25.5848   16.7282   17.1329 H   0  0  0  0  0  0  0  0  0  0  0  0
   27.0633   17.0871   16.1784 H   0  0  0  0  0  0  0  0  0  0  0  0
   25.2939   19.1011   17.6516 H   0  0  0  0  0  0  0  0  0  0  0  0
   26.9651   18.5754   18.1020 H   0  0  0  0  0  0  0  0  0  0  0  0
   26.5242   20.7697   14.5843 H   0  0  0  0  0  0  0  0  0  0  0  0
   26.6402   16.3335   13.2725 H   0  0  0  0  0  0  0  0  0  0  0  0
   26.5997   15.1787   14.5843 H   0  0  0  0  0  0  0  0  0  0  0  0
   22.1003   15.3090    5.8516 H   0  0  0  0  0  0  0  0  0  0  0  0
  1  2  1  0
  2  3  1  0
  3  4  2  0
  4  5  1  0
  5  6  1  0
  6  7  2  0
  6  8  2  0
  6  9  1  0
  9 10  1  0
 10 11  1  0
 11 12  2  0
 11 13  1  0
 13 14  2  0
 14 15  1  0
 15 16  1  0
 16 17  2  0
 17 18  1  0
 18 19  2  0
 19 20  1  0
 20 21  2  0
 20 22  1  0
 22 23  2  0
 22 24  1  0
 24 25  1  0
 25 26  1  0
 26 27  1  0
 27 28  1  0
 28 29  2  0
 28 30  1  0
 30 31  1  0
 31 32  2  0
 24 33  1  0
  5 34  1  0
 34 35  2  0
 35  3  1  0
 15  9  2  0
 21 16  1  0
 31 25  1  0
 33 19  1  0
  1 36  1  0
  1 37  1  0
  1 38  1  0
  2 39  1  0
  2 40  1  0
  4 41  1  0
 10 42  1  0
 13 43  1  0
 14 44  1  0
 17 45  1  0
 18 46  1  0
 21 47  1  0
 25 48  1  1
 26 49  1  0
 26 50  1  0
 27 51  1  0
 27 52  1  0
 30 53  1  0
 33 54  1  0
 33 55  1  0
 34 56  1  0
M  END
>  <meeko>  (521) 
{"is_sidechain": [true], "free_energy": -10.73, "intermolecular_energy": 0.0, "internal_energy": -10.73, "cluster_size": 20, "cluster_id": 1, "rank_in_cluster": 1}

>  <_RMSD_MCS_to_ref>  (521) 
1.3059369135690373

$$$$
ligand
     RDKit          3D

 48 51  0  0  0  0  0  0  0  0999 V2000
   18.7970   18.8170    7.7190 C   0  0  0  0  0  0  0  0  0  0  0  0
   18.5280   17.3290    7.8810 C   0  0  0  0  0  0  0  0  0  0  0  0
   19.7840   16.5310    7.9120 C   0  0  0  0  0  0  0  0  0  0  0  0
   20.4960   16.0740    9.0040 C   0  0  0  0  0  0  0  0  0  0  0  0
   21.5590   15.4150    8.4570 N   0  0  0  0  0  0  0  0  0  0  0  0
   22.6560   14.4600    9.2960 S   0  0  0  0  0  6  0  0  0  0  0  0
   23.7790   15.3300    9.5980 O   0  0  0  0  0  0  0  0  0  0  0  0
   22.7950   13.2340    8.5360 O   0  0  0  0  0  0  0  0  0  0  0  0
   21.8270   14.0940   10.8110 C   0  0  0  0  0  0  0  0  0  0  0  0
   20.6070   13.4160   10.7850 C   0  0  0  0  0  0  0  0  0  0  0  0
   19.9690   13.1470   11.9860 C   0  0  0  0  0  0  0  0  0  0  0  0
   20.4280   13.4830   13.2080 N   0  0  0  0  0  0  0  0  0  0  0  0
   21.6220   14.1180   13.2230 C   0  0  0  0  0  0  0  0  0  0  0  0
   22.3710   14.5840   14.3290 C   0  0  0  0  0  0  0  0  0  0  0  0
   23.5350   15.1640   13.8470 C   0  0  0  0  0  0  0  0  0  0  0  0
   24.6550   15.7910   14.5090 C   0  0  0  0  0  0  0  0  0  0  0  0
   25.5740   15.1410   14.9950 O   0  0  0  0  0  0  0  0  0  0  0  0
   24.6290   17.1620   14.5460 N   0  0  0  0  0  0  0  0  0  0  0  0
   25.7510   17.9350   15.0560 C   0  0  2  0  0  0  0  0  0  0  0  0
   25.8920   17.8180   16.5710 C   0  0  0  0  0  0  0  0  0  0  0  0
   27.0570   18.6770   17.0390 C   0  0  0  0  0  0  0  0  0  0  0  0
   26.8940   20.1120   16.5970 C   0  0  0  0  0  0  0  0  0  0  0  0
   27.2870   21.0580   17.2730 O   0  0  0  0  0  0  0  0  0  0  0  0
   26.3030   20.3160   15.3750 N   0  0  0  0  0  0  0  0  0  0  0  0
   25.5370   19.4070   14.6900 C   0  0  0  0  0  0  0  0  0  0  0  0
   24.7370   19.7690   13.8280 O   0  0  0  0  0  0  0  0  0  0  0  0
   23.4940   15.0400   12.4720 N   0  0  0  0  0  0  0  0  0  0  0  0
   22.3320   14.4240   12.0710 C   0  0  0  0  0  0  0  0  0  0  0  0
   21.4560   15.4470    7.1040 C   0  0  0  0  0  0  0  0  0  0  0  0
   20.3890   16.1260    6.7390 N   0  0  0  0  0  0  0  0  0  0  0  0
   18.8815   19.2845    8.7111 H   0  0  0  0  0  0  0  0  0  0  0  0
   19.7359   18.9616    7.1643 H   0  0  0  0  0  0  0  0  0  0  0  0
   17.9682   19.2812    7.1643 H   0  0  0  0  0  0  0  0  0  0  0  0
   17.9826   17.1680    8.8226 H   0  0  0  0  0  0  0  0  0  0  0  0
   17.9376   16.9962    7.0146 H   0  0  0  0  0  0  0  0  0  0  0  0
   20.2604   16.2099   10.0698 H   0  0  0  0  0  0  0  0  0  0  0  0
   20.1606   13.1013    9.8302 H   0  0  0  0  0  0  0  0  0  0  0  0
   19.0076   12.6147   11.9377 H   0  0  0  0  0  0  0  0  0  0  0  0
   22.0808   14.5008   15.3868 H   0  0  0  0  0  0  0  0  0  0  0  0
   23.7932   17.6572   14.2037 H   0  0  0  0  0  0  0  0  0  0  0  0
   26.6713   17.5382   14.6026 H   0  0  0  0  0  0  0  0  0  0  0  0
   24.9653   18.1625   17.0533 H   0  0  0  0  0  0  0  0  0  0  0  0
   26.0779   16.7683   16.8423 H   0  0  0  0  0  0  0  0  0  0  0  0
   27.1078   18.6441   18.1373 H   0  0  0  0  0  0  0  0  0  0  0  0
   27.9814   18.2799   16.5942 H   0  0  0  0  0  0  0  0  0  0  0  0
   26.4477   21.2347   14.9322 H   0  0  0  0  0  0  0  0  0  0  0  0
   24.2339   15.3650   11.8334 H   0  0  0  0  0  0  0  0  0  0  0  0
   22.1648   14.9721    6.4098 H   0  0  0  0  0  0  0  0  0  0  0  0
  1  2  1  0
  2  3  1  0
  3  4  2  0
  4  5  1  0
  5  6  1  0
  6  7  2  0
  6  8  2  0
  6  9  1  0
  9 10  2  0
 10 11  1  0
 11 12  2  0
 12 13  1  0
 13 14  1  0
 14 15  2  0
 15 16  1  0
 16 17  2  0
 16 18  1  0
 18 19  1  0
 19 20  1  0
 20 21  1  0
 21 22  1  0
 22 23  2  0
 22 24  1  0
 24 25  1  0
 25 26  2  0
 15 27  1  0
 27 28  1  0
  5 29  1  0
 29 30  2  0
 30  3  1  0
 28  9  1  0
 28 13  2  0
 25 19  1  0
  1 31  1  0
  1 32  1  0
  1 33  1  0
  2 34  1  0
  2 35  1  0
  4 36  1  0
 10 37  1  0
 11 38  1  0
 14 39  1  0
 18 40  1  0
 19 41  1  6
 20 42  1  0
 20 43  1  0
 21 44  1  0
 21 45  1  0
 24 46  1  0
 27 47  1  0
 29 48  1  0
M  END
>  <meeko>  (522) 
{"is_sidechain": [true], "free_energy": -10.73, "intermolecular_energy": 0.0, "internal_energy": -10.73, "cluster_size": 16, "cluster_id": 1, "rank_in_cluster": 1}

>  <_RMSD_MCS_to_ref>  (522) 
0.5411043234801299

$$$$
ligand
     RDKit          3D

 50 53  0  0  0  0  0  0  0  0999 V2000
   18.7970   18.8170    7.7190 C   0  0  0  0  0  0  0  0  0  0  0  0
   18.5280   17.3290    7.8810 C   0  0  0  0  0  0  0  0  0  0  0  0
   19.7850   16.5350    7.9420 C   0  0  0  0  0  0  0  0  0  0  0  0
   20.0500   15.3840    8.6590 C   0  0  0  0  0  0  0  0  0  0  0  0
   21.3420   15.0780    8.3360 N   0  0  0  0  0  0  0  0  0  0  0  0
   22.2590   13.8260    8.9800 S   0  0  0  0  0  6  0  0  0  0  0  0
   21.3030   12.7900    9.3310 O   0  0  0  0  0  0  0  0  0  0  0  0
   23.3260   13.6000    8.0220 O   0  0  0  0  0  0  0  0  0  0  0  0
   22.9780   14.4640   10.4770 C   0  0  0  0  0  0  0  0  0  0  0  0
   24.2280   14.9680   10.2920 N   0  0  0  0  0  0  0  0  0  0  0  0
   24.8360   15.4610   11.3880 C   0  0  0  0  0  0  0  0  0  0  0  0
   24.2650   15.4570   12.6550 C   0  0  0  0  0  0  0  0  0  0  0  0
   25.1160   15.9870   13.7390 C   0  0  0  0  0  0  0  0  0  0  0  0
   25.4990   15.2440   14.6340 O   0  0  0  0  0  0  0  0  0  0  0  0
   25.3840   17.3330   13.6990 N   0  0  0  0  0  0  0  0  0  0  0  0
   26.2760   17.9640   14.6600 C   0  0  2  0  0  0  0  0  0  0  0  0
   25.7870   17.7910   16.0940 C   0  0  0  0  0  0  0  0  0  0  0  0
   26.7430   18.4970   17.0430 C   0  0  0  0  0  0  0  0  0  0  0  0
   26.9070   19.9520   16.6740 C   0  0  0  0  0  0  0  0  0  0  0  0
   27.0810   20.8300   17.5150 O   0  0  0  0  0  0  0  0  0  0  0  0
   26.8840   20.2540   15.3360 N   0  0  0  0  0  0  0  0  0  0  0  0
   26.3720   19.4590   14.3410 C   0  0  0  0  0  0  0  0  0  0  0  0
   26.0250   19.9330   13.2600 O   0  0  0  0  0  0  0  0  0  0  0  0
   22.9480   14.9600   12.8310 C   0  0  0  0  0  0  0  0  0  0  0  0
   22.2570   14.9920   14.0670 C   0  0  0  0  0  0  0  0  0  0  0  0
   20.9680   14.4760   14.2040 C   0  0  0  0  0  0  0  0  0  0  0  0
   20.3250   13.9260   13.1080 C   0  0  0  0  0  0  0  0  0  0  0  0
   20.9670   13.9040   11.8710 C   0  0  0  0  0  0  0  0  0  0  0  0
   22.2760   14.4240   11.7010 C   0  0  0  0  0  0  0  0  0  0  0  0
   21.8270   16.0300    7.4980 C   0  0  0  0  0  0  0  0  0  0  0  0
   20.8990   16.9240    7.2240 N   0  0  0  0  0  0  0  0  0  0  0  0
   18.8815   19.2845    8.7111 H   0  0  0  0  0  0  0  0  0  0  0  0
   19.7359   18.9616    7.1643 H   0  0  0  0  0  0  0  0  0  0  0  0
   17.9682   19.2812    7.1643 H   0  0  0  0  0  0  0  0  0  0  0  0
   17.9629   17.1702    8.8113 H   0  0  0  0  0  0  0  0  0  0  0  0
   17.9569   16.9911    7.0037 H   0  0  0  0  0  0  0  0  0  0  0  0
   19.3752   14.8387    9.3352 H   0  0  0  0  0  0  0  0  0  0  0  0
   25.8419   15.8913   11.2738 H   0  0  0  0  0  0  0  0  0  0  0  0
   24.9422   17.9110   12.9699 H   0  0  0  0  0  0  0  0  0  0  0  0
   27.2601   17.4793   14.5790 H   0  0  0  0  0  0  0  0  0  0  0  0
   24.7821   18.2270   16.1941 H   0  0  0  0  0  0  0  0  0  0  0  0
   25.7478   16.7200   16.3419 H   0  0  0  0  0  0  0  0  0  0  0  0
   26.3467   18.4294   18.0669 H   0  0  0  0  0  0  0  0  0  0  0  0
   27.7259   18.0080   16.9733 H   0  0  0  0  0  0  0  0  0  0  0  0
   27.2871   21.1585   15.0526 H   0  0  0  0  0  0  0  0  0  0  0  0
   22.7507   15.4363   14.9438 H   0  0  0  0  0  0  0  0  0  0  0  0
   20.4634   14.5061   15.1810 H   0  0  0  0  0  0  0  0  0  0  0  0
   19.3127   13.5086   13.2130 H   0  0  0  0  0  0  0  0  0  0  0  0
   20.4452   13.4723   11.0042 H   0  0  0  0  0  0  0  0  0  0  0  0
   22.8532   16.0517    7.1025 H   0  0  0  0  0  0  0  0  0  0  0  0
  1  2  1  0
  2  3  1  0
  3  4  2  0
  4  5  1  0
  5  6  1  0
  6  7  2  0
  6  8  2  0
  6  9  1  0
  9 10  2  0
 10 11  1  0
 11 12  2  0
 12 13  1  0
 13 14  2  0
 13 15  1  0
 15 16  1  0
 16 17  1  0
 17 18  1  0
 18 19  1  0
 19 20  2  0
 19 21  1  0
 21 22  1  0
 22 23  2  0
 12 24  1  0
 24 25  2  0
 25 26  1  0
 26 27  2  0
 27 28  1  0
 28 29  2  0
  5 30  1  0
 30 31  2  0
 31  3  1  0
 29  9  1  0
 22 16  1  0
 29 24  1  0
  1 32  1  0
  1 33  1  0
  1 34  1  0
  2 35  1  0
  2 36  1  0
  4 37  1  0
 11 38  1  0
 15 39  1  0
 16 40  1  1
 17 41  1  0
 17 42  1  0
 18 43  1  0
 18 44  1  0
 21 45  1  0
 25 46  1  0
 26 47  1  0
 27 48  1  0
 28 49  1  0
 30 50  1  0
M  END
>  <meeko>  (523) 
{"is_sidechain": [true], "free_energy": -10.73, "intermolecular_energy": 0.0, "internal_energy": -10.73, "cluster_size": 16, "cluster_id": 1, "rank_in_cluster": 1}

>  <_RMSD_MCS_to_ref>  (523) 
0.8011233085833633

$$$$
ligand
     RDKit          3D

 56 60  0  0  0  0  0  0  0  0999 V2000
   18.9090   19.1540    7.5370 C   0  0  0  0  0  0  0  0  0  0  0  0
   18.7730   17.6460    7.6780 C   0  0  0  0  0  0  0  0  0  0  0  0
   19.8800   16.9160    7.0020 C   0  0  0  0  0  0  0  0  0  0  0  0
   21.0990   16.5180    7.5140 C   0  0  0  0  0  0  0  0  0  0  0  0
   21.7020   15.8670    6.4770 N   0  0  0  0  0  0  0  0  0  0  0  0
   23.3140   15.3730    6.4260 S   0  0  0  0  0  6  0  0  0  0  0  0
   23.3120   14.0600    7.0440 O   0  0  0  0  0  0  0  0  0  0  0  0
   23.7090   15.5640    5.0430 O   0  0  0  0  0  0  0  0  0  0  0  0
   24.1230   16.4190    7.3770 O   0  0  0  0  0  0  0  0  0  0  0  0
   24.9550   16.0130    8.3820 C   0  0  0  0  0  0  0  0  0  0  0  0
   26.3000   15.6640    8.2390 C   0  0  0  0  0  0  0  0  0  0  0  0
   27.0620   15.2850    9.3570 C   0  0  0  0  0  0  0  0  0  0  0  0
   26.4960   15.2410   10.6310 C   0  0  0  0  0  0  0  0  0  0  0  0
   25.1560   15.5680   10.7700 C   0  0  0  0  0  0  0  0  0  0  0  0
   24.3970   15.9510    9.6530 C   0  0  0  0  0  0  0  0  0  0  0  0
   23.0040   16.3260   10.0600 C   0  0  0  0  0  0  0  0  0  0  0  0
   22.8960   15.6650   11.4420 C   0  0  0  0  0  0  0  0  0  0  0  0
   24.3220   15.6280   12.0270 C   0  0  1  0  0  0  0  0  0  0  0  0
   24.5380   14.4790   13.0050 C   0  0  0  0  0  0  0  0  0  0  0  0
   25.3480   15.1020   14.1010 C   0  0  0  0  0  0  0  0  0  0  0  0
   25.9370   14.4720   14.9670 O   0  0  0  0  0  0  0  0  0  0  0  0
   25.2610   16.4630   14.0080 N   0  0  0  0  0  0  0  0  0  0  0  0
   25.9640   17.3510   14.9240 C   0  0  2  0  0  0  0  0  0  0  0  0
   25.1050   17.9390   16.0400 C   0  0  0  0  0  0  0  0  0  0  0  0
   25.9790   18.8050   16.9360 C   0  0  0  0  0  0  0  0  0  0  0  0
   26.6750   19.8880   16.1430 C   0  0  0  0  0  0  0  0  0  0  0  0
   27.0150   20.9540   16.6470 O   0  0  0  0  0  0  0  0  0  0  0  0
   26.9690   19.5980   14.8330 N   0  0  0  0  0  0  0  0  0  0  0  0
   26.6260   18.4730   14.1180 C   0  0  0  0  0  0  0  0  0  0  0  0
   26.9050   18.3810   12.9240 O   0  0  0  0  0  0  0  0  0  0  0  0
   24.6420   16.8610   12.8540 C   0  0  0  0  0  0  0  0  0  0  0  0
   24.4160   18.0150   12.5200 O   0  0  0  0  0  0  0  0  0  0  0  0
   20.9090   15.9510    5.3780 C   0  0  0  0  0  0  0  0  0  0  0  0
   19.7790   16.5610    5.6710 N   0  0  0  0  0  0  0  0  0  0  0  0
   18.9504   19.6134    8.5356 H   0  0  0  0  0  0  0  0  0  0  0  0
   19.8320   19.3891    6.9867 H   0  0  0  0  0  0  0  0  0  0  0  0
   18.0430   19.5504    6.9867 H   0  0  0  0  0  0  0  0  0  0  0  0
   18.7797   17.3882    8.7473 H   0  0  0  0  0  0  0  0  0  0  0  0
   17.8290   17.3459    7.1997 H   0  0  0  0  0  0  0  0  0  0  0  0
   21.4940   16.6870    8.5266 H   0  0  0  0  0  0  0  0  0  0  0  0
   26.7664   15.6861    7.2430 H   0  0  0  0  0  0  0  0  0  0  0  0
   28.1212   15.0189    9.2255 H   0  0  0  0  0  0  0  0  0  0  0  0
   27.0988   14.9535   11.5051 H   0  0  0  0  0  0  0  0  0  0  0  0
   22.8858   17.4176   10.1271 H   0  0  0  0  0  0  0  0  0  0  0  0
   22.2288   16.0044    9.3489 H   0  0  0  0  0  0  0  0  0  0  0  0
   22.2339   16.2542   12.0935 H   0  0  0  0  0  0  0  0  0  0  0  0
   22.4732   14.6524   11.3648 H   0  0  0  0  0  0  0  0  0  0  0  0
   23.5781   14.1040   13.3897 H   0  0  0  0  0  0  0  0  0  0  0  0
   25.0340   13.6116   12.5450 H   0  0  0  0  0  0  0  0  0  0  0  0
   26.7119   16.7315   15.4406 H   0  0  0  0  0  0  0  0  0  0  0  0
   24.3030   18.5523   15.6035 H   0  0  0  0  0  0  0  0  0  0  0  0
   24.6578   17.1264   16.6313 H   0  0  0  0  0  0  0  0  0  0  0  0
   25.3490   19.2736   17.7064 H   0  0  0  0  0  0  0  0  0  0  0  0
   26.7457   18.1649   17.3969 H   0  0  0  0  0  0  0  0  0  0  0  0
   27.5125   20.3093   14.3235 H   0  0  0  0  0  0  0  0  0  0  0  0
   21.1732   15.5640    4.3828 H   0  0  0  0  0  0  0  0  0  0  0  0
  1  2  1  0
  2  3  1  0
  3  4  2  0
  4  5  1  0
  5  6  1  0
  6  7  2  0
  6  8  2  0
  6  9  1  0
  9 10  1  0
 10 11  2  0
 11 12  1  0
 12 13  2  0
 13 14  1  0
 14 15  2  0
 15 16  1  0
 16 17  1  0
 18 17  1  6
 18 19  1  0
 19 20  1  0
 20 21  2  0
 20 22  1  0
 22 23  1  0
 23 24  1  0
 24 25  1  0
 25 26  1  0
 26 27  2  0
 26 28  1  0
 28 29  1  0
 29 30  2  0
 22 31  1  0
 31 32  2  0
  5 33  1  0
 33 34  2  0
 34  3  1  0
 15 10  1  0
 31 18  1  0
 18 14  1  0
 29 23  1  0
  1 35  1  0
  1 36  1  0
  1 37  1  0
  2 38  1  0
  2 39  1  0
  4 40  1  0
 11 41  1  0
 12 42  1  0
 13 43  1  0
 16 44  1  0
 16 45  1  0
 17 46  1  0
 17 47  1  0
 19 48  1  0
 19 49  1  0
 23 50  1  1
 24 51  1  0
 24 52  1  0
 25 53  1  0
 25 54  1  0
 28 55  1  0
 33 56  1  0
M  END
>  <meeko>  (524) 
{"is_sidechain": [true], "free_energy": -10.73, "intermolecular_energy": 0.0, "internal_energy": -10.73, "cluster_size": 20, "cluster_id": 1, "rank_in_cluster": 1}

>  <_RMSD_MCS_to_ref>  (524) 
1.8844995091535577

$$$$
ligand
     RDKit          3D

 55 59  0  0  0  0  0  0  0  0999 V2000
   18.9090   19.1540    7.5370 C   0  0  0  0  0  0  0  0  0  0  0  0
   18.7730   17.6460    7.6780 C   0  0  0  0  0  0  0  0  0  0  0  0
   19.6750   16.9110    6.7490 C   0  0  0  0  0  0  0  0  0  0  0  0
   21.0540   16.8550    6.7400 C   0  0  0  0  0  0  0  0  0  0  0  0
   21.3500   16.0590    5.6710 N   0  0  0  0  0  0  0  0  0  0  0  0
   22.8690   15.4500    5.2890 S   0  0  0  0  0  6  0  0  0  0  0  0
   23.7480   16.6010    5.2140 O   0  0  0  0  0  0  0  0  0  0  0  0
   22.6670   14.5520    4.1680 O   0  0  0  0  0  0  0  0  0  0  0  0
   23.3000   14.4920    6.7140 C   0  0  0  0  0  0  0  0  0  0  0  0
   23.4880   13.1150    6.5900 C   0  0  0  0  0  0  0  0  0  0  0  0
   23.8280   12.3700    7.7150 C   0  0  0  0  0  0  0  0  0  0  0  0
   23.9720   13.0000    8.9550 C   0  0  0  0  0  0  0  0  0  0  0  0
   23.7720   14.3850    9.1000 C   0  0  0  0  0  0  0  0  0  0  0  0
   23.9170   15.0400   10.4120 C   0  0  0  0  0  0  0  0  0  0  0  0
   22.9870   14.7810   11.4560 C   0  0  0  0  0  0  0  0  0  0  0  0
   23.1000   15.3860   12.7150 C   0  0  0  0  0  0  0  0  0  0  0  0
   24.1550   16.2530   12.9050 C   0  0  0  0  0  0  0  0  0  0  0  0
   25.0670   16.5180   11.9020 C   0  0  0  0  0  0  0  0  0  0  0  0
   24.9800   15.9310   10.6530 C   0  0  0  0  0  0  0  0  0  0  0  0
   26.0500   17.4560   12.4390 C   0  0  0  0  0  0  0  0  0  0  0  0
   27.0230   17.8470   11.8230 O   0  0  0  0  0  0  0  0  0  0  0  0
   25.6590   17.7470   13.7170 N   0  0  0  0  0  0  0  0  0  0  0  0
   26.4340   18.5270   14.6700 C   0  0  2  0  0  0  0  0  0  0  0  0
   26.1980   18.1490   16.1290 C   0  0  0  0  0  0  0  0  0  0  0  0
   27.0890   19.0060   17.0180 C   0  0  0  0  0  0  0  0  0  0  0  0
   26.8490   20.4790   16.7790 C   0  0  0  0  0  0  0  0  0  0  0  0
   27.0290   21.3220   17.6530 O   0  0  0  0  0  0  0  0  0  0  0  0
   26.4680   20.8420   15.5120 N   0  0  0  0  0  0  0  0  0  0  0  0
   26.1450   20.0170   14.4580 C   0  0  0  0  0  0  0  0  0  0  0  0
   25.7070   20.4880   13.4090 O   0  0  0  0  0  0  0  0  0  0  0  0
   24.5530   17.0240   14.0790 C   0  0  0  0  0  0  0  0  0  0  0  0
   23.9740   16.9970   15.1470 O   0  0  0  0  0  0  0  0  0  0  0  0
   23.4290   15.1250    7.9580 C   0  0  0  0  0  0  0  0  0  0  0  0
   20.1940   15.6270    5.1040 C   0  0  0  0  0  0  0  0  0  0  0  0
   19.1540   16.1360    5.7310 N   0  0  0  0  0  0  0  0  0  0  0  0
   18.9504   19.6134    8.5356 H   0  0  0  0  0  0  0  0  0  0  0  0
   19.8320   19.3891    6.9867 H   0  0  0  0  0  0  0  0  0  0  0  0
   18.0430   19.5504    6.9867 H   0  0  0  0  0  0  0  0  0  0  0  0
   19.0218   17.3629    8.7114 H   0  0  0  0  0  0  0  0  0  0  0  0
   17.7367   17.3753    7.4274 H   0  0  0  0  0  0  0  0  0  0  0  0
   21.7545   17.3407    7.4352 H   0  0  0  0  0  0  0  0  0  0  0  0
   23.3687   12.6235    5.6132 H   0  0  0  0  0  0  0  0  0  0  0  0
   23.9836   11.2845    7.6288 H   0  0  0  0  0  0  0  0  0  0  0  0
   24.2473   12.4004    9.8352 H   0  0  0  0  0  0  0  0  0  0  0  0
   22.1550   14.0858   11.2701 H   0  0  0  0  0  0  0  0  0  0  0  0
   22.3774   15.1779   13.5178 H   0  0  0  0  0  0  0  0  0  0  0  0
   25.7201   16.1538    9.8703 H   0  0  0  0  0  0  0  0  0  0  0  0
   27.4920   18.2994   14.4730 H   0  0  0  0  0  0  0  0  0  0  0  0
   25.1432   18.3228   16.3882 H   0  0  0  0  0  0  0  0  0  0  0  0
   26.4384   17.0861   16.2792 H   0  0  0  0  0  0  0  0  0  0  0  0
   26.8734   18.7741   18.0714 H   0  0  0  0  0  0  0  0  0  0  0  0
   28.1386   18.7816   16.7771 H   0  0  0  0  0  0  0  0  0  0  0  0
   26.4175   21.8540   15.3269 H   0  0  0  0  0  0  0  0  0  0  0  0
   23.2603   16.2089    8.0396 H   0  0  0  0  0  0  0  0  0  0  0  0
   20.1348   14.9469    4.2415 H   0  0  0  0  0  0  0  0  0  0  0  0
  1  2  1  0
  2  3  1  0
  3  4  2  0
  4  5  1  0
  5  6  1  0
  6  7  2  0
  6  8  2  0
  6  9  1  0
  9 10  2  0
 10 11  1  0
 11 12  2  0
 12 13  1  0
 13 14  1  0
 14 15  2  0
 15 16  1  0
 16 17  2  0
 17 18  1  0
 18 19  2  0
 18 20  1  0
 20 21  2  0
 20 22  1  0
 22 23  1  0
 23 24  1  0
 24 25  1  0
 25 26  1  0
 26 27  2  0
 26 28  1  0
 28 29  1  0
 29 30  2  0
 22 31  1  0
 31 32  2  0
 13 33  2  0
  5 34  1  0
 34 35  2  0
 35  3  1  0
 33  9  1  0
 19 14  1  0
 29 23  1  0
 31 17  1  0
  1 36  1  0
  1 37  1  0
  1 38  1  0
  2 39  1  0
  2 40  1  0
  4 41  1  0
 10 42  1  0
 11 43  1  0
 12 44  1  0
 15 45  1  0
 16 46  1  0
 19 47  1  0
 23 48  1  6
 24 49  1  0
 24 50  1  0
 25 51  1  0
 25 52  1  0
 28 53  1  0
 33 54  1  0
 34 55  1  0
M  END
>  <meeko>  (525) 
{"is_sidechain": [true], "free_energy": -10.73, "intermolecular_energy": 0.0, "internal_energy": -10.73, "cluster_size": 19, "cluster_id": 1, "rank_in_cluster": 1}

>  <_RMSD_MCS_to_ref>  (525) 
1.1043057118674873

$$$$
ligand
     RDKit          3D

 48 51  0  0  0  0  0  0  0  0999 V2000
   18.9090   19.1540    7.5370 C   0  0  0  0  0  0  0  0  0  0  0  0
   18.7730   17.6460    7.6780 C   0  0  0  0  0  0  0  0  0  0  0  0
   19.9820   16.9250    7.1950 C   0  0  0  0  0  0  0  0  0  0  0  0
   21.2210   16.8080    7.7930 C   0  0  0  0  0  0  0  0  0  0  0  0
   21.9490   16.0620    6.9120 N   0  0  0  0  0  0  0  0  0  0  0  0
   23.4710   15.4100    7.1960 S   0  0  0  0  0  6  0  0  0  0  0  0
   24.4080   16.2720    6.5030 O   0  0  0  0  0  0  0  0  0  0  0  0
   23.3550   13.9950    6.9050 O   0  0  0  0  0  0  0  0  0  0  0  0
   23.6920   15.6200    8.9440 C   0  0  0  0  0  0  0  0  0  0  0  0
   24.8370   16.2750    9.4140 C   0  0  0  0  0  0  0  0  0  0  0  0
   25.0360   16.4550   10.7900 C   0  0  0  0  0  0  0  0  0  0  0  0
   24.0720   15.9620   11.6920 C   0  0  0  0  0  0  0  0  0  0  0  0
   23.9140   15.9470   13.1190 C   0  0  0  0  0  0  0  0  0  0  0  0
   24.8200   16.5050   14.1110 C   0  0  0  0  0  0  0  0  0  0  0  0
   25.3650   15.8110   14.9630 O   0  0  0  0  0  0  0  0  0  0  0  0
   25.0430   17.8620   14.0300 N   0  0  0  0  0  0  0  0  0  0  0  0
   26.0370   18.5170   14.8670 C   0  0  2  0  0  0  0  0  0  0  0  0
   25.8420   18.2090   16.3480 C   0  0  0  0  0  0  0  0  0  0  0  0
   26.8840   18.9610   17.1620 C   0  0  0  0  0  0  0  0  0  0  0  0
   26.8340   20.4460   16.8830 C   0  0  0  0  0  0  0  0  0  0  0  0
   27.0720   21.2870   17.7440 O   0  0  0  0  0  0  0  0  0  0  0  0
   26.5310   20.8190   15.5970 N   0  0  0  0  0  0  0  0  0  0  0  0
   25.9210   20.0290   14.6550 C   0  0  0  0  0  0  0  0  0  0  0  0
   25.3260   20.5200   13.6960 O   0  0  0  0  0  0  0  0  0  0  0  0
   22.7250   15.2770   13.3430 C   0  0  0  0  0  0  0  0  0  0  0  0
   22.1470   14.8920   12.1770 O   0  0  0  0  0  0  0  0  0  0  0  0
   22.9620   15.3060   11.1720 C   0  0  0  0  0  0  0  0  0  0  0  0
   22.7240   15.1040    9.8160 C   0  0  0  0  0  0  0  0  0  0  0  0
   21.1590   15.7130    5.8640 C   0  0  0  0  0  0  0  0  0  0  0  0
   19.9570   16.2330    6.0000 N   0  0  0  0  0  0  0  0  0  0  0  0
   18.9504   19.6134    8.5356 H   0  0  0  0  0  0  0  0  0  0  0  0
   19.8320   19.3891    6.9867 H   0  0  0  0  0  0  0  0  0  0  0  0
   18.0430   19.5504    6.9867 H   0  0  0  0  0  0  0  0  0  0  0  0
   18.6154   17.4022    8.7390 H   0  0  0  0  0  0  0  0  0  0  0  0
   17.9198   17.3248    7.0624 H   0  0  0  0  0  0  0  0  0  0  0  0
   21.5469   17.2216    8.7588 H   0  0  0  0  0  0  0  0  0  0  0  0
   25.5844   16.6504    8.6996 H   0  0  0  0  0  0  0  0  0  0  0  0
   25.9323   16.9739   11.1605 H   0  0  0  0  0  0  0  0  0  0  0  0
   24.4950   18.4244   13.3634 H   0  0  0  0  0  0  0  0  0  0  0  0
   27.0299   18.1414   14.5788 H   0  0  0  0  0  0  0  0  0  0  0  0
   24.8353   18.5249   16.6591 H   0  0  0  0  0  0  0  0  0  0  0  0
   25.9545   17.1278   16.5163 H   0  0  0  0  0  0  0  0  0  0  0  0
   26.6935   18.7911   18.2320 H   0  0  0  0  0  0  0  0  0  0  0  0
   27.8797   18.5885   16.8793 H   0  0  0  0  0  0  0  0  0  0  0  0
   26.7839   21.7766   15.3141 H   0  0  0  0  0  0  0  0  0  0  0  0
   22.3018   15.0811   14.3392 H   0  0  0  0  0  0  0  0  0  0  0  0
   21.8323   14.5728    9.4516 H   0  0  0  0  0  0  0  0  0  0  0  0
   21.4785   15.0841    5.0199 H   0  0  0  0  0  0  0  0  0  0  0  0
  1  2  1  0
  2  3  1  0
  3  4  2  0
  4  5  1  0
  5  6  1  0
  6  7  2  0
  6  8  2  0
  6  9  1  0
  9 10  2  0
 10 11  1  0
 11 12  2  0
 12 13  1  0
 13 14  1  0
 14 15  2  0
 14 16  1  0
 16 17  1  0
 17 18  1  0
 18 19  1  0
 19 20  1  0
 20 21  2  0
 20 22  1  0
 22 23  1  0
 23 24  2  0
 13 25  2  0
 25 26  1  0
 26 27  1  0
 27 28  2  0
  5 29  1  0
 29 30  2  0
 30  3  1  0
 28  9  1  0
 27 12  1  0
 23 17  1  0
  1 31  1  0
  1 32  1  0
  1 33  1  0
  2 34  1  0
  2 35  1  0
  4 36  1  0
 10 37  1  0
 11 38  1  0
 16 39  1  0
 17 40  1  6
 18 41  1  0
 18 42  1  0
 19 43  1  0
 19 44  1  0
 22 45  1  0
 25 46  1  0
 28 47  1  0
 29 48  1  0
M  END
>  <meeko>  (526) 
{"is_sidechain": [true], "free_energy": -10.73, "intermolecular_energy": 0.0, "internal_energy": -10.73, "cluster_size": 18, "cluster_id": 1, "rank_in_cluster": 1}

>  <_RMSD_MCS_to_ref>  (526) 
0.8513866467253413

$$$$
ligand
     RDKit          3D

 48 51  0  0  0  0  0  0  0  0999 V2000
   18.9090   19.1540    7.5370 C   0  0  0  0  0  0  0  0  0  0  0  0
   18.7730   17.6460    7.6780 C   0  0  0  0  0  0  0  0  0  0  0  0
   20.0900   16.9560    7.6120 C   0  0  0  0  0  0  0  0  0  0  0  0
   20.9650   16.6570    8.6370 C   0  0  0  0  0  0  0  0  0  0  0  0
   22.0010   16.0180    8.0180 N   0  0  0  0  0  0  0  0  0  0  0  0
   23.4780   15.6220    8.7150 S   0  0  0  0  0  6  0  0  0  0  0  0
   24.3020   16.8060    8.5710 O   0  0  0  0  0  0  0  0  0  0  0  0
   23.8570   14.3360    8.1660 O   0  0  0  0  0  0  0  0  0  0  0  0
   23.0920   15.4030   10.4340 C   0  0  0  0  0  0  0  0  0  0  0  0
   23.9660   15.9190   11.3990 C   0  0  0  0  0  0  0  0  0  0  0  0
   23.7000   15.7640   12.7710 C   0  0  0  0  0  0  0  0  0  0  0  0
   24.6550   16.3050   13.7660 C   0  0  0  0  0  0  0  0  0  0  0  0
   25.2200   15.5410   14.5430 O   0  0  0  0  0  0  0  0  0  0  0  0
   24.8680   17.6610   13.7730 N   0  0  0  0  0  0  0  0  0  0  0  0
   25.8720   18.2810   14.6230 C   0  0  2  0  0  0  0  0  0  0  0  0
   25.6460   17.9650   16.0980 C   0  0  0  0  0  0  0  0  0  0  0  0
   26.7130   18.6570   16.9350 C   0  0  0  0  0  0  0  0  0  0  0  0
   26.7330   20.1440   16.6740 C   0  0  0  0  0  0  0  0  0  0  0  0
   27.0010   20.9630   17.5490 O   0  0  0  0  0  0  0  0  0  0  0  0
   26.4640   20.5470   15.3900 N   0  0  0  0  0  0  0  0  0  0  0  0
   25.8280   19.8010   14.4290 C   0  0  0  0  0  0  0  0  0  0  0  0
   25.2750   20.3420   13.4720 O   0  0  0  0  0  0  0  0  0  0  0  0
   22.5210   15.0890   13.1030 C   0  0  0  0  0  0  0  0  0  0  0  0
   22.0590   14.8250   14.3630 O   0  0  0  0  0  0  0  0  0  0  0  0
   20.8820   14.1640   14.2340 C   0  0  0  0  0  0  0  0  0  0  0  0
   20.5710   13.9870   12.9070 C   0  0  0  0  0  0  0  0  0  0  0  0
   21.6260   14.5800   12.1640 C   0  0  0  0  0  0  0  0  0  0  0  0
   21.9090   14.7400   10.7950 C   0  0  0  0  0  0  0  0  0  0  0  0
   21.7630   15.9760    6.6810 C   0  0  0  0  0  0  0  0  0  0  0  0
   20.6030   16.5320    6.4010 N   0  0  0  0  0  0  0  0  0  0  0  0
   18.9504   19.6134    8.5356 H   0  0  0  0  0  0  0  0  0  0  0  0
   19.8320   19.3891    6.9867 H   0  0  0  0  0  0  0  0  0  0  0  0
   18.0430   19.5504    6.9867 H   0  0  0  0  0  0  0  0  0  0  0  0
   18.3032   17.4214    8.6469 H   0  0  0  0  0  0  0  0  0  0  0  0
   18.1578   17.2820    6.8419 H   0  0  0  0  0  0  0  0  0  0  0  0
   20.8532   16.8821    9.7079 H   0  0  0  0  0  0  0  0  0  0  0  0
   24.8730   16.4529   11.0792 H   0  0  0  0  0  0  0  0  0  0  0  0
   24.2986   18.2584   13.1567 H   0  0  0  0  0  0  0  0  0  0  0  0
   26.8529   17.8760   14.3335 H   0  0  0  0  0  0  0  0  0  0  0  0
   24.6517   18.3243   16.4017 H   0  0  0  0  0  0  0  0  0  0  0  0
   25.7064   16.8777   16.2533 H   0  0  0  0  0  0  0  0  0  0  0  0
   26.5022   18.4826   18.0004 H   0  0  0  0  0  0  0  0  0  0  0  0
   27.6941   18.2421   16.6606 H   0  0  0  0  0  0  0  0  0  0  0  0
   26.7666   21.4947   15.1233 H   0  0  0  0  0  0  0  0  0  0  0  0
   20.2624   13.8177   15.0744 H   0  0  0  0  0  0  0  0  0  0  0  0
   19.6806   13.4850   12.5006 H   0  0  0  0  0  0  0  0  0  0  0  0
   21.2209   14.3554   10.0278 H   0  0  0  0  0  0  0  0  0  0  0  0
   22.4444   15.5385    5.9365 H   0  0  0  0  0  0  0  0  0  0  0  0
  1  2  1  0
  2  3  1  0
  3  4  2  0
  4  5  1  0
  5  6  1  0
  6  7  2  0
  6  8  2  0
  6  9  1  0
  9 10  2  0
 10 11  1  0
 11 12  1  0
 12 13  2  0
 12 14  1  0
 14 15  1  0
 15 16  1  0
 16 17  1  0
 17 18  1  0
 18 19  2  0
 18 20  1  0
 20 21  1  0
 21 22  2  0
 11 23  2  0
 23 24  1  0
 24 25  1  0
 25 26  2  0
 26 27  1  0
 27 28  2  0
  5 29  1  0
 29 30  2  0
 30  3  1  0
 28  9  1  0
 21 15  1  0
 27 23  1  0
  1 31  1  0
  1 32  1  0
  1 33  1  0
  2 34  1  0
  2 35  1  0
  4 36  1  0
 10 37  1  0
 14 38  1  0
 15 39  1  6
 16 40  1  0
 16 41  1  0
 17 42  1  0
 17 43  1  0
 20 44  1  0
 25 45  1  0
 26 46  1  0
 28 47  1  0
 29 48  1  0
M  END
>  <meeko>  (527) 
{"is_sidechain": [true], "free_energy": -10.73, "intermolecular_energy": 0.0, "internal_energy": -10.73, "cluster_size": 20, "cluster_id": 1, "rank_in_cluster": 1}

>  <_RMSD_MCS_to_ref>  (527) 
0.610335699977206

$$$$
ligand
     RDKit          3D

 48 51  0  0  0  0  0  0  0  0999 V2000
   18.9090   19.1540    7.5370 C   0  0  0  0  0  0  0  0  0  0  0  0
   18.7730   17.6460    7.6780 C   0  0  0  0  0  0  0  0  0  0  0  0
   20.0940   16.9600    7.6790 C   0  0  0  0  0  0  0  0  0  0  0  0
   20.9210   16.6650    8.7440 C   0  0  0  0  0  0  0  0  0  0  0  0
   21.9790   16.0170    8.1780 N   0  0  0  0  0  0  0  0  0  0  0  0
   23.4290   15.6250    8.9250 S   0  0  0  0  0  6  0  0  0  0  0  0
   23.8590   14.3680    8.3430 O   0  0  0  0  0  0  0  0  0  0  0  0
   24.2330   16.8290    8.8110 O   0  0  0  0  0  0  0  0  0  0  0  0
   23.0560   15.3680   10.6360 C   0  0  0  0  0  0  0  0  0  0  0  0
   23.9020   15.8340   11.5220 N   0  0  0  0  0  0  0  0  0  0  0  0
   23.5920   15.6620   12.8640 C   0  0  0  0  0  0  0  0  0  0  0  0
   24.5650   16.1690   13.9060 C   0  0  0  0  0  0  0  0  0  0  0  0
   25.0840   15.4510   14.7510 O   0  0  0  0  0  0  0  0  0  0  0  0
   24.8130   17.5160   13.7950 N   0  0  0  0  0  0  0  0  0  0  0  0
   25.8250   18.1850   14.5920 C   0  0  2  0  0  0  0  0  0  0  0  0
   25.6440   17.9150   16.0820 C   0  0  0  0  0  0  0  0  0  0  0  0
   26.7180   18.6530   16.8660 C   0  0  0  0  0  0  0  0  0  0  0  0
   26.7030   20.1330   16.5580 C   0  0  0  0  0  0  0  0  0  0  0  0
   26.9970   20.9820   17.3930 O   0  0  0  0  0  0  0  0  0  0  0  0
   26.3740   20.4890   15.2750 N   0  0  0  0  0  0  0  0  0  0  0  0
   25.7510   19.6950   14.3430 C   0  0  0  0  0  0  0  0  0  0  0  0
   25.1930   20.1880   13.3640 O   0  0  0  0  0  0  0  0  0  0  0  0
   22.4720   15.0730   13.3170 C   0  0  0  0  0  0  0  0  0  0  0  0
   21.5420   14.5790   12.3740 C   0  0  0  0  0  0  0  0  0  0  0  0
   20.3210   13.9520   12.4750 C   0  0  0  0  0  0  0  0  0  0  0  0
   19.8800   13.6940   11.1600 C   0  0  0  0  0  0  0  0  0  0  0  0
   20.8460   14.1700   10.2980 C   0  0  0  0  0  0  0  0  0  0  0  0
   21.8690   14.7270   11.0350 N   0  0  0  0  0  0  0  0  0  0  0  0
   21.8000   15.9600    6.8320 C   0  0  0  0  0  0  0  0  0  0  0  0
   20.6620   16.5280    6.4960 N   0  0  0  0  0  0  0  0  0  0  0  0
   18.9504   19.6134    8.5356 H   0  0  0  0  0  0  0  0  0  0  0  0
   19.8320   19.3891    6.9867 H   0  0  0  0  0  0  0  0  0  0  0  0
   18.0430   19.5504    6.9867 H   0  0  0  0  0  0  0  0  0  0  0  0
   18.2577   17.4237    8.6241 H   0  0  0  0  0  0  0  0  0  0  0  0
   18.2011   17.2763    6.8141 H   0  0  0  0  0  0  0  0  0  0  0  0
   20.7627   16.8992    9.8071 H   0  0  0  0  0  0  0  0  0  0  0  0
   24.2621   18.0697   13.1235 H   0  0  0  0  0  0  0  0  0  0  0  0
   26.8065   17.7902   14.2905 H   0  0  0  0  0  0  0  0  0  0  0  0
   24.6514   18.2663   16.4002 H   0  0  0  0  0  0  0  0  0  0  0  0
   25.7293   16.8348   16.2715 H   0  0  0  0  0  0  0  0  0  0  0  0
   26.5392   18.5090   17.9418 H   0  0  0  0  0  0  0  0  0  0  0  0
   27.6991   18.2480   16.5771 H   0  0  0  0  0  0  0  0  0  0  0  0
   26.6180   21.4456   14.9814 H   0  0  0  0  0  0  0  0  0  0  0  0
   22.2835   14.9776   14.3965 H   0  0  0  0  0  0  0  0  0  0  0  0
   19.7898   13.6999   13.4046 H   0  0  0  0  0  0  0  0  0  0  0  0
   18.9380   13.2030   10.8743 H   0  0  0  0  0  0  0  0  0  0  0  0
   20.8064   14.1141    9.2001 H   0  0  0  0  0  0  0  0  0  0  0  0
   22.5069   15.5034    6.1236 H   0  0  0  0  0  0  0  0  0  0  0  0
  1  2  1  0
  2  3  1  0
  3  4  2  0
  4  5  1  0
  5  6  1  0
  6  7  2  0
  6  8  2  0
  6  9  1  0
  9 10  2  0
 10 11  1  0
 11 12  1  0
 12 13  2  0
 12 14  1  0
 14 15  1  0
 15 16  1  0
 16 17  1  0
 17 18  1  0
 18 19  2  0
 18 20  1  0
 20 21  1  0
 21 22  2  0
 11 23  2  0
 23 24  1  0
 24 25  2  0
 25 26  1  0
 26 27  2  0
 27 28  1  0
  5 29  1  0
 29 30  2  0
 30  3  1  0
 28  9  1  0
 21 15  1  0
 28 24  1  0
  1 31  1  0
  1 32  1  0
  1 33  1  0
  2 34  1  0
  2 35  1  0
  4 36  1  0
 14 37  1  0
 15 38  1  6
 16 39  1  0
 16 40  1  0
 17 41  1  0
 17 42  1  0
 20 43  1  0
 23 44  1  0
 25 45  1  0
 26 46  1  0
 27 47  1  0
 29 48  1  0
M  END
>  <meeko>  (528) 
{"is_sidechain": [true], "free_energy": -10.73, "intermolecular_energy": 0.0, "internal_energy": -10.73, "cluster_size": 20, "cluster_id": 1, "rank_in_cluster": 1}

>  <_RMSD_MCS_to_ref>  (528) 
0.554056655747206

$$$$
ligand
     RDKit          3D

 48 51  0  0  0  0  0  0  0  0999 V2000
   18.9090   19.1540    7.5370 C   0  0  0  0  0  0  0  0  0  0  0  0
   18.7730   17.6460    7.6780 C   0  0  0  0  0  0  0  0  0  0  0  0
   20.0910   16.9570    7.6280 C   0  0  0  0  0  0  0  0  0  0  0  0
   21.0250   16.7970    8.6310 C   0  0  0  0  0  0  0  0  0  0  0  0
   22.0390   16.1010    8.0360 N   0  0  0  0  0  0  0  0  0  0  0  0
   23.4460   15.5830    8.7900 S   0  0  0  0  0  6  0  0  0  0  0  0
   23.7820   14.2950    8.2170 O   0  0  0  0  0  0  0  0  0  0  0  0
   24.3510   16.7160    8.7010 O   0  0  0  0  0  0  0  0  0  0  0  0
   23.0770   15.3490   10.4760 C   0  0  0  0  0  0  0  0  0  0  0  0
   23.9460   15.8390   11.4870 C   0  0  0  0  0  0  0  0  0  0  0  0
   23.6820   15.6840   12.8890 C   0  0  0  0  0  0  0  0  0  0  0  0
   24.6330   16.2360   13.8980 C   0  0  0  0  0  0  0  0  0  0  0  0
   25.1920   15.4910   14.6920 O   0  0  0  0  0  0  0  0  0  0  0  0
   24.8580   17.5930   13.8530 N   0  0  0  0  0  0  0  0  0  0  0  0
   25.8740   18.2110   14.6940 C   0  0  2  0  0  0  0  0  0  0  0  0
   25.6420   17.9360   16.1760 C   0  0  0  0  0  0  0  0  0  0  0  0
   26.7120   18.6420   16.9960 C   0  0  0  0  0  0  0  0  0  0  0  0
   26.7470   20.1220   16.6970 C   0  0  0  0  0  0  0  0  0  0  0  0
   27.0360   20.9590   17.5470 O   0  0  0  0  0  0  0  0  0  0  0  0
   26.4690   20.4960   15.4070 N   0  0  0  0  0  0  0  0  0  0  0  0
   25.8480   19.7240   14.4570 C   0  0  0  0  0  0  0  0  0  0  0  0
   25.3200   20.2310   13.4670 O   0  0  0  0  0  0  0  0  0  0  0  0
   22.5230   15.0480   13.3960 C   0  0  0  0  0  0  0  0  0  0  0  0
   21.7090   14.5810   12.3710 C   0  0  0  0  0  0  0  0  0  0  0  0
   20.5250   13.9210   12.5400 C   0  0  0  0  0  0  0  0  0  0  0  0
   20.0890   13.6650   11.2730 N   0  0  0  0  0  0  0  0  0  0  0  0
   20.9120   14.1150   10.3060 N   0  0  0  0  0  0  0  0  0  0  0  0
   21.9330   14.6990   10.9500 C   0  0  0  0  0  0  0  0  0  0  0  0
   21.7050   15.8430    6.7460 C   0  0  0  0  0  0  0  0  0  0  0  0
   20.5280   16.3640    6.4600 N   0  0  0  0  0  0  0  0  0  0  0  0
   18.9504   19.6134    8.5356 H   0  0  0  0  0  0  0  0  0  0  0  0
   19.8320   19.3891    6.9867 H   0  0  0  0  0  0  0  0  0  0  0  0
   18.0430   19.5504    6.9867 H   0  0  0  0  0  0  0  0  0  0  0  0
   18.2922   17.4220    8.6417 H   0  0  0  0  0  0  0  0  0  0  0  0
   18.1681   17.2806    6.8351 H   0  0  0  0  0  0  0  0  0  0  0  0
   20.9666   17.1492    9.6715 H   0  0  0  0  0  0  0  0  0  0  0  0
   24.8642   16.3617   11.1810 H   0  0  0  0  0  0  0  0  0  0  0  0
   24.3003   18.1795   13.2159 H   0  0  0  0  0  0  0  0  0  0  0  0
   26.8493   17.7798   14.4243 H   0  0  0  0  0  0  0  0  0  0  0  0
   24.6497   18.3107   16.4676 H   0  0  0  0  0  0  0  0  0  0  0  0
   25.6935   16.8528   16.3606 H   0  0  0  0  0  0  0  0  0  0  0  0
   26.4971   18.4977   18.0651 H   0  0  0  0  0  0  0  0  0  0  0  0
   27.6899   18.2121   16.7333 H   0  0  0  0  0  0  0  0  0  0  0  0
   26.7528   21.4450   15.1247 H   0  0  0  0  0  0  0  0  0  0  0  0
   22.2955   14.9375   14.4665 H   0  0  0  0  0  0  0  0  0  0  0  0
   20.0327   13.6551   13.4871 H   0  0  0  0  0  0  0  0  0  0  0  0
   19.2076   13.1709   11.0732 H   0  0  0  0  0  0  0  0  0  0  0  0
   22.3291   15.2781    6.0379 H   0  0  0  0  0  0  0  0  0  0  0  0
  1  2  1  0
  2  3  1  0
  3  4  2  0
  4  5  1  0
  5  6  1  0
  6  7  2  0
  6  8  2  0
  6  9  1  0
  9 10  2  0
 10 11  1  0
 11 12  1  0
 12 13  2  0
 12 14  1  0
 14 15  1  0
 15 16  1  0
 16 17  1  0
 17 18  1  0
 18 19  2  0
 18 20  1  0
 20 21  1  0
 21 22  2  0
 11 23  2  0
 23 24  1  0
 24 25  2  0
 25 26  1  0
 26 27  1  0
 27 28  2  0
  5 29  1  0
 29 30  2  0
 30  3  1  0
 28  9  1  0
 21 15  1  0
 28 24  1  0
  1 31  1  0
  1 32  1  0
  1 33  1  0
  2 34  1  0
  2 35  1  0
  4 36  1  0
 10 37  1  0
 14 38  1  0
 15 39  1  6
 16 40  1  0
 16 41  1  0
 17 42  1  0
 17 43  1  0
 20 44  1  0
 23 45  1  0
 25 46  1  0
 26 47  1  0
 29 48  1  0
M  END
>  <meeko>  (529) 
{"is_sidechain": [true], "free_energy": -10.73, "intermolecular_energy": 0.0, "internal_energy": -10.73, "cluster_size": 20, "cluster_id": 1, "rank_in_cluster": 1}

>  <_RMSD_MCS_to_ref>  (529) 
0.6241414547645068

$$$$
ligand
     RDKit          3D

 48 51  0  0  0  0  0  0  0  0999 V2000
   18.9090   19.1540    7.5370 C   0  0  0  0  0  0  0  0  0  0  0  0
   18.7730   17.6460    7.6780 C   0  0  0  0  0  0  0  0  0  0  0  0
   20.0890   16.9550    7.6170 C   0  0  0  0  0  0  0  0  0  0  0  0
   21.0520   16.8300    8.6000 C   0  0  0  0  0  0  0  0  0  0  0  0
   22.0580   16.1300    7.9970 N   0  0  0  0  0  0  0  0  0  0  0  0
   23.3830   15.4390    8.7830 S   0  0  0  0  0  6  0  0  0  0  0  0
   24.4550   16.4000    8.6000 O   0  0  0  0  0  0  0  0  0  0  0  0
   23.4780   14.1030    8.2210 O   0  0  0  0  0  0  0  0  0  0  0  0
   22.9610   15.3510   10.4730 C   0  0  0  0  0  0  0  0  0  0  0  0
   23.8780   15.8180   11.5110 C   0  0  0  0  0  0  0  0  0  0  0  0
   23.5580   15.7550   12.8230 C   0  0  0  0  0  0  0  0  0  0  0  0
   24.5910   16.2490   13.7840 C   0  0  0  0  0  0  0  0  0  0  0  0
   25.2130   15.4790   14.5090 O   0  0  0  0  0  0  0  0  0  0  0  0
   24.7570   17.6070   13.8210 N   0  0  0  0  0  0  0  0  0  0  0  0
   25.7900   18.2350   14.6300 C   0  0  2  0  0  0  0  0  0  0  0  0
   25.6230   17.9330   16.1150 C   0  0  0  0  0  0  0  0  0  0  0  0
   26.7120   18.6430   16.9020 C   0  0  0  0  0  0  0  0  0  0  0  0
   26.7130   20.1290   16.6220 C   0  0  0  0  0  0  0  0  0  0  0  0
   26.9960   20.9600   17.4790 O   0  0  0  0  0  0  0  0  0  0  0  0
   26.4020   20.5120   15.3410 N   0  0  0  0  0  0  0  0  0  0  0  0
   25.7260   19.7510   14.4220 C   0  0  0  0  0  0  0  0  0  0  0  0
   25.1120   20.2700   13.4890 O   0  0  0  0  0  0  0  0  0  0  0  0
   22.2790   15.2420   13.2020 C   0  0  0  0  0  0  0  0  0  0  0  0
   21.5470   15.0800   14.3590 C   0  0  0  0  0  0  0  0  0  0  0  0
   20.3310   14.5020   14.0940 N   0  0  0  0  0  0  0  0  0  0  0  0
   20.2990   14.3370   12.7910 C   0  0  0  0  0  0  0  0  0  0  0  0
   21.4440   14.7900   12.1880 N   0  0  0  0  0  0  0  0  0  0  0  0
   21.7720   14.8360   10.8360 C   0  0  0  0  0  0  0  0  0  0  0  0
   21.6770   15.8030    6.7350 C   0  0  0  0  0  0  0  0  0  0  0  0
   20.4890   16.3010    6.4670 N   0  0  0  0  0  0  0  0  0  0  0  0
   18.9504   19.6134    8.5356 H   0  0  0  0  0  0  0  0  0  0  0  0
   19.8320   19.3891    6.9867 H   0  0  0  0  0  0  0  0  0  0  0  0
   18.0430   19.5504    6.9867 H   0  0  0  0  0  0  0  0  0  0  0  0
   18.2997   17.4219    8.6454 H   0  0  0  0  0  0  0  0  0  0  0  0
   18.1613   17.2822    6.8392 H   0  0  0  0  0  0  0  0  0  0  0  0
   21.0166   17.2079    9.6324 H   0  0  0  0  0  0  0  0  0  0  0  0
   24.8540   16.2315   11.2170 H   0  0  0  0  0  0  0  0  0  0  0  0
   24.1317   18.2022   13.2592 H   0  0  0  0  0  0  0  0  0  0  0  0
   26.7616   17.8290   14.3119 H   0  0  0  0  0  0  0  0  0  0  0  0
   24.6373   18.2861   16.4524 H   0  0  0  0  0  0  0  0  0  0  0  0
   25.6999   16.8481   16.2794 H   0  0  0  0  0  0  0  0  0  0  0  0
   26.5410   18.4811   17.9765 H   0  0  0  0  0  0  0  0  0  0  0  0
   27.6853   18.2317   16.5962 H   0  0  0  0  0  0  0  0  0  0  0  0
   26.7022   21.4517   15.0446 H   0  0  0  0  0  0  0  0  0  0  0  0
   21.8918   15.3748   15.3611 H   0  0  0  0  0  0  0  0  0  0  0  0
   19.4538   13.8886   12.2482 H   0  0  0  0  0  0  0  0  0  0  0  0
   21.0711   14.4578   10.0772 H   0  0  0  0  0  0  0  0  0  0  0  0
   22.2781   15.2049    6.0343 H   0  0  0  0  0  0  0  0  0  0  0  0
  1  2  1  0
  2  3  1  0
  3  4  2  0
  4  5  1  0
  5  6  1  0
  6  7  2  0
  6  8  2  0
  6  9  1  0
  9 10  1  0
 10 11  2  0
 11 12  1  0
 12 13  2  0
 12 14  1  0
 14 15  1  0
 15 16  1  0
 16 17  1  0
 17 18  1  0
 18 19  2  0
 18 20  1  0
 20 21  1  0
 21 22  2  0
 11 23  1  0
 23 24  2  0
 24 25  1  0
 25 26  2  0
 26 27  1  0
 27 28  1  0
  5 29  1  0
 29 30  2  0
 30  3  1  0
 28  9  2  0
 21 15  1  0
 27 23  1  0
  1 31  1  0
  1 32  1  0
  1 33  1  0
  2 34  1  0
  2 35  1  0
  4 36  1  0
 10 37  1  0
 14 38  1  0
 15 39  1  6
 16 40  1  0
 16 41  1  0
 17 42  1  0
 17 43  1  0
 20 44  1  0
 24 45  1  0
 26 46  1  0
 28 47  1  0
 29 48  1  0
M  END
>  <meeko>  (530) 
{"is_sidechain": [true], "free_energy": -10.73, "intermolecular_energy": 0.0, "internal_energy": -10.73, "cluster_size": 20, "cluster_id": 1, "rank_in_cluster": 1}

>  <_RMSD_MCS_to_ref>  (530) 
0.5488392802593078

$$$$
ligand
     RDKit          3D

 47 50  0  0  0  0  0  0  0  0999 V2000
   18.9090   19.1540    7.5370 C   0  0  0  0  0  0  0  0  0  0  0  0
   18.7730   17.6460    7.6780 C   0  0  0  0  0  0  0  0  0  0  0  0
   20.0950   16.9610    7.6790 C   0  0  0  0  0  0  0  0  0  0  0  0
   20.7720   16.3830    8.7340 C   0  0  0  0  0  0  0  0  0  0  0  0
   21.9140   15.8910    8.1680 N   0  0  0  0  0  0  0  0  0  0  0  0
   23.2200   15.2450    8.9930 S   0  0  0  0  0  6  0  0  0  0  0  0
   24.3480   16.1140    8.7100 O   0  0  0  0  0  0  0  0  0  0  0  0
   23.2330   13.8280    8.6820 O   0  0  0  0  0  0  0  0  0  0  0  0
   22.9220   15.3720   10.7460 C   0  0  0  0  0  0  0  0  0  0  0  0
   23.8000   16.3050   11.5030 C   0  0  0  0  0  0  0  0  0  0  0  0
   23.5930   16.4180   12.8250 C   0  0  0  0  0  0  0  0  0  0  0  0
   24.4730   17.3510   13.5920 C   0  0  0  0  0  0  0  0  0  0  0  0
   25.5980   17.6410   13.1910 O   0  0  0  0  0  0  0  0  0  0  0  0
   23.9510   17.8490   14.7550 N   0  0  0  0  0  0  0  0  0  0  0  0
   24.7090   18.7170   15.6390 C   0  0  1  0  0  0  0  0  0  0  0  0
   25.8370   17.9610   16.3360 C   0  0  0  0  0  0  0  0  0  0  0  0
   26.6030   18.9110   17.2420 C   0  0  0  0  0  0  0  0  0  0  0  0
   27.1200   20.1040   16.4750 C   0  0  0  0  0  0  0  0  0  0  0  0
   28.1740   20.6650   16.7610 O   0  0  0  0  0  0  0  0  0  0  0  0
   26.3330   20.5630   15.4500 N   0  0  0  0  0  0  0  0  0  0  0  0
   25.3010   19.8860   14.8440 C   0  0  0  0  0  0  0  0  0  0  0  0
   24.8860   20.2340   13.7400 O   0  0  0  0  0  0  0  0  0  0  0  0
   22.5610   15.6600   13.4280 C   0  0  0  0  0  0  0  0  0  0  0  0
   22.1410   15.5800   14.6770 N   0  0  0  0  0  0  0  0  0  0  0  0
   21.1100   14.6750   14.6560 C   0  0  0  0  0  0  0  0  0  0  0  0
   20.8990   14.2030   13.3820 C   0  0  0  0  0  0  0  0  0  0  0  0
   21.8240   14.8330   12.5990 N   0  0  0  0  0  0  0  0  0  0  0  0
   21.9640   14.6550   11.2600 N   0  0  0  0  0  0  0  0  0  0  0  0
   21.9330   16.2160    6.8500 C   0  0  0  0  0  0  0  0  0  0  0  0
   20.8300   16.8520    6.5140 N   0  0  0  0  0  0  0  0  0  0  0  0
   18.9504   19.6134    8.5356 H   0  0  0  0  0  0  0  0  0  0  0  0
   19.8320   19.3891    6.9867 H   0  0  0  0  0  0  0  0  0  0  0  0
   18.0430   19.5504    6.9867 H   0  0  0  0  0  0  0  0  0  0  0  0
   18.2577   17.4235    8.6240 H   0  0  0  0  0  0  0  0  0  0  0  0
   18.2008   17.2758    6.8145 H   0  0  0  0  0  0  0  0  0  0  0  0
   20.4630   16.3306    9.7884 H   0  0  0  0  0  0  0  0  0  0  0  0
   24.5896   16.8810   10.9982 H   0  0  0  0  0  0  0  0  0  0  0  0
   22.9856   17.5992   15.0127 H   0  0  0  0  0  0  0  0  0  0  0  0
   24.0181   19.0951   16.4070 H   0  0  0  0  0  0  0  0  0  0  0  0
   25.4129   17.1435   16.9375 H   0  0  0  0  0  0  0  0  0  0  0  0
   26.5202   17.5458   15.5805 H   0  0  0  0  0  0  0  0  0  0  0  0
   25.9335   19.2617   18.0412 H   0  0  0  0  0  0  0  0  0  0  0  0
   27.4631   18.3704   17.6637 H   0  0  0  0  0  0  0  0  0  0  0  0
   26.5353   21.5099   15.0989 H   0  0  0  0  0  0  0  0  0  0  0  0
   20.5304   14.3684   15.5392 H   0  0  0  0  0  0  0  0  0  0  0  0
   20.1433   13.4711   13.0606 H   0  0  0  0  0  0  0  0  0  0  0  0
   22.7556   15.9807    6.1587 H   0  0  0  0  0  0  0  0  0  0  0  0
  1  2  1  0
  2  3  1  0
  3  4  2  0
  4  5  1  0
  5  6  1  0
  6  7  2  0
  6  8  2  0
  6  9  1  0
  9 10  1  0
 10 11  2  0
 11 12  1  0
 12 13  2  0
 12 14  1  0
 14 15  1  0
 15 16  1  0
 16 17  1  0
 17 18  1  0
 18 19  2  0
 18 20  1  0
 20 21  1  0
 21 22  2  0
 11 23  1  0
 23 24  2  0
 24 25  1  0
 25 26  2  0
 26 27  1  0
 27 28  1  0
  5 29  1  0
 29 30  2  0
 30  3  1  0
 28  9  2  0
 21 15  1  0
 27 23  1  0
  1 31  1  0
  1 32  1  0
  1 33  1  0
  2 34  1  0
  2 35  1  0
  4 36  1  0
 10 37  1  0
 14 38  1  0
 15 39  1  1
 16 40  1  0
 16 41  1  0
 17 42  1  0
 17 43  1  0
 20 44  1  0
 25 45  1  0
 26 46  1  0
 29 47  1  0
M  END
>  <meeko>  (531) 
{"is_sidechain": [true], "free_energy": -10.73, "intermolecular_energy": 0.0, "internal_energy": -10.73, "cluster_size": 20, "cluster_id": 1, "rank_in_cluster": 1}

>  <_RMSD_MCS_to_ref>  (531) 
0.7908961864731536

$$$$
ligand
     RDKit          3D

 46 49  0  0  0  0  0  0  0  0999 V2000
   18.9090   19.1540    7.5370 C   0  0  0  0  0  0  0  0  0  0  0  0
   18.7730   17.6460    7.6780 C   0  0  0  0  0  0  0  0  0  0  0  0
   20.0680   16.9430    7.4730 C   0  0  0  0  0  0  0  0  0  0  0  0
   21.1020   16.7470    8.3680 C   0  0  0  0  0  0  0  0  0  0  0  0
   22.0230   16.0280    7.6630 N   0  0  0  0  0  0  0  0  0  0  0  0
   23.5900   15.6840    8.1540 S   0  0  0  0  0  6  0  0  0  0  0  0
   23.8280   14.2890    7.8490 O   0  0  0  0  0  0  0  0  0  0  0  0
   24.4150   16.7580    7.6310 O   0  0  0  0  0  0  0  0  0  0  0  0
   23.5700   15.8650    9.9040 C   0  0  0  0  0  0  0  0  0  0  0  0
   24.5870   16.5550   10.5640 C   0  0  0  0  0  0  0  0  0  0  0  0
   24.5220   16.6760   11.9520 C   0  0  0  0  0  0  0  0  0  0  0  0
   25.6230   17.4060   12.6620 C   0  0  0  0  0  0  0  0  0  0  0  0
   26.6000   17.8280   12.0550 O   0  0  0  0  0  0  0  0  0  0  0  0
   25.4430   17.5580   14.0180 N   0  0  0  0  0  0  0  0  0  0  0  0
   26.3380   18.3530   14.8410 C   0  0  2  0  0  0  0  0  0  0  0  0
   26.1400   18.0720   16.3280 C   0  0  0  0  0  0  0  0  0  0  0  0
   27.0870   18.9410   17.1390 C   0  0  0  0  0  0  0  0  0  0  0  0
   26.9040   20.4040   16.8150 C   0  0  0  0  0  0  0  0  0  0  0  0
   27.0660   21.2890   17.6510 O   0  0  0  0  0  0  0  0  0  0  0  0
   26.5790   20.7110   15.5180 N   0  0  0  0  0  0  0  0  0  0  0  0
   26.0900   19.8400   14.5740 C   0  0  0  0  0  0  0  0  0  0  0  0
   25.5100   20.2570   13.5730 O   0  0  0  0  0  0  0  0  0  0  0  0
   23.5370   16.1840   12.7500 N   0  0  0  0  0  0  0  0  0  0  0  0
   22.5550   15.5400   12.0840 C   0  0  0  0  0  0  0  0  0  0  0  0
   21.4460   14.9550   12.6210 N   0  0  0  0  0  0  0  0  0  0  0  0
   20.7330   14.4340   11.6250 N   0  0  0  0  0  0  0  0  0  0  0  0
   21.3860   14.6940   10.4790 N   0  0  0  0  0  0  0  0  0  0  0  0
   22.5480   15.3760   10.7100 C   0  0  0  0  0  0  0  0  0  0  0  0
   21.5720   15.8440    6.3960 C   0  0  0  0  0  0  0  0  0  0  0  0
   20.3820   16.3860    6.2490 N   0  0  0  0  0  0  0  0  0  0  0  0
   18.9504   19.6134    8.5356 H   0  0  0  0  0  0  0  0  0  0  0  0
   19.8320   19.3891    6.9867 H   0  0  0  0  0  0  0  0  0  0  0  0
   18.0430   19.5504    6.9867 H   0  0  0  0  0  0  0  0  0  0  0  0
   18.4015   17.4168    8.6877 H   0  0  0  0  0  0  0  0  0  0  0  0
   18.0731   17.2965    6.9047 H   0  0  0  0  0  0  0  0  0  0  0  0
   21.1678   17.0917    9.4105 H   0  0  0  0  0  0  0  0  0  0  0  0
   25.4234   16.9948   10.0011 H   0  0  0  0  0  0  0  0  0  0  0  0
   24.6427   17.0899   14.4667 H   0  0  0  0  0  0  0  0  0  0  0  0
   27.3701   18.0803   14.5757 H   0  0  0  0  0  0  0  0  0  0  0  0
   25.1014   18.3005   16.6091 H   0  0  0  0  0  0  0  0  0  0  0  0
   26.3505   17.0117   16.5317 H   0  0  0  0  0  0  0  0  0  0  0  0
   26.8891   18.7838   18.2096 H   0  0  0  0  0  0  0  0  0  0  0  0
   28.1195   18.6567   16.8877 H   0  0  0  0  0  0  0  0  0  0  0  0
   26.7145   21.6886   15.2233 H   0  0  0  0  0  0  0  0  0  0  0  0
   21.0530   14.4147    9.5452 H   0  0  0  0  0  0  0  0  0  0  0  0
   22.1235   15.3163    5.6039 H   0  0  0  0  0  0  0  0  0  0  0  0
  1  2  1  0
  2  3  1  0
  3  4  2  0
  4  5  1  0
  5  6  1  0
  6  7  2  0
  6  8  2  0
  6  9  1  0
  9 10  2  0
 10 11  1  0
 11 12  1  0
 12 13  2  0
 12 14  1  0
 14 15  1  0
 15 16  1  0
 16 17  1  0
 17 18  1  0
 18 19  2  0
 18 20  1  0
 20 21  1  0
 21 22  2  0
 11 23  2  0
 23 24  1  0
 24 25  1  0
 25 26  2  0
 26 27  1  0
 27 28  1  0
  5 29  1  0
 29 30  2  0
 30  3  1  0
 28  9  1  0
 21 15  1  0
 28 24  2  0
  1 31  1  0
  1 32  1  0
  1 33  1  0
  2 34  1  0
  2 35  1  0
  4 36  1  0
 10 37  1  0
 14 38  1  0
 15 39  1  6
 16 40  1  0
 16 41  1  0
 17 42  1  0
 17 43  1  0
 20 44  1  0
 27 45  1  0
 29 46  1  0
M  END
>  <meeko>  (532) 
{"is_sidechain": [true], "free_energy": -10.73, "intermolecular_energy": 0.0, "internal_energy": -10.73, "cluster_size": 19, "cluster_id": 1, "rank_in_cluster": 1}

>  <_RMSD_MCS_to_ref>  (532) 
0.9343845270788923

$$$$
ligand
     RDKit          3D

 50 53  0  0  0  0  0  0  0  0999 V2000
   18.9090   19.1540    7.5370 C   0  0  0  0  0  0  0  0  0  0  0  0
   18.7730   17.6460    7.6780 C   0  0  0  0  0  0  0  0  0  0  0  0
   20.0940   16.9620    7.6970 C   0  0  0  0  0  0  0  0  0  0  0  0
   20.9850   16.8250    8.7440 C   0  0  0  0  0  0  0  0  0  0  0  0
   22.0290   16.1280    8.2070 N   0  0  0  0  0  0  0  0  0  0  0  0
   23.3800   15.5700    9.0300 S   0  0  0  0  0  6  0  0  0  0  0  0
   24.3640   16.6340    8.9420 O   0  0  0  0  0  0  0  0  0  0  0  0
   23.6380   14.2370    8.5160 O   0  0  0  0  0  0  0  0  0  0  0  0
   22.8930   15.4180   10.7240 C   0  0  0  0  0  0  0  0  0  0  0  0
   23.6230   16.0860   11.7030 C   0  0  0  0  0  0  0  0  0  0  0  0
   23.2140   15.9330   13.0280 C   0  0  0  0  0  0  0  0  0  0  0  0
   23.9420   16.5940   14.1410 C   0  0  0  0  0  0  0  0  0  0  0  0
   24.2920   15.9570   15.1250 O   0  0  0  0  0  0  0  0  0  0  0  0
   24.1720   17.9440   14.0000 N   0  0  0  0  0  0  0  0  0  0  0  0
   24.7450   18.7240   15.0900 C   0  0  1  0  0  0  0  0  0  0  0  0
   25.8590   17.9750   15.8120 C   0  0  0  0  0  0  0  0  0  0  0  0
   26.4370   18.8600   16.9060 C   0  0  0  0  0  0  0  0  0  0  0  0
   26.9160   20.1800   16.3490 C   0  0  0  0  0  0  0  0  0  0  0  0
   27.8850   20.7770   16.8090 O   0  0  0  0  0  0  0  0  0  0  0  0
   26.1930   20.7080   15.3100 N   0  0  0  0  0  0  0  0  0  0  0  0
   25.3120   20.0240   14.5100 C   0  0  0  0  0  0  0  0  0  0  0  0
   24.9930   20.4470   13.4000 O   0  0  0  0  0  0  0  0  0  0  0  0
   22.1220   15.1180   13.2800 C   0  0  0  0  0  0  0  0  0  0  0  0
   21.4470   14.5260   12.2190 C   0  0  0  0  0  0  0  0  0  0  0  0
   21.8060   14.6380   10.9420 N   0  0  0  0  0  0  0  0  0  0  0  0
   20.3030   13.8160   12.6420 N   0  0  0  0  0  0  0  0  0  0  0  0
   20.5800   13.5520   14.0520 C   0  0  0  0  0  0  0  0  0  0  0  0
   21.4530   14.7210   14.5540 C   0  0  0  0  0  0  0  0  0  0  0  0
   21.7460   15.8310    6.9110 C   0  0  0  0  0  0  0  0  0  0  0  0
   20.5820   16.3420    6.5630 N   0  0  0  0  0  0  0  0  0  0  0  0
   18.9504   19.6134    8.5356 H   0  0  0  0  0  0  0  0  0  0  0  0
   19.8320   19.3891    6.9867 H   0  0  0  0  0  0  0  0  0  0  0  0
   18.0430   19.5504    6.9867 H   0  0  0  0  0  0  0  0  0  0  0  0
   18.2457   17.4242    8.6175 H   0  0  0  0  0  0  0  0  0  0  0  0
   18.2129   17.2745    6.8072 H   0  0  0  0  0  0  0  0  0  0  0  0
   20.8778   17.1934    9.7749 H   0  0  0  0  0  0  0  0  0  0  0  0
   24.4897   16.7110   11.4418 H   0  0  0  0  0  0  0  0  0  0  0  0
   23.9359   18.4094   13.1120 H   0  0  0  0  0  0  0  0  0  0  0  0
   23.9498   18.9241   15.8232 H   0  0  0  0  0  0  0  0  0  0  0  0
   25.4529   17.0560   16.2598 H   0  0  0  0  0  0  0  0  0  0  0  0
   26.6508   17.7136   15.0945 H   0  0  0  0  0  0  0  0  0  0  0  0
   25.6597   19.0505   17.6607 H   0  0  0  0  0  0  0  0  0  0  0  0
   27.2964   18.3404   17.3548 H   0  0  0  0  0  0  0  0  0  0  0  0
   26.3231   21.7103   15.1117 H   0  0  0  0  0  0  0  0  0  0  0  0
   19.4747   13.5490   12.0910 H   0  0  0  0  0  0  0  0  0  0  0  0
   19.6402   13.5076   14.6220 H   0  0  0  0  0  0  0  0  0  0  0  0
   21.0933   12.5879   14.1825 H   0  0  0  0  0  0  0  0  0  0  0  0
   20.8422   15.5382   14.9651 H   0  0  0  0  0  0  0  0  0  0  0  0
   22.1391   14.4649   15.3748 H   0  0  0  0  0  0  0  0  0  0  0  0
   22.3976   15.2458    6.2455 H   0  0  0  0  0  0  0  0  0  0  0  0
  1  2  1  0
  2  3  1  0
  3  4  2  0
  4  5  1  0
  5  6  1  0
  6  7  2  0
  6  8  2  0
  6  9  1  0
  9 10  2  0
 10 11  1  0
 11 12  1  0
 12 13  2  0
 12 14  1  0
 14 15  1  0
 15 16  1  0
 16 17  1  0
 17 18  1  0
 18 19  2  0
 18 20  1  0
 20 21  1  0
 21 22  2  0
 11 23  2  0
 23 24  1  0
 24 25  2  0
 24 26  1  0
 26 27  1  0
 27 28  1  0
  5 29  1  0
 29 30  2  0
 30  3  1  0
 25  9  1  0
 21 15  1  0
 28 23  1  0
  1 31  1  0
  1 32  1  0
  1 33  1  0
  2 34  1  0
  2 35  1  0
  4 36  1  0
 10 37  1  0
 14 38  1  0
 15 39  1  1
 16 40  1  0
 16 41  1  0
 17 42  1  0
 17 43  1  0
 20 44  1  0
 26 45  1  0
 27 46  1  0
 27 47  1  0
 28 48  1  0
 28 49  1  0
 29 50  1  0
M  END
>  <meeko>  (533) 
{"is_sidechain": [true], "free_energy": -10.73, "intermolecular_energy": 0.0, "internal_energy": -10.73, "cluster_size": 20, "cluster_id": 1, "rank_in_cluster": 1}

>  <_RMSD_MCS_to_ref>  (533) 
0.4839802567139377

$$$$
ligand
     RDKit          3D

 49 52  0  0  0  0  0  0  0  0999 V2000
   18.9090   19.1540    7.5370 C   0  0  0  0  0  0  0  0  0  0  0  0
   18.7730   17.6460    7.6780 C   0  0  0  0  0  0  0  0  0  0  0  0
   20.0170   16.9320    7.2800 C   0  0  0  0  0  0  0  0  0  0  0  0
   20.5520   15.7680    7.7970 C   0  0  0  0  0  0  0  0  0  0  0  0
   21.6880   15.5700    7.0630 N   0  0  0  0  0  0  0  0  0  0  0  0
   22.7460   14.2780    7.2290 S   0  0  0  0  0  6  0  0  0  0  0  0
   23.1350   13.9650    5.8640 O   0  0  0  0  0  0  0  0  0  0  0  0
   22.0980   13.2960    8.0750 O   0  0  0  0  0  0  0  0  0  0  0  0
   24.1820   14.8730    8.0640 C   0  0  0  0  0  0  0  0  0  0  0  0
   25.4190   14.7460    7.4140 C   0  0  0  0  0  0  0  0  0  0  0  0
   26.5690   15.2050    8.0410 C   0  0  0  0  0  0  0  0  0  0  0  0
   26.4710   15.7800    9.3050 C   0  0  0  0  0  0  0  0  0  0  0  0
   25.2520   15.9020    9.9580 C   0  0  0  0  0  0  0  0  0  0  0  0
   25.2410   16.4690   11.1790 N   0  0  0  0  0  0  0  0  0  0  0  0
   24.0290   16.5710   11.7870 C   0  0  0  0  0  0  0  0  0  0  0  0
   23.9920   17.2010   13.1350 C   0  0  0  0  0  0  0  0  0  0  0  0
   22.9730   17.1970   13.8150 O   0  0  0  0  0  0  0  0  0  0  0  0
   25.1750   17.7820   13.5330 N   0  0  0  0  0  0  0  0  0  0  0  0
   25.2870   18.5830   14.7390 C   0  0  1  0  0  0  0  0  0  0  0  0
   26.2070   17.9380   15.7700 C   0  0  0  0  0  0  0  0  0  0  0  0
   26.3020   18.8340   16.9960 C   0  0  0  0  0  0  0  0  0  0  0  0
   26.7610   20.2240   16.6250 C   0  0  0  0  0  0  0  0  0  0  0  0
   27.4600   20.9070   17.3660 O   0  0  0  0  0  0  0  0  0  0  0  0
   26.3290   20.7100   15.4170 N   0  0  0  0  0  0  0  0  0  0  0  0
   25.8370   19.9660   14.3730 C   0  0  0  0  0  0  0  0  0  0  0  0
   25.8310   20.4100   13.2260 O   0  0  0  0  0  0  0  0  0  0  0  0
   22.8700   16.1220   11.1930 C   0  0  0  0  0  0  0  0  0  0  0  0
   22.8770   15.5490    9.9640 N   0  0  0  0  0  0  0  0  0  0  0  0
   24.0660   15.4360    9.3310 C   0  0  0  0  0  0  0  0  0  0  0  0
   21.8190   16.5770    6.1620 C   0  0  0  0  0  0  0  0  0  0  0  0
   20.8140   17.4230    6.2660 N   0  0  0  0  0  0  0  0  0  0  0  0
   18.9504   19.6134    8.5356 H   0  0  0  0  0  0  0  0  0  0  0  0
   19.8320   19.3891    6.9867 H   0  0  0  0  0  0  0  0  0  0  0  0
   18.0430   19.5504    6.9867 H   0  0  0  0  0  0  0  0  0  0  0  0
   18.5471   17.4068    8.7277 H   0  0  0  0  0  0  0  0  0  0  0  0
   17.9640   17.3149    7.0102 H   0  0  0  0  0  0  0  0  0  0  0  0
   20.1553   15.1443    8.6116 H   0  0  0  0  0  0  0  0  0  0  0  0
   25.4768   14.2866    6.4162 H   0  0  0  0  0  0  0  0  0  0  0  0
   27.5467   15.1155    7.5448 H   0  0  0  0  0  0  0  0  0  0  0  0
   27.3827   16.1471    9.7990 H   0  0  0  0  0  0  0  0  0  0  0  0
   26.0141   17.6429   12.9521 H   0  0  0  0  0  0  0  0  0  0  0  0
   24.2845   18.6648   15.1844 H   0  0  0  0  0  0  0  0  0  0  0  0
   25.8005   16.9585   16.0623 H   0  0  0  0  0  0  0  0  0  0  0  0
   27.2085   17.8044   15.3350 H   0  0  0  0  0  0  0  0  0  0  0  0
   25.3117   18.8983   17.4705 H   0  0  0  0  0  0  0  0  0  0  0  0
   27.0375   18.3985   17.6884 H   0  0  0  0  0  0  0  0  0  0  0  0
   26.3784   21.7297   15.2802 H   0  0  0  0  0  0  0  0  0  0  0  0
   21.9155   16.2310   11.7288 H   0  0  0  0  0  0  0  0  0  0  0  0
   22.6480   16.6733    5.4454 H   0  0  0  0  0  0  0  0  0  0  0  0
  1  2  1  0
  2  3  1  0
  3  4  2  0
  4  5  1  0
  5  6  1  0
  6  7  2  0
  6  8  2  0
  6  9  1  0
  9 10  2  0
 10 11  1  0
 11 12  2  0
 12 13  1  0
 13 14  2  0
 14 15  1  0
 15 16  1  0
 16 17  2  0
 16 18  1  0
 18 19  1  0
 19 20  1  0
 20 21  1  0
 21 22  1  0
 22 23  2  0
 22 24  1  0
 24 25  1  0
 25 26  2  0
 15 27  2  0
 27 28  1  0
 28 29  2  0
  5 30  1  0
 30 31  2  0
 31  3  1  0
 29  9  1  0
 29 13  1  0
 25 19  1  0
  1 32  1  0
  1 33  1  0
  1 34  1  0
  2 35  1  0
  2 36  1  0
  4 37  1  0
 10 38  1  0
 11 39  1  0
 12 40  1  0
 18 41  1  0
 19 42  1  1
 20 43  1  0
 20 44  1  0
 21 45  1  0
 21 46  1  0
 24 47  1  0
 27 48  1  0
 30 49  1  0
M  END
>  <meeko>  (534) 
{"is_sidechain": [true], "free_energy": -10.73, "intermolecular_energy": 0.0, "internal_energy": -10.73, "cluster_size": 18, "cluster_id": 1, "rank_in_cluster": 1}

>  <_RMSD_MCS_to_ref>  (534) 
0.6013195674699284

$$$$
ligand
     RDKit          3D

 47 50  0  0  0  0  0  0  0  0999 V2000
   18.9090   19.1540    7.5370 C   0  0  0  0  0  0  0  0  0  0  0  0
   18.7730   17.6460    7.6780 C   0  0  0  0  0  0  0  0  0  0  0  0
   19.9810   16.9250    7.1930 C   0  0  0  0  0  0  0  0  0  0  0  0
   20.8600   16.1270    7.8990 C   0  0  0  0  0  0  0  0  0  0  0  0
   21.7600   15.7080    6.9620 N   0  0  0  0  0  0  0  0  0  0  0  0
   23.2310   14.9480    7.2830 S   0  0  0  0  0  6  0  0  0  0  0  0
   24.2070   15.7000    6.5130 O   0  0  0  0  0  0  0  0  0  0  0  0
   22.9900   13.5410    7.0300 O   0  0  0  0  0  0  0  0  0  0  0  0
   23.5770   15.1980    8.9840 C   0  0  0  0  0  0  0  0  0  0  0  0
   23.0520   14.3520    9.8850 C   0  0  0  0  0  0  0  0  0  0  0  0
   23.3290   14.5330   11.2320 N   0  0  0  0  0  0  0  0  0  0  0  0
   22.8940   13.8070   12.2780 N   0  0  0  0  0  0  0  0  0  0  0  0
   23.3800   14.3460   13.3870 N   0  0  0  0  0  0  0  0  0  0  0  0
   24.1590   15.4330   13.0540 C   0  0  0  0  0  0  0  0  0  0  0  0
   24.8140   16.2240   14.0980 C   0  0  0  0  0  0  0  0  0  0  0  0
   25.2470   15.7050   15.1240 O   0  0  0  0  0  0  0  0  0  0  0  0
   24.9370   17.5830   13.8790 N   0  0  0  0  0  0  0  0  0  0  0  0
   25.2390   18.4750   14.9870 C   0  0  1  0  0  0  0  0  0  0  0  0
   26.3420   17.8990   15.8660 C   0  0  0  0  0  0  0  0  0  0  0  0
   26.6460   18.8670   16.9980 C   0  0  0  0  0  0  0  0  0  0  0  0
   27.0010   20.2360   16.4670 C   0  0  0  0  0  0  0  0  0  0  0  0
   27.8390   20.9540   17.0050 O   0  0  0  0  0  0  0  0  0  0  0  0
   26.3220   20.6570   15.3510 N   0  0  0  0  0  0  0  0  0  0  0  0
   25.7040   19.8340   14.4400 C   0  0  0  0  0  0  0  0  0  0  0  0
   25.5550   20.1900   13.2720 O   0  0  0  0  0  0  0  0  0  0  0  0
   24.1380   15.5580   11.6780 C   0  0  0  0  0  0  0  0  0  0  0  0
   24.7280   16.4630   10.7370 C   0  0  0  0  0  0  0  0  0  0  0  0
   25.4790   17.3860   11.0400 O   0  0  0  0  0  0  0  0  0  0  0  0
   24.3990   16.2280    9.4170 N   0  0  0  0  0  0  0  0  0  0  0  0
   21.4590   16.2800    5.7680 C   0  0  0  0  0  0  0  0  0  0  0  0
   20.3750   17.0200    5.8730 N   0  0  0  0  0  0  0  0  0  0  0  0
   18.9504   19.6134    8.5356 H   0  0  0  0  0  0  0  0  0  0  0  0
   19.8320   19.3891    6.9867 H   0  0  0  0  0  0  0  0  0  0  0  0
   18.0430   19.5504    6.9867 H   0  0  0  0  0  0  0  0  0  0  0  0
   18.6171   17.4020    8.7392 H   0  0  0  0  0  0  0  0  0  0  0  0
   17.9188   17.3250    7.0638 H   0  0  0  0  0  0  0  0  0  0  0  0
   20.8395   15.8844    8.9717 H   0  0  0  0  0  0  0  0  0  0  0  0
   22.4078   13.5226    9.5577 H   0  0  0  0  0  0  0  0  0  0  0  0
   24.8146   17.9644   12.9301 H   0  0  0  0  0  0  0  0  0  0  0  0
   24.3266   18.5946   15.5897 H   0  0  0  0  0  0  0  0  0  0  0  0
   26.0120   16.9370   16.2850 H   0  0  0  0  0  0  0  0  0  0  0  0
   27.2486   17.7447   15.2624 H   0  0  0  0  0  0  0  0  0  0  0  0
   25.7604   18.9518   17.6449 H   0  0  0  0  0  0  0  0  0  0  0  0
   27.5055   18.4802   17.5651 H   0  0  0  0  0  0  0  0  0  0  0  0
   26.2715   21.6719   15.1825 H   0  0  0  0  0  0  0  0  0  0  0  0
   24.7907   16.8608    8.7050 H   0  0  0  0  0  0  0  0  0  0  0  0
   22.0390   16.1443    4.8432 H   0  0  0  0  0  0  0  0  0  0  0  0
  1  2  1  0
  2  3  1  0
  3  4  2  0
  4  5  1  0
  5  6  1  0
  6  7  2  0
  6  8  2  0
  6  9  1  0
  9 10  2  0
 10 11  1  0
 11 12  1  0
 12 13  2  0
 13 14  1  0
 14 15  1  0
 15 16  2  0
 15 17  1  0
 17 18  1  0
 18 19  1  0
 19 20  1  0
 20 21  1  0
 21 22  2  0
 21 23  1  0
 23 24  1  0
 24 25  2  0
 14 26  2  0
 26 27  1  0
 27 28  2  0
 27 29  1  0
  5 30  1  0
 30 31  2  0
 31  3  1  0
 29  9  1  0
 26 11  1  0
 24 18  1  0
  1 32  1  0
  1 33  1  0
  1 34  1  0
  2 35  1  0
  2 36  1  0
  4 37  1  0
 10 38  1  0
 17 39  1  0
 18 40  1  1
 19 41  1  0
 19 42  1  0
 20 43  1  0
 20 44  1  0
 23 45  1  0
 29 46  1  0
 30 47  1  0
M  END
>  <meeko>  (535) 
{"is_sidechain": [true], "free_energy": -10.73, "intermolecular_energy": 0.0, "internal_energy": -10.73, "cluster_size": 10, "cluster_id": 1, "rank_in_cluster": 1}

>  <_RMSD_MCS_to_ref>  (535) 
0.5591004680138743

$$$$
ligand
     RDKit          3D

 52 56  0  0  0  0  0  0  0  0999 V2000
   18.8250   19.0170    7.5350 C   0  0  0  0  0  0  0  0  0  0  0  0
   18.5200   17.5420    7.7330 C   0  0  0  0  0  0  0  0  0  0  0  0
   19.7300   16.7630    8.1130 C   0  0  0  0  0  0  0  0  0  0  0  0
   20.3060   16.6080    9.3580 C   0  0  0  0  0  0  0  0  0  0  0  0
   21.3820   15.7950    9.1310 N   0  0  0  0  0  0  0  0  0  0  0  0
   22.4960   15.3050   10.2890 S   0  0  0  0  0  6  0  0  0  0  0  0
   22.9970   14.0480    9.7590 O   0  0  0  0  0  0  0  0  0  0  0  0
   23.3770   16.4230   10.5430 O   0  0  0  0  0  0  0  0  0  0  0  0
   21.5840   14.9320   11.7700 C   0  0  0  0  0  0  0  0  0  0  0  0
   20.2760   14.4530   11.6000 C   0  0  0  0  0  0  0  0  0  0  0  0
   19.4580   14.1920   12.7120 C   0  0  0  0  0  0  0  0  0  0  0  0
   18.1470   13.7200   12.5680 C   0  0  0  0  0  0  0  0  0  0  0  0
   17.3730   13.4790   13.6970 C   0  0  0  0  0  0  0  0  0  0  0  0
   17.9400   13.7210   14.9340 C   0  0  0  0  0  0  0  0  0  0  0  0
   19.2000   14.1770   15.1080 N   0  0  0  0  0  0  0  0  0  0  0  0
   19.9460   14.4040   14.0150 C   0  0  0  0  0  0  0  0  0  0  0  0
   21.2480   14.8620   14.1630 C   0  0  0  0  0  0  0  0  0  0  0  0
   22.0850   15.1270   13.0620 C   0  0  0  0  0  0  0  0  0  0  0  0
   23.4320   15.5550   13.3390 C   0  0  0  0  0  0  0  0  0  0  0  0
   23.8270   16.3500   14.3890 C   0  0  0  0  0  0  0  0  0  0  0  0
   25.1640   16.5370   14.1650 N   0  0  0  0  0  0  0  0  0  0  0  0
   26.0600   17.4400   14.8650 C   0  0  2  0  0  0  0  0  0  0  0  0
   25.7210   17.6130   16.3510 C   0  0  0  0  0  0  0  0  0  0  0  0
   26.7170   18.5640   16.9960 C   0  0  0  0  0  0  0  0  0  0  0  0
   26.7320   19.8950   16.2830 C   0  0  0  0  0  0  0  0  0  0  0  0
   27.1440   20.9210   16.8150 O   0  0  0  0  0  0  0  0  0  0  0  0
   26.3390   19.8860   14.9690 N   0  0  0  0  0  0  0  0  0  0  0  0
   26.1060   18.7890   14.1690 C   0  0  0  0  0  0  0  0  0  0  0  0
   26.0420   18.9260   12.9490 O   0  0  0  0  0  0  0  0  0  0  0  0
   25.5710   15.8450   13.0820 N   0  0  0  0  0  0  0  0  0  0  0  0
   24.5060   15.2550   12.5560 N   0  0  0  0  0  0  0  0  0  0  0  0
   21.4100   15.4500    7.8190 C   0  0  0  0  0  0  0  0  0  0  0  0
   20.4420   16.0600    7.1600 N   0  0  0  0  0  0  0  0  0  0  0  0
   18.9260   19.5054    8.5155 H   0  0  0  0  0  0  0  0  0  0  0  0
   19.7645   19.1250    6.9731 H   0  0  0  0  0  0  0  0  0  0  0  0
   18.0054   19.4887    6.9731 H   0  0  0  0  0  0  0  0  0  0  0  0
   17.7684   17.4396    8.5296 H   0  0  0  0  0  0  0  0  0  0  0  0
   18.1483   17.1432    6.7776 H   0  0  0  0  0  0  0  0  0  0  0  0
   19.9751   17.0397   10.3141 H   0  0  0  0  0  0  0  0  0  0  0  0
   19.8872   14.2801   10.5857 H   0  0  0  0  0  0  0  0  0  0  0  0
   17.7317   13.5408   11.5653 H   0  0  0  0  0  0  0  0  0  0  0  0
   16.3415   13.1073   13.6088 H   0  0  0  0  0  0  0  0  0  0  0  0
   17.3298   13.5313   15.8293 H   0  0  0  0  0  0  0  0  0  0  0  0
   21.6404   15.0239   15.1778 H   0  0  0  0  0  0  0  0  0  0  0  0
   23.2138   16.7426   15.2135 H   0  0  0  0  0  0  0  0  0  0  0  0
   27.0553   16.9729   14.8301 H   0  0  0  0  0  0  0  0  0  0  0  0
   24.7058   18.0250   16.4490 H   0  0  0  0  0  0  0  0  0  0  0  0
   25.7727   16.6355   16.8529 H   0  0  0  0  0  0  0  0  0  0  0  0
   26.4348   18.7220   18.0474 H   0  0  0  0  0  0  0  0  0  0  0  0
   27.7208   18.1190   16.9298 H   0  0  0  0  0  0  0  0  0  0  0  0
   26.2021   20.8071   14.5289 H   0  0  0  0  0  0  0  0  0  0  0  0
   22.1372   14.7590    7.3677 H   0  0  0  0  0  0  0  0  0  0  0  0
  1  2  1  0
  2  3  1  0
  3  4  2  0
  4  5  1  0
  5  6  1  0
  6  7  2  0
  6  8  2  0
  6  9  1  0
  9 10  2  0
 10 11  1  0
 11 12  2  0
 12 13  1  0
 13 14  2  0
 14 15  1  0
 15 16  2  0
 16 17  1  0
 17 18  2  0
 18 19  1  0
 19 20  2  0
 20 21  1  0
 21 22  1  0
 22 23  1  0
 23 24  1  0
 24 25  1  0
 25 26  2  0
 25 27  1  0
 27 28  1  0
 28 29  2  0
 21 30  1  0
 30 31  2  0
  5 32  1  0
 32 33  2  0
 33  3  1  0
 18  9  1  0
 31 19  1  0
 16 11  1  0
 28 22  1  0
  1 34  1  0
  1 35  1  0
  1 36  1  0
  2 37  1  0
  2 38  1  0
  4 39  1  0
 10 40  1  0
 12 41  1  0
 13 42  1  0
 14 43  1  0
 17 44  1  0
 20 45  1  0
 22 46  1  1
 23 47  1  0
 23 48  1  0
 24 49  1  0
 24 50  1  0
 27 51  1  0
 32 52  1  0
M  END
>  <meeko>  (536) 
{"is_sidechain": [true], "free_energy": -10.72, "intermolecular_energy": 0.0, "internal_energy": -10.72, "cluster_size": 20, "cluster_id": 1, "rank_in_cluster": 1}

>  <_RMSD_MCS_to_ref>  (536) 
1.1037952205408803

$$$$
ligand
     RDKit          3D

 49 52  0  0  0  0  0  0  0  0999 V2000
   18.7970   18.8170    7.7190 C   0  0  0  0  0  0  0  0  0  0  0  0
   18.5280   17.3290    7.8810 C   0  0  0  0  0  0  0  0  0  0  0  0
   19.7840   16.5380    7.9910 C   0  0  0  0  0  0  0  0  0  0  0  0
   20.1230   15.5690    8.9150 C   0  0  0  0  0  0  0  0  0  0  0  0
   21.3880   15.2000    8.5640 N   0  0  0  0  0  0  0  0  0  0  0  0
   22.2330   13.8840    9.1820 S   0  0  0  0  0  6  0  0  0  0  0  0
   23.0840   13.4250    8.1000 O   0  0  0  0  0  0  0  0  0  0  0  0
   21.2420   13.0320    9.8080 O   0  0  0  0  0  0  0  0  0  0  0  0
   23.2290   14.5970   10.4420 C   0  0  0  0  0  0  0  0  0  0  0  0
   24.5100   15.0890   10.1470 C   0  0  0  0  0  0  0  0  0  0  0  0
   25.3210   15.6420   11.1640 C   0  0  0  0  0  0  0  0  0  0  0  0
   24.8690   15.7120   12.4940 C   0  0  0  0  0  0  0  0  0  0  0  0
   25.6830   16.2810   13.6020 C   0  0  0  0  0  0  0  0  0  0  0  0
   26.4400   15.5650   14.2490 O   0  0  0  0  0  0  0  0  0  0  0  0
   25.5660   17.6340   13.8310 N   0  0  0  0  0  0  0  0  0  0  0  0
   26.4310   18.3100   14.7920 C   0  0  2  0  0  0  0  0  0  0  0  0
   26.0800   17.9630   16.2340 C   0  0  0  0  0  0  0  0  0  0  0  0
   26.9860   18.7400   17.1780 C   0  0  0  0  0  0  0  0  0  0  0  0
   26.9010   20.2270   16.9180 C   0  0  0  0  0  0  0  0  0  0  0  0
   26.9950   21.0580   17.8160 O   0  0  0  0  0  0  0  0  0  0  0  0
   26.7380   20.6140   15.6130 N   0  0  0  0  0  0  0  0  0  0  0  0
   26.2770   19.8210   14.5930 C   0  0  0  0  0  0  0  0  0  0  0  0
   25.7790   20.3070   13.5780 O   0  0  0  0  0  0  0  0  0  0  0  0
   23.5890   15.2440   12.7410 C   0  0  0  0  0  0  0  0  0  0  0  0
   22.8580   15.2160   13.9300 N   0  0  0  0  0  0  0  0  0  0  0  0
   21.5890   14.6850   13.6810 C   0  0  0  0  0  0  0  0  0  0  0  0
   20.6820   14.5450   14.4800 O   0  0  0  0  0  0  0  0  0  0  0  0
   21.5630   14.3500   12.3200 N   0  0  0  0  0  0  0  0  0  0  0  0
   22.7820   14.7000   11.7390 C   0  0  0  0  0  0  0  0  0  0  0  0
   21.7620   15.8860    7.4530 C   0  0  0  0  0  0  0  0  0  0  0  0
   20.8080   16.7150    7.0820 N   0  0  0  0  0  0  0  0  0  0  0  0
   18.8815   19.2845    8.7111 H   0  0  0  0  0  0  0  0  0  0  0  0
   19.7359   18.9616    7.1643 H   0  0  0  0  0  0  0  0  0  0  0  0
   17.9682   19.2812    7.1643 H   0  0  0  0  0  0  0  0  0  0  0  0
   17.9313   17.1743    8.7920 H   0  0  0  0  0  0  0  0  0  0  0  0
   17.9898   16.9843    6.9857 H   0  0  0  0  0  0  0  0  0  0  0  0
   19.5122   15.1831    9.7445 H   0  0  0  0  0  0  0  0  0  0  0  0
   24.8864   15.0438    9.1144 H   0  0  0  0  0  0  0  0  0  0  0  0
   26.3213   16.0236   10.9113 H   0  0  0  0  0  0  0  0  0  0  0  0
   24.8576   18.1765   13.3164 H   0  0  0  0  0  0  0  0  0  0  0  0
   27.4652   17.9793   14.6156 H   0  0  0  0  0  0  0  0  0  0  0  0
   25.0310   18.2296   16.4303 H   0  0  0  0  0  0  0  0  0  0  0  0
   26.2208   16.8841   16.3961 H   0  0  0  0  0  0  0  0  0  0  0  0
   26.6799   18.5392   18.2153 H   0  0  0  0  0  0  0  0  0  0  0  0
   28.0237   18.4160   17.0098 H   0  0  0  0  0  0  0  0  0  0  0  0
   26.9834   21.5862   15.3775 H   0  0  0  0  0  0  0  0  0  0  0  0
   23.2001   15.5364   14.8472 H   0  0  0  0  0  0  0  0  0  0  0  0
   20.7700   13.9147   11.8274 H   0  0  0  0  0  0  0  0  0  0  0  0
   22.7255   15.7662    6.9360 H   0  0  0  0  0  0  0  0  0  0  0  0
  1  2  1  0
  2  3  1  0
  3  4  2  0
  4  5  1  0
  5  6  1  0
  6  7  2  0
  6  8  2  0
  6  9  1  0
  9 10  2  0
 10 11  1  0
 11 12  2  0
 12 13  1  0
 13 14  2  0
 13 15  1  0
 15 16  1  0
 16 17  1  0
 17 18  1  0
 18 19  1  0
 19 20  2  0
 19 21  1  0
 21 22  1  0
 22 23  2  0
 12 24  1  0
 24 25  1  0
 25 26  1  0
 26 27  2  0
 26 28  1  0
 28 29  1  0
  5 30  1  0
 30 31  2  0
 31  3  1  0
 29  9  1  0
 22 16  1  0
 29 24  2  0
  1 32  1  0
  1 33  1  0
  1 34  1  0
  2 35  1  0
  2 36  1  0
  4 37  1  0
 10 38  1  0
 11 39  1  0
 15 40  1  0
 16 41  1  6
 17 42  1  0
 17 43  1  0
 18 44  1  0
 18 45  1  0
 21 46  1  0
 25 47  1  0
 28 48  1  0
 30 49  1  0
M  END
>  <meeko>  (537) 
{"is_sidechain": [true], "free_energy": -10.72, "intermolecular_energy": 0.0, "internal_energy": -10.72, "cluster_size": 11, "cluster_id": 1, "rank_in_cluster": 1}

>  <_RMSD_MCS_to_ref>  (537) 
0.8313378107337325

$$$$
ligand
     RDKit          3D

 52 56  0  0  0  0  0  0  0  0999 V2000
   18.7970   18.8170    7.7190 C   0  0  0  0  0  0  0  0  0  0  0  0
   18.5280   17.3290    7.8810 C   0  0  0  0  0  0  0  0  0  0  0  0
   19.7800   16.5510    8.0880 C   0  0  0  0  0  0  0  0  0  0  0  0
   20.0890   15.6570    9.0950 C   0  0  0  0  0  0  0  0  0  0  0  0
   21.3610   15.2560    8.8050 N   0  0  0  0  0  0  0  0  0  0  0  0
   22.1980   14.0060    9.5540 S   0  0  0  0  0  6  0  0  0  0  0  0
   21.5330   12.7870    9.1360 O   0  0  0  0  0  0  0  0  0  0  0  0
   23.6040   14.2500    9.3030 O   0  0  0  0  0  0  0  0  0  0  0  0
   21.8880   14.2570   11.2790 C   0  0  0  0  0  0  0  0  0  0  0  0
   22.7550   15.0460   12.0270 C   0  0  0  0  0  0  0  0  0  0  0  0
   22.5210   15.2570   13.4020 C   0  0  0  0  0  0  0  0  0  0  0  0
   23.4700   16.1120   14.1020 C   0  0  0  0  0  0  0  0  0  0  0  0
   24.8430   16.1120   14.0120 C   0  0  0  0  0  0  0  0  0  0  0  0
   25.2340   17.1120   14.8520 N   0  0  0  0  0  0  0  0  0  0  0  0
   26.5880   17.5060   15.1880 C   0  0  2  0  0  0  0  0  0  0  0  0
   26.8930   17.4610   16.6870 C   0  0  0  0  0  0  0  0  0  0  0  0
   26.2970   18.6430   17.4380 C   0  0  0  0  0  0  0  0  0  0  0  0
   26.6670   19.9570   16.7960 C   0  0  0  0  0  0  0  0  0  0  0  0
   26.7660   20.9970   17.4390 O   0  0  0  0  0  0  0  0  0  0  0  0
   26.8670   19.9460   15.4390 N   0  0  0  0  0  0  0  0  0  0  0  0
   26.9150   18.8610   14.5960 C   0  0  0  0  0  0  0  0  0  0  0  0
   27.2180   19.0040   13.4120 O   0  0  0  0  0  0  0  0  0  0  0  0
   24.1740   17.7150   15.4180 N   0  0  0  0  0  0  0  0  0  0  0  0
   23.0850   17.1150   14.9610 N   0  0  0  0  0  0  0  0  0  0  0  0
   21.4090   14.6710   14.0430 C   0  0  0  0  0  0  0  0  0  0  0  0
   21.1340   14.8660   15.3570 N   0  0  0  0  0  0  0  0  0  0  0  0
   20.0510   14.2740   15.9080 C   0  0  0  0  0  0  0  0  0  0  0  0
   19.1850   13.4650   15.2090 C   0  0  0  0  0  0  0  0  0  0  0  0
   19.4420   13.2550   13.8630 C   0  0  0  0  0  0  0  0  0  0  0  0
   20.5530   13.8570   13.2560 C   0  0  0  0  0  0  0  0  0  0  0  0
   20.7960   13.6500   11.8900 C   0  0  0  0  0  0  0  0  0  0  0  0
   21.7650   15.8510    7.6530 C   0  0  0  0  0  0  0  0  0  0  0  0
   20.8290   16.6550    7.1960 N   0  0  0  0  0  0  0  0  0  0  0  0
   18.8815   19.2845    8.7111 H   0  0  0  0  0  0  0  0  0  0  0  0
   19.7359   18.9616    7.1643 H   0  0  0  0  0  0  0  0  0  0  0  0
   17.9682   19.2812    7.1643 H   0  0  0  0  0  0  0  0  0  0  0  0
   17.8706   17.1804    8.7504 H   0  0  0  0  0  0  0  0  0  0  0  0
   18.0552   16.9684    6.9556 H   0  0  0  0  0  0  0  0  0  0  0  0
   19.4555   15.3410    9.9369 H   0  0  0  0  0  0  0  0  0  0  0  0
   23.6283   15.5083   11.5437 H   0  0  0  0  0  0  0  0  0  0  0  0
   25.4799   15.4550   13.4015 H   0  0  0  0  0  0  0  0  0  0  0  0
   27.2475   16.7515   14.7344 H   0  0  0  0  0  0  0  0  0  0  0  0
   26.4771   16.5319   17.1040 H   0  0  0  0  0  0  0  0  0  0  0  0
   27.9855   17.5045   16.8076 H   0  0  0  0  0  0  0  0  0  0  0  0
   25.2014   18.5454   17.4441 H   0  0  0  0  0  0  0  0  0  0  0  0
   26.6995   18.6366   18.4617 H   0  0  0  0  0  0  0  0  0  0  0  0
   26.9977   20.8665   14.9958 H   0  0  0  0  0  0  0  0  0  0  0  0
   19.8507   14.4489   16.9754 H   0  0  0  0  0  0  0  0  0  0  0  0
   18.3180   13.0005   15.7015 H   0  0  0  0  0  0  0  0  0  0  0  0
   18.7726   12.6145   13.2699 H   0  0  0  0  0  0  0  0  0  0  0  0
   20.1232   13.0080   11.3025 H   0  0  0  0  0  0  0  0  0  0  0  0
   22.7388   15.6841    7.1694 H   0  0  0  0  0  0  0  0  0  0  0  0
  1  2  1  0
  2  3  1  0
  3  4  2  0
  4  5  1  0
  5  6  1  0
  6  7  2  0
  6  8  2  0
  6  9  1  0
  9 10  2  0
 10 11  1  0
 11 12  1  0
 12 13  2  0
 13 14  1  0
 14 15  1  0
 15 16  1  0
 16 17  1  0
 17 18  1  0
 18 19  2  0
 18 20  1  0
 20 21  1  0
 21 22  2  0
 14 23  1  0
 23 24  2  0
 11 25  2  0
 25 26  1  0
 26 27  2  0
 27 28  1  0
 28 29  2  0
 29 30  1  0
 30 31  2  0
  5 32  1  0
 32 33  2  0
 33  3  1  0
 31  9  1  0
 24 12  1  0
 30 25  1  0
 21 15  1  0
  1 34  1  0
  1 35  1  0
  1 36  1  0
  2 37  1  0
  2 38  1  0
  4 39  1  0
 10 40  1  0
 13 41  1  0
 15 42  1  6
 16 43  1  0
 16 44  1  0
 17 45  1  0
 17 46  1  0
 20 47  1  0
 27 48  1  0
 28 49  1  0
 29 50  1  0
 31 51  1  0
 32 52  1  0
M  END
>  <meeko>  (538) 
{"is_sidechain": [true], "free_energy": -10.72, "intermolecular_energy": 0.0, "internal_energy": -10.72, "cluster_size": 12, "cluster_id": 1, "rank_in_cluster": 1}

>  <_RMSD_MCS_to_ref>  (538) 
1.3589034795255575

$$$$
ligand
     RDKit          3D

 51 54  0  0  0  0  0  0  0  0999 V2000
   18.9090   19.1540    7.5370 C   0  0  0  0  0  0  0  0  0  0  0  0
   18.7730   17.6460    7.6780 C   0  0  0  0  0  0  0  0  0  0  0  0
   20.0250   16.9320    7.3080 C   0  0  0  0  0  0  0  0  0  0  0  0
   20.6730   15.9110    7.9740 C   0  0  0  0  0  0  0  0  0  0  0  0
   21.7800   15.6640    7.2130 N   0  0  0  0  0  0  0  0  0  0  0  0
   22.8330   14.3580    7.3980 S   0  0  0  0  0  6  0  0  0  0  0  0
   22.2180   13.2840    6.6420 O   0  0  0  0  0  0  0  0  0  0  0  0
   24.1360   14.8900    7.0420 O   0  0  0  0  0  0  0  0  0  0  0  0
   22.8090   13.9930    8.9850 O   0  0  0  0  0  0  0  0  0  0  0  0
   23.3450   14.8130    9.9420 C   0  0  0  0  0  0  0  0  0  0  0  0
   24.6280   15.2850    9.6630 C   0  0  0  0  0  0  0  0  0  0  0  0
   25.2790   16.1340   10.5570 C   0  0  0  0  0  0  0  0  0  0  0  0
   24.6540   16.5310   11.7470 C   0  0  0  0  0  0  0  0  0  0  0  0
   23.3680   16.0450   12.0410 C   0  0  0  0  0  0  0  0  0  0  0  0
   22.7160   15.1980   11.1260 C   0  0  0  0  0  0  0  0  0  0  0  0
   22.6360   16.4630   13.2940 C   0  0  0  0  0  0  0  0  0  0  0  0
   23.5680   17.0070   14.3750 C   0  0  0  0  0  0  0  0  0  0  0  0
   24.5010   18.0670   13.7790 C   0  0  1  0  0  0  0  0  0  0  0  0
   25.2830   18.8040   14.7930 N   0  0  0  0  0  0  0  0  0  0  0  0
   26.1890   18.0870   15.6830 C   0  0  0  0  0  0  0  0  0  0  0  0
   26.3960   18.8670   16.9620 C   0  0  0  0  0  0  0  0  0  0  0  0
   26.8430   20.2580   16.6250 C   0  0  0  0  0  0  0  0  0  0  0  0
   27.4870   20.9520   17.4070 O   0  0  0  0  0  0  0  0  0  0  0  0
   26.4250   20.7440   15.4160 N   0  0  0  0  0  0  0  0  0  0  0  0
   25.5520   20.1460   14.5470 C   0  0  0  0  0  0  0  0  0  0  0  0
   25.0580   20.7920   13.6280 O   0  0  0  0  0  0  0  0  0  0  0  0
   25.4020   17.4300   12.7030 C   0  0  0  0  0  0  0  0  0  0  0  0
   21.7400   16.4450    6.1040 C   0  0  0  0  0  0  0  0  0  0  0  0
   20.6970   17.2480    6.1430 N   0  0  0  0  0  0  0  0  0  0  0  0
   18.9504   19.6134    8.5356 H   0  0  0  0  0  0  0  0  0  0  0  0
   19.8320   19.3891    6.9867 H   0  0  0  0  0  0  0  0  0  0  0  0
   18.0430   19.5504    6.9867 H   0  0  0  0  0  0  0  0  0  0  0  0
   18.5255   17.4088    8.7232 H   0  0  0  0  0  0  0  0  0  0  0  0
   17.9792   17.3129    6.9933 H   0  0  0  0  0  0  0  0  0  0  0  0
   20.3676   15.4107    8.9048 H   0  0  0  0  0  0  0  0  0  0  0  0
   25.1295   14.9851    8.7310 H   0  0  0  0  0  0  0  0  0  0  0  0
   26.2920   16.4954   10.3264 H   0  0  0  0  0  0  0  0  0  0  0  0
   21.7009   14.8361   11.3464 H   0  0  0  0  0  0  0  0  0  0  0  0
   21.9093   17.2458   13.0310 H   0  0  0  0  0  0  0  0  0  0  0  0
   22.1445   15.5678   13.7027 H   0  0  0  0  0  0  0  0  0  0  0  0
   22.9685   17.4599   15.1785 H   0  0  0  0  0  0  0  0  0  0  0  0
   24.1718   16.1814   14.7796 H   0  0  0  0  0  0  0  0  0  0  0  0
   23.8655   18.8294   13.3047 H   0  0  0  0  0  0  0  0  0  0  0  0
   25.7585   17.1037   15.9234 H   0  0  0  0  0  0  0  0  0  0  0  0
   27.1591   17.9613   15.1800 H   0  0  0  0  0  0  0  0  0  0  0  0
   25.4511   18.9102   17.5235 H   0  0  0  0  0  0  0  0  0  0  0  0
   27.1620   18.3717   17.5768 H   0  0  0  0  0  0  0  0  0  0  0  0
   26.8076   21.6563   15.1293 H   0  0  0  0  0  0  0  0  0  0  0  0
   25.8764   18.2361   12.1241 H   0  0  0  0  0  0  0  0  0  0  0  0
   26.1391   16.8038   13.2270 H   0  0  0  0  0  0  0  0  0  0  0  0
   22.4757   16.4120    5.2869 H   0  0  0  0  0  0  0  0  0  0  0  0
  1  2  1  0
  2  3  1  0
  3  4  2  0
  4  5  1  0
  5  6  1  0
  6  7  2  0
  6  8  2  0
  6  9  1  0
  9 10  1  0
 10 11  2  0
 11 12  1  0
 12 13  2  0
 13 14  1  0
 14 15  2  0
 14 16  1  0
 16 17  1  0
 17 18  1  0
 18 19  1  0
 19 20  1  0
 20 21  1  0
 21 22  1  0
 22 23  2  0
 22 24  1  0
 24 25  1  0
 25 26  2  0
 18 27  1  0
  5 28  1  0
 28 29  2  0
 29  3  1  0
 15 10  1  0
 25 19  1  0
 27 13  1  0
  1 30  1  0
  1 31  1  0
  1 32  1  0
  2 33  1  0
  2 34  1  0
  4 35  1  0
 11 36  1  0
 12 37  1  0
 15 38  1  0
 16 39  1  0
 16 40  1  0
 17 41  1  0
 17 42  1  0
 18 43  1  6
 20 44  1  0
 20 45  1  0
 21 46  1  0
 21 47  1  0
 24 48  1  0
 27 49  1  0
 27 50  1  0
 28 51  1  0
M  END
>  <meeko>  (539) 
{"is_sidechain": [true], "free_energy": -10.72, "intermolecular_energy": 0.0, "internal_energy": -10.72, "cluster_size": 20, "cluster_id": 1, "rank_in_cluster": 1}

>  <_RMSD_MCS_to_ref>  (539) 
0.5356659406757165

$$$$
ligand
     RDKit          3D

 48 51  0  0  0  0  0  0  0  0999 V2000
   18.9090   19.1540    7.5370 C   0  0  0  0  0  0  0  0  0  0  0  0
   18.7730   17.6460    7.6780 C   0  0  0  0  0  0  0  0  0  0  0  0
   20.0750   16.9470    7.5040 C   0  0  0  0  0  0  0  0  0  0  0  0
   21.1270   16.8340    8.3920 C   0  0  0  0  0  0  0  0  0  0  0  0
   22.0630   16.1090    7.7110 N   0  0  0  0  0  0  0  0  0  0  0  0
   23.4670   15.4550    8.3650 S   0  0  0  0  0  6  0  0  0  0  0  0
   23.5510   14.1050    7.8410 O   0  0  0  0  0  0  0  0  0  0  0  0
   24.5060   16.4420    8.1550 O   0  0  0  0  0  0  0  0  0  0  0  0
   23.1170   15.3660   10.1040 C   0  0  0  0  0  0  0  0  0  0  0  0
   24.0310   15.9110   11.0180 C   0  0  0  0  0  0  0  0  0  0  0  0
   23.7750   15.8580   12.3970 C   0  0  0  0  0  0  0  0  0  0  0  0
   24.6850   16.4010   13.4430 C   0  0  0  0  0  0  0  0  0  0  0  0
   25.2080   15.6350   14.2480 O   0  0  0  0  0  0  0  0  0  0  0  0
   24.9260   17.7540   13.4350 N   0  0  0  0  0  0  0  0  0  0  0  0
   25.9110   18.3510   14.3290 C   0  0  2  0  0  0  0  0  0  0  0  0
   25.6790   17.9670   15.7860 C   0  0  0  0  0  0  0  0  0  0  0  0
   26.7080   18.6620   16.6630 C   0  0  0  0  0  0  0  0  0  0  0  0
   26.6800   20.1600   16.4630 C   0  0  0  0  0  0  0  0  0  0  0  0
   26.9130   20.9500   17.3720 O   0  0  0  0  0  0  0  0  0  0  0  0
   26.4080   20.6050   15.1950 N   0  0  0  0  0  0  0  0  0  0  0  0
   25.8190   19.8740   14.1940 C   0  0  0  0  0  0  0  0  0  0  0  0
   25.2590   20.4210   13.2430 O   0  0  0  0  0  0  0  0  0  0  0  0
   22.5620   15.2680   12.7890 C   0  0  0  0  0  0  0  0  0  0  0  0
   22.0060   15.0890   14.0320 N   0  0  0  0  0  0  0  0  0  0  0  0
   20.8140   14.4650   14.0120 N   0  0  0  0  0  0  0  0  0  0  0  0
   20.5910   14.2590   12.7130 C   0  0  0  0  0  0  0  0  0  0  0  0
   21.6400   14.7340   11.8960 C   0  0  0  0  0  0  0  0  0  0  0  0
   21.9120   14.7790   10.5190 C   0  0  0  0  0  0  0  0  0  0  0  0
   21.5680   15.7730    6.4930 C   0  0  0  0  0  0  0  0  0  0  0  0
   20.3610   16.2740    6.3320 N   0  0  0  0  0  0  0  0  0  0  0  0
   18.9504   19.6134    8.5356 H   0  0  0  0  0  0  0  0  0  0  0  0
   19.8320   19.3891    6.9867 H   0  0  0  0  0  0  0  0  0  0  0  0
   18.0430   19.5504    6.9867 H   0  0  0  0  0  0  0  0  0  0  0  0
   18.3791   17.4176    8.6793 H   0  0  0  0  0  0  0  0  0  0  0  0
   18.0913   17.2926    6.8903 H   0  0  0  0  0  0  0  0  0  0  0  0
   21.1953   17.2359    9.4137 H   0  0  0  0  0  0  0  0  0  0  0  0
   24.9545   16.3830   10.6515 H   0  0  0  0  0  0  0  0  0  0  0  0
   24.4013   18.3572   12.7857 H   0  0  0  0  0  0  0  0  0  0  0  0
   26.9058   17.9779   14.0439 H   0  0  0  0  0  0  0  0  0  0  0  0
   24.6684   18.2769   16.0905 H   0  0  0  0  0  0  0  0  0  0  0  0
   25.7776   16.8772   15.8982 H   0  0  0  0  0  0  0  0  0  0  0  0
   26.4900   18.4374   17.7175 H   0  0  0  0  0  0  0  0  0  0  0  0
   27.7063   18.2937   16.3843 H   0  0  0  0  0  0  0  0  0  0  0  0
   26.6695   21.5763   14.9736 H   0  0  0  0  0  0  0  0  0  0  0  0
   22.4604   15.4040   14.9010 H   0  0  0  0  0  0  0  0  0  0  0  0
   19.6866   13.7712   12.3204 H   0  0  0  0  0  0  0  0  0  0  0  0
   21.2016   14.3664    9.7875 H   0  0  0  0  0  0  0  0  0  0  0  0
   22.1004   15.1671    5.7451 H   0  0  0  0  0  0  0  0  0  0  0  0
  1  2  1  0
  2  3  1  0
  3  4  2  0
  4  5  1  0
  5  6  1  0
  6  7  2  0
  6  8  2  0
  6  9  1  0
  9 10  2  0
 10 11  1  0
 11 12  1  0
 12 13  2  0
 12 14  1  0
 14 15  1  0
 15 16  1  0
 16 17  1  0
 17 18  1  0
 18 19  2  0
 18 20  1  0
 20 21  1  0
 21 22  2  0
 11 23  2  0
 23 24  1  0
 24 25  1  0
 25 26  2  0
 26 27  1  0
 27 28  2  0
  5 29  1  0
 29 30  2  0
 30  3  1  0
 28  9  1  0
 21 15  1  0
 27 23  1  0
  1 31  1  0
  1 32  1  0
  1 33  1  0
  2 34  1  0
  2 35  1  0
  4 36  1  0
 10 37  1  0
 14 38  1  0
 15 39  1  6
 16 40  1  0
 16 41  1  0
 17 42  1  0
 17 43  1  0
 20 44  1  0
 24 45  1  0
 26 46  1  0
 28 47  1  0
 29 48  1  0
M  END
>  <meeko>  (540) 
{"is_sidechain": [true], "free_energy": -10.72, "intermolecular_energy": 0.0, "internal_energy": -10.72, "cluster_size": 20, "cluster_id": 1, "rank_in_cluster": 1}

>  <_RMSD_MCS_to_ref>  (540) 
0.6117099893831317

$$$$
ligand
     RDKit          3D

 48 51  0  0  0  0  0  0  0  0999 V2000
   18.9090   19.1540    7.5370 C   0  0  0  0  0  0  0  0  0  0  0  0
   18.7730   17.6460    7.6780 C   0  0  0  0  0  0  0  0  0  0  0  0
   20.0520   16.9390    7.3990 C   0  0  0  0  0  0  0  0  0  0  0  0
   20.5800   15.8240    8.0180 C   0  0  0  0  0  0  0  0  0  0  0  0
   21.7600   15.6060    7.3680 N   0  0  0  0  0  0  0  0  0  0  0  0
   22.9170   14.4590    7.7630 S   0  0  0  0  0  6  0  0  0  0  0  0
   22.2350   13.4120    8.5000 O   0  0  0  0  0  0  0  0  0  0  0  0
   23.6270   14.1800    6.5240 O   0  0  0  0  0  0  0  0  0  0  0  0
   24.0380   15.3020    8.8380 C   0  0  0  0  0  0  0  0  0  0  0  0
   25.0360   15.9840    8.2170 N   0  0  0  0  0  0  0  0  0  0  0  0
   25.9350   16.6460    8.9760 C   0  0  0  0  0  0  0  0  0  0  0  0
   25.9250   16.6750   10.3630 C   0  0  0  0  0  0  0  0  0  0  0  0
   24.9070   15.9580   11.0180 C   0  0  0  0  0  0  0  0  0  0  0  0
   24.5600   15.7340   12.3950 C   0  0  0  0  0  0  0  0  0  0  0  0
   25.2630   16.2620   13.5660 C   0  0  0  0  0  0  0  0  0  0  0  0
   25.6500   15.5420   14.4820 O   0  0  0  0  0  0  0  0  0  0  0  0
   25.4770   17.6210   13.5680 N   0  0  0  0  0  0  0  0  0  0  0  0
   26.2980   18.2590   14.5830 C   0  0  2  0  0  0  0  0  0  0  0  0
   25.8390   17.9230   15.9970 C   0  0  0  0  0  0  0  0  0  0  0  0
   26.7130   18.6560   17.0030 C   0  0  0  0  0  0  0  0  0  0  0  0
   26.7100   20.1460   16.7490 C   0  0  0  0  0  0  0  0  0  0  0  0
   26.7890   20.9690   17.6560 O   0  0  0  0  0  0  0  0  0  0  0  0
   26.6450   20.5460   15.4380 N   0  0  0  0  0  0  0  0  0  0  0  0
   26.2220   19.7770   14.3840 C   0  0  0  0  0  0  0  0  0  0  0  0
   25.8160   20.2910   13.3410 O   0  0  0  0  0  0  0  0  0  0  0  0
   23.4440   14.9090   12.3820 C   0  0  0  0  0  0  0  0  0  0  0  0
   23.1070   14.6430   11.0810 N   0  0  0  0  0  0  0  0  0  0  0  0
   23.9810   15.2770   10.2290 C   0  0  0  0  0  0  0  0  0  0  0  0
   21.9370   16.5740    6.4320 C   0  0  0  0  0  0  0  0  0  0  0  0
   20.9070   17.3930    6.4120 N   0  0  0  0  0  0  0  0  0  0  0  0
   18.9504   19.6134    8.5356 H   0  0  0  0  0  0  0  0  0  0  0  0
   19.8320   19.3891    6.9867 H   0  0  0  0  0  0  0  0  0  0  0  0
   18.0430   19.5504    6.9867 H   0  0  0  0  0  0  0  0  0  0  0  0
   18.4561   17.4132    8.7053 H   0  0  0  0  0  0  0  0  0  0  0  0
   18.0298   17.3033    6.9430 H   0  0  0  0  0  0  0  0  0  0  0  0
   20.1481   15.2434    8.8465 H   0  0  0  0  0  0  0  0  0  0  0  0
   26.7312   17.2013    8.4585 H   0  0  0  0  0  0  0  0  0  0  0  0
   26.6832   17.2365   10.9284 H   0  0  0  0  0  0  0  0  0  0  0  0
   25.0454   18.1995   12.8332 H   0  0  0  0  0  0  0  0  0  0  0  0
   27.3272   17.8873   14.4713 H   0  0  0  0  0  0  0  0  0  0  0  0
   24.7919   18.2343   16.1260 H   0  0  0  0  0  0  0  0  0  0  0  0
   25.9228   16.8385   16.1610 H   0  0  0  0  0  0  0  0  0  0  0  0
   26.3309   18.4644   18.0165 H   0  0  0  0  0  0  0  0  0  0  0  0
   27.7445   18.2880   16.9004 H   0  0  0  0  0  0  0  0  0  0  0  0
   26.9402   21.5099   15.2266 H   0  0  0  0  0  0  0  0  0  0  0  0
   22.9167   14.5309   13.2703 H   0  0  0  0  0  0  0  0  0  0  0  0
   22.3153   14.0546   10.7844 H   0  0  0  0  0  0  0  0  0  0  0  0
   22.8192   16.6614    5.7807 H   0  0  0  0  0  0  0  0  0  0  0  0
  1  2  1  0
  2  3  1  0
  3  4  2  0
  4  5  1  0
  5  6  1  0
  6  7  2  0
  6  8  2  0
  6  9  1  0
  9 10  2  0
 10 11  1  0
 11 12  2  0
 12 13  1  0
 13 14  1  0
 14 15  1  0
 15 16  2  0
 15 17  1  0
 17 18  1  0
 18 19  1  0
 19 20  1  0
 20 21  1  0
 21 22  2  0
 21 23  1  0
 23 24  1  0
 24 25  2  0
 14 26  2  0
 26 27  1  0
 27 28  1  0
  5 29  1  0
 29 30  2  0
 30  3  1  0
 28  9  1  0
 28 13  2  0
 24 18  1  0
  1 31  1  0
  1 32  1  0
  1 33  1  0
  2 34  1  0
  2 35  1  0
  4 36  1  0
 11 37  1  0
 12 38  1  0
 17 39  1  0
 18 40  1  1
 19 41  1  0
 19 42  1  0
 20 43  1  0
 20 44  1  0
 23 45  1  0
 26 46  1  0
 27 47  1  0
 29 48  1  0
M  END
>  <meeko>  (541) 
{"is_sidechain": [true], "free_energy": -10.72, "intermolecular_energy": 0.0, "internal_energy": -10.72, "cluster_size": 16, "cluster_id": 1, "rank_in_cluster": 1}

>  <_RMSD_MCS_to_ref>  (541) 
0.879165071088599

$$$$
ligand
     RDKit          3D

 47 50  0  0  0  0  0  0  0  0999 V2000
   18.9090   19.1540    7.5370 C   0  0  0  0  0  0  0  0  0  0  0  0
   18.7730   17.6460    7.6780 C   0  0  0  0  0  0  0  0  0  0  0  0
   20.0510   16.9380    7.3950 C   0  0  0  0  0  0  0  0  0  0  0  0
   20.7850   16.1060    8.2170 C   0  0  0  0  0  0  0  0  0  0  0  0
   21.8690   15.7630    7.4630 N   0  0  0  0  0  0  0  0  0  0  0  0
   23.0230   14.6070    7.8590 S   0  0  0  0  0  6  0  0  0  0  0  0
   23.7270   14.2890    6.6360 O   0  0  0  0  0  0  0  0  0  0  0  0
   22.3230   13.6090    8.6490 O   0  0  0  0  0  0  0  0  0  0  0  0
   24.1360   15.4420    8.9400 C   0  0  0  0  0  0  0  0  0  0  0  0
   25.1960   16.1860    8.4210 C   0  0  0  0  0  0  0  0  0  0  0  0
   26.0490   16.8290    9.3050 C   0  0  0  0  0  0  0  0  0  0  0  0
   25.9510   16.7980   10.6490 N   0  0  0  0  0  0  0  0  0  0  0  0
   24.9340   16.0550   11.1490 C   0  0  0  0  0  0  0  0  0  0  0  0
   24.5150   15.7700   12.4770 C   0  0  0  0  0  0  0  0  0  0  0  0
   25.1130   16.2460   13.7300 C   0  0  0  0  0  0  0  0  0  0  0  0
   25.2300   15.5680   14.7470 O   0  0  0  0  0  0  0  0  0  0  0  0
   25.5550   17.5500   13.6620 N   0  0  0  0  0  0  0  0  0  0  0  0
   26.3310   18.1660   14.7190 C   0  0  2  0  0  0  0  0  0  0  0  0
   25.6870   17.9690   16.0880 C   0  0  0  0  0  0  0  0  0  0  0  0
   26.5330   18.6520   17.1510 C   0  0  0  0  0  0  0  0  0  0  0  0
   26.7370   20.1150   16.8330 C   0  0  0  0  0  0  0  0  0  0  0  0
   26.8350   20.9710   17.7070 O   0  0  0  0  0  0  0  0  0  0  0  0
   26.8440   20.4460   15.5060 N   0  0  0  0  0  0  0  0  0  0  0  0
   26.4660   19.6680   14.4400 C   0  0  0  0  0  0  0  0  0  0  0  0
   26.2730   20.1670   13.3320 O   0  0  0  0  0  0  0  0  0  0  0  0
   23.4290   14.9600   12.4810 N   0  0  0  0  0  0  0  0  0  0  0  0
   23.1820   14.7380   11.1790 N   0  0  0  0  0  0  0  0  0  0  0  0
   24.0400   15.3820   10.3310 C   0  0  0  0  0  0  0  0  0  0  0  0
   21.7560   16.3280    6.2340 C   0  0  0  0  0  0  0  0  0  0  0  0
   20.6620   17.0560    6.1620 N   0  0  0  0  0  0  0  0  0  0  0  0
   18.9504   19.6134    8.5356 H   0  0  0  0  0  0  0  0  0  0  0  0
   19.8320   19.3891    6.9867 H   0  0  0  0  0  0  0  0  0  0  0  0
   18.0430   19.5504    6.9867 H   0  0  0  0  0  0  0  0  0  0  0  0
   18.4590   17.4131    8.7062 H   0  0  0  0  0  0  0  0  0  0  0  0
   18.0276   17.3039    6.9449 H   0  0  0  0  0  0  0  0  0  0  0  0
   20.5496   15.7917    9.2445 H   0  0  0  0  0  0  0  0  0  0  0  0
   25.3516   16.2608    7.3346 H   0  0  0  0  0  0  0  0  0  0  0  0
   26.8749   17.4134    8.8733 H   0  0  0  0  0  0  0  0  0  0  0  0
   25.3246   18.1079   12.8274 H   0  0  0  0  0  0  0  0  0  0  0  0
   27.3192   17.6831   14.7351 H   0  0  0  0  0  0  0  0  0  0  0  0
   24.6783   18.4077   16.0849 H   0  0  0  0  0  0  0  0  0  0  0  0
   25.6194   16.8936   16.3093 H   0  0  0  0  0  0  0  0  0  0  0  0
   26.0265   18.5638   18.1235 H   0  0  0  0  0  0  0  0  0  0  0  0
   27.5174   18.1620   17.1794 H   0  0  0  0  0  0  0  0  0  0  0  0
   27.2474   21.3684   15.2882 H   0  0  0  0  0  0  0  0  0  0  0  0
   22.4142   14.1360   10.8488 H   0  0  0  0  0  0  0  0  0  0  0  0
   22.4771   16.1960    5.4139 H   0  0  0  0  0  0  0  0  0  0  0  0
  1  2  1  0
  2  3  1  0
  3  4  2  0
  4  5  1  0
  5  6  1  0
  6  7  2  0
  6  8  2  0
  6  9  1  0
  9 10  2  0
 10 11  1  0
 11 12  2  0
 12 13  1  0
 13 14  1  0
 14 15  1  0
 15 16  2  0
 15 17  1  0
 17 18  1  0
 18 19  1  0
 19 20  1  0
 20 21  1  0
 21 22  2  0
 21 23  1  0
 23 24  1  0
 24 25  2  0
 14 26  2  0
 26 27  1  0
 27 28  1  0
  5 29  1  0
 29 30  2  0
 30  3  1  0
 28  9  1  0
 28 13  2  0
 24 18  1  0
  1 31  1  0
  1 32  1  0
  1 33  1  0
  2 34  1  0
  2 35  1  0
  4 36  1  0
 10 37  1  0
 11 38  1  0
 17 39  1  0
 18 40  1  1
 19 41  1  0
 19 42  1  0
 20 43  1  0
 20 44  1  0
 23 45  1  0
 27 46  1  0
 29 47  1  0
M  END
>  <meeko>  (542) 
{"is_sidechain": [true], "free_energy": -10.72, "intermolecular_energy": 0.0, "internal_energy": -10.72, "cluster_size": 16, "cluster_id": 1, "rank_in_cluster": 1}

>  <_RMSD_MCS_to_ref>  (542) 
1.0256489544565321

$$$$
ligand
     RDKit          3D

 49 52  0  0  0  0  0  0  0  0999 V2000
   18.9090   19.1540    7.5370 C   0  0  0  0  0  0  0  0  0  0  0  0
   18.7730   17.6460    7.6780 C   0  0  0  0  0  0  0  0  0  0  0  0
   20.0260   16.9340    7.3090 C   0  0  0  0  0  0  0  0  0  0  0  0
   20.7930   16.0750    8.0700 C   0  0  0  0  0  0  0  0  0  0  0  0
   21.8220   15.7230    7.2420 N   0  0  0  0  0  0  0  0  0  0  0  0
   23.0940   14.7030    7.6400 S   0  0  0  0  0  6  0  0  0  0  0  0
   22.4430   13.5320    8.2030 O   0  0  0  0  0  0  0  0  0  0  0  0
   23.9500   14.6040    6.4730 O   0  0  0  0  0  0  0  0  0  0  0  0
   24.0120   15.4650    8.9390 C   0  0  0  0  0  0  0  0  0  0  0  0
   25.1340   16.2150    8.5780 C   0  0  0  0  0  0  0  0  0  0  0  0
   25.8490   16.8050    9.5870 C   0  0  0  0  0  0  0  0  0  0  0  0
   25.5050   16.6860   10.8840 N   0  0  0  0  0  0  0  0  0  0  0  0
   24.4060   15.9610   11.2290 C   0  0  0  0  0  0  0  0  0  0  0  0
   24.0040   15.7990   12.5640 C   0  0  0  0  0  0  0  0  0  0  0  0
   24.7410   16.4040   13.7170 C   0  0  0  0  0  0  0  0  0  0  0  0
   24.8000   15.8080   14.7890 O   0  0  0  0  0  0  0  0  0  0  0  0
   25.3390   17.6260   13.5310 N   0  0  0  0  0  0  0  0  0  0  0  0
   26.1940   18.2390   14.5330 C   0  0  2  0  0  0  0  0  0  0  0  0
   25.6960   17.9730   15.9500 C   0  0  0  0  0  0  0  0  0  0  0  0
   26.6190   18.6490   16.9500 C   0  0  0  0  0  0  0  0  0  0  0  0
   26.7400   20.1280   16.6680 C   0  0  0  0  0  0  0  0  0  0  0  0
   26.8870   20.9600   17.5600 O   0  0  0  0  0  0  0  0  0  0  0  0
   26.7130   20.5070   15.3500 N   0  0  0  0  0  0  0  0  0  0  0  0
   26.2430   19.7550   14.3000 C   0  0  0  0  0  0  0  0  0  0  0  0
   25.9090   20.2910   13.2440 O   0  0  0  0  0  0  0  0  0  0  0  0
   22.8740   15.0400   12.8900 C   0  0  0  0  0  0  0  0  0  0  0  0
   22.1640   14.4630   11.8680 C   0  0  0  0  0  0  0  0  0  0  0  0
   22.5120   14.5980   10.5760 N   0  0  0  0  0  0  0  0  0  0  0  0
   23.6070   15.3200   10.2590 C   0  0  0  0  0  0  0  0  0  0  0  0
   21.6600   16.3390    6.0420 C   0  0  0  0  0  0  0  0  0  0  0  0
   20.5760   17.0890    6.0510 N   0  0  0  0  0  0  0  0  0  0  0  0
   18.9504   19.6134    8.5356 H   0  0  0  0  0  0  0  0  0  0  0  0
   19.8320   19.3891    6.9867 H   0  0  0  0  0  0  0  0  0  0  0  0
   18.0430   19.5504    6.9867 H   0  0  0  0  0  0  0  0  0  0  0  0
   18.5247   17.4085    8.7229 H   0  0  0  0  0  0  0  0  0  0  0  0
   17.9795   17.3120    6.9933 H   0  0  0  0  0  0  0  0  0  0  0  0
   20.6166   15.7485    9.1055 H   0  0  0  0  0  0  0  0  0  0  0  0
   25.4317   16.3275    7.5251 H   0  0  0  0  0  0  0  0  0  0  0  0
   26.7381   17.3987    9.3280 H   0  0  0  0  0  0  0  0  0  0  0  0
   25.1750   18.1277   12.6465 H   0  0  0  0  0  0  0  0  0  0  0  0
   27.1955   17.7949   14.4338 H   0  0  0  0  0  0  0  0  0  0  0  0
   24.6781   18.3747   16.0617 H   0  0  0  0  0  0  0  0  0  0  0  0
   25.6866   16.8890   16.1364 H   0  0  0  0  0  0  0  0  0  0  0  0
   26.2146   18.5088   17.9633 H   0  0  0  0  0  0  0  0  0  0  0  0
   27.6174   18.1952   16.8648 H   0  0  0  0  0  0  0  0  0  0  0  0
   27.0794   21.4432   15.1262 H   0  0  0  0  0  0  0  0  0  0  0  0
   22.5638   14.9098   13.9373 H   0  0  0  0  0  0  0  0  0  0  0  0
   21.2740   13.8657   12.1152 H   0  0  0  0  0  0  0  0  0  0  0  0
   22.3383   16.2275    5.1832 H   0  0  0  0  0  0  0  0  0  0  0  0
  1  2  1  0
  2  3  1  0
  3  4  2  0
  4  5  1  0
  5  6  1  0
  6  7  2  0
  6  8  2  0
  6  9  1  0
  9 10  2  0
 10 11  1  0
 11 12  2  0
 12 13  1  0
 13 14  2  0
 14 15  1  0
 15 16  2  0
 15 17  1  0
 17 18  1  0
 18 19  1  0
 19 20  1  0
 20 21  1  0
 21 22  2  0
 21 23  1  0
 23 24  1  0
 24 25  2  0
 14 26  1  0
 26 27  2  0
 27 28  1  0
 28 29  2  0
  5 30  1  0
 30 31  2  0
 31  3  1  0
 29  9  1  0
 29 13  1  0
 24 18  1  0
  1 32  1  0
  1 33  1  0
  1 34  1  0
  2 35  1  0
  2 36  1  0
  4 37  1  0
 10 38  1  0
 11 39  1  0
 17 40  1  0
 18 41  1  1
 19 42  1  0
 19 43  1  0
 20 44  1  0
 20 45  1  0
 23 46  1  0
 26 47  1  0
 27 48  1  0
 30 49  1  0
M  END
>  <meeko>  (543) 
{"is_sidechain": [true], "free_energy": -10.72, "intermolecular_energy": 0.0, "internal_energy": -10.72, "cluster_size": 14, "cluster_id": 1, "rank_in_cluster": 1}

>  <_RMSD_MCS_to_ref>  (543) 
0.8544295692969007

$$$$
ligand
     RDKit          3D

 48 51  0  0  0  0  0  0  0  0999 V2000
   18.9090   19.1540    7.5370 C   0  0  0  0  0  0  0  0  0  0  0  0
   18.7730   17.6460    7.6780 C   0  0  0  0  0  0  0  0  0  0  0  0
   20.0950   16.9620    7.6860 C   0  0  0  0  0  0  0  0  0  0  0  0
   20.9980   16.8300    8.7220 C   0  0  0  0  0  0  0  0  0  0  0  0
   22.0330   16.1270    8.1770 N   0  0  0  0  0  0  0  0  0  0  0  0
   23.3240   15.4600    9.0200 S   0  0  0  0  0  6  0  0  0  0  0  0
   24.3590   16.4740    9.0470 O   0  0  0  0  0  0  0  0  0  0  0  0
   23.5340   14.1480    8.4390 O   0  0  0  0  0  0  0  0  0  0  0  0
   22.6970   15.2600   10.6660 C   0  0  0  0  0  0  0  0  0  0  0  0
   23.3620   15.8580   11.7270 C   0  0  0  0  0  0  0  0  0  0  0  0
   22.8870   15.7130   13.0430 C   0  0  0  0  0  0  0  0  0  0  0  0
   23.6600   16.4000   14.1100 C   0  0  0  0  0  0  0  0  0  0  0  0
   23.9930   15.7780   15.1130 O   0  0  0  0  0  0  0  0  0  0  0  0
   23.9200   17.7360   13.9450 N   0  0  0  0  0  0  0  0  0  0  0  0
   24.5520   18.5340   14.9840 C   0  0  1  0  0  0  0  0  0  0  0  0
   25.7030   17.7950   15.6580 C   0  0  0  0  0  0  0  0  0  0  0  0
   26.3390   18.6940   16.7080 C   0  0  0  0  0  0  0  0  0  0  0  0
   26.7850   20.0060   16.1080 C   0  0  0  0  0  0  0  0  0  0  0  0
   27.7850   20.6020   16.4970 O   0  0  0  0  0  0  0  0  0  0  0  0
   25.9970   20.5260   15.1130 N   0  0  0  0  0  0  0  0  0  0  0  0
   25.0900   19.8250   14.3580 C   0  0  0  0  0  0  0  0  0  0  0  0
   24.7370   20.2290   13.2500 O   0  0  0  0  0  0  0  0  0  0  0  0
   21.7090   14.9540   13.2660 C   0  0  0  0  0  0  0  0  0  0  0  0
   20.8580   14.6520   14.7460 S   0  0  0  0  0  0  0  0  0  0  0  0
   19.6790   13.6920   13.9900 C   0  0  0  0  0  0  0  0  0  0  0  0
   19.8870   13.6000   12.6360 C   0  0  0  0  0  0  0  0  0  0  0  0
   21.0430   14.3310   12.1960 C   0  0  0  0  0  0  0  0  0  0  0  0
   21.5560   14.4850   10.8840 C   0  0  0  0  0  0  0  0  0  0  0  0
   21.7340   15.8210    6.8890 C   0  0  0  0  0  0  0  0  0  0  0  0
   20.5650   16.3240    6.5530 N   0  0  0  0  0  0  0  0  0  0  0  0
   18.9504   19.6134    8.5356 H   0  0  0  0  0  0  0  0  0  0  0  0
   19.8320   19.3891    6.9867 H   0  0  0  0  0  0  0  0  0  0  0  0
   18.0430   19.5504    6.9867 H   0  0  0  0  0  0  0  0  0  0  0  0
   18.2531   17.4236    8.6215 H   0  0  0  0  0  0  0  0  0  0  0  0
   18.2054   17.2750    6.8119 H   0  0  0  0  0  0  0  0  0  0  0  0
   20.9046   17.2057    9.7516 H   0  0  0  0  0  0  0  0  0  0  0  0
   24.2689   16.4509   11.5372 H   0  0  0  0  0  0  0  0  0  0  0  0
   23.6596   18.1889   13.0573 H   0  0  0  0  0  0  0  0  0  0  0  0
   23.7945   18.7492   15.7521 H   0  0  0  0  0  0  0  0  0  0  0  0
   25.3208   16.8828   16.1395 H   0  0  0  0  0  0  0  0  0  0  0  0
   26.4560   17.5241   14.9033 H   0  0  0  0  0  0  0  0  0  0  0  0
   25.6039   18.8941   17.5015 H   0  0  0  0  0  0  0  0  0  0  0  0
   27.2219   18.1806   17.1166 H   0  0  0  0  0  0  0  0  0  0  0  0
   26.0946   21.5320   14.9147 H   0  0  0  0  0  0  0  0  0  0  0  0
   18.8489   13.2029   14.5209 H   0  0  0  0  0  0  0  0  0  0  0  0
   19.2367   13.0267   11.9590 H   0  0  0  0  0  0  0  0  0  0  0  0
   21.0551   13.9937   10.0368 H   0  0  0  0  0  0  0  0  0  0  0  0
   22.3792   15.2340    6.2188 H   0  0  0  0  0  0  0  0  0  0  0  0
  1  2  1  0
  2  3  1  0
  3  4  2  0
  4  5  1  0
  5  6  1  0
  6  7  2  0
  6  8  2  0
  6  9  1  0
  9 10  2  0
 10 11  1  0
 11 12  1  0
 12 13  2  0
 12 14  1  0
 14 15  1  0
 15 16  1  0
 16 17  1  0
 17 18  1  0
 18 19  2  0
 18 20  1  0
 20 21  1  0
 21 22  2  0
 11 23  2  0
 23 24  1  0
 24 25  1  0
 25 26  2  0
 26 27  1  0
 27 28  2  0
  5 29  1  0
 29 30  2  0
 30  3  1  0
 28  9  1  0
 21 15  1  0
 27 23  1  0
  1 31  1  0
  1 32  1  0
  1 33  1  0
  2 34  1  0
  2 35  1  0
  4 36  1  0
 10 37  1  0
 14 38  1  0
 15 39  1  1
 16 40  1  0
 16 41  1  0
 17 42  1  0
 17 43  1  0
 20 44  1  0
 25 45  1  0
 26 46  1  0
 28 47  1  0
 29 48  1  0
M  END
>  <meeko>  (544) 
{"is_sidechain": [true], "free_energy": -10.72, "intermolecular_energy": 0.0, "internal_energy": -10.72, "cluster_size": 19, "cluster_id": 1, "rank_in_cluster": 1}

>  <_RMSD_MCS_to_ref>  (544) 
0.4584613154648685

$$$$
ligand
     RDKit          3D

 50 53  0  0  0  0  0  0  0  0999 V2000
   18.9090   19.1540    7.5370 C   0  0  0  0  0  0  0  0  0  0  0  0
   18.7730   17.6460    7.6780 C   0  0  0  0  0  0  0  0  0  0  0  0
   20.0930   16.9600    7.6720 C   0  0  0  0  0  0  0  0  0  0  0  0
   21.0100   16.8290    8.6970 C   0  0  0  0  0  0  0  0  0  0  0  0
   22.0420   16.1330    8.1380 N   0  0  0  0  0  0  0  0  0  0  0  0
   23.3460   15.4700    8.9620 S   0  0  0  0  0  6  0  0  0  0  0  0
   23.5400   14.1510    8.3920 O   0  0  0  0  0  0  0  0  0  0  0  0
   24.3850   16.4780    8.9690 O   0  0  0  0  0  0  0  0  0  0  0  0
   22.7600   15.2740   10.6250 C   0  0  0  0  0  0  0  0  0  0  0  0
   23.4210   15.9140   11.6780 C   0  0  0  0  0  0  0  0  0  0  0  0
   22.9470   15.7660   12.9930 C   0  0  0  0  0  0  0  0  0  0  0  0
   23.7010   16.4160   14.0880 C   0  0  0  0  0  0  0  0  0  0  0  0
   24.0490   15.7680   15.0630 O   0  0  0  0  0  0  0  0  0  0  0  0
   23.9640   17.7540   13.9200 N   0  0  0  0  0  0  0  0  0  0  0  0
   24.5790   18.5430   14.9810 C   0  0  1  0  0  0  0  0  0  0  0  0
   25.7070   17.7930   15.6780 C   0  0  0  0  0  0  0  0  0  0  0  0
   26.3320   18.6890   16.7380 C   0  0  0  0  0  0  0  0  0  0  0  0
   26.8040   19.9950   16.1450 C   0  0  0  0  0  0  0  0  0  0  0  0
   27.8000   20.5840   16.5560 O   0  0  0  0  0  0  0  0  0  0  0  0
   26.0450   20.5190   15.1290 N   0  0  0  0  0  0  0  0  0  0  0  0
   25.1400   19.8280   14.3640 C   0  0  0  0  0  0  0  0  0  0  0  0
   24.7980   20.2310   13.2520 O   0  0  0  0  0  0  0  0  0  0  0  0
   21.8160   14.9780   13.2440 C   0  0  0  0  0  0  0  0  0  0  0  0
   21.2300   14.7950   14.5780 C   0  0  0  0  0  0  0  0  0  0  0  0
   20.1680   14.0870   14.8170 N   0  0  0  0  0  0  0  0  0  0  0  0
   19.5660   13.4690   13.7640 N   0  0  0  0  0  0  0  0  0  0  0  0
   19.9670   13.5370   12.4530 C   0  0  0  0  0  0  0  0  0  0  0  0
   19.3860   12.9570   11.5450 O   0  0  0  0  0  0  0  0  0  0  0  0
   21.1620   14.3560   12.1820 C   0  0  0  0  0  0  0  0  0  0  0  0
   21.6210   14.5030   10.8670 C   0  0  0  0  0  0  0  0  0  0  0  0
   21.7300   15.8290    6.8520 C   0  0  0  0  0  0  0  0  0  0  0  0
   20.5520   16.3220    6.5350 N   0  0  0  0  0  0  0  0  0  0  0  0
   18.9504   19.6134    8.5356 H   0  0  0  0  0  0  0  0  0  0  0  0
   19.8320   19.3891    6.9867 H   0  0  0  0  0  0  0  0  0  0  0  0
   18.0430   19.5504    6.9867 H   0  0  0  0  0  0  0  0  0  0  0  0
   18.2624   17.4235    8.6265 H   0  0  0  0  0  0  0  0  0  0  0  0
   18.1965   17.2768    6.8170 H   0  0  0  0  0  0  0  0  0  0  0  0
   20.9271   17.2011    9.7288 H   0  0  0  0  0  0  0  0  0  0  0  0
   24.3092   16.5314   11.4779 H   0  0  0  0  0  0  0  0  0  0  0  0
   23.7222   18.2084   13.0278 H   0  0  0  0  0  0  0  0  0  0  0  0
   23.8099   18.7614   15.7365 H   0  0  0  0  0  0  0  0  0  0  0  0
   25.3053   16.8865   16.1544 H   0  0  0  0  0  0  0  0  0  0  0  0
   26.4714   17.5105   14.9391 H   0  0  0  0  0  0  0  0  0  0  0  0
   25.5835   18.8988   17.5163 H   0  0  0  0  0  0  0  0  0  0  0  0
   27.2016   18.1673   17.1642 H   0  0  0  0  0  0  0  0  0  0  0  0
   26.1656   21.5208   14.9223 H   0  0  0  0  0  0  0  0  0  0  0  0
   21.7219   15.2890   15.4288 H   0  0  0  0  0  0  0  0  0  0  0  0
   18.7336   12.8983   13.9698 H   0  0  0  0  0  0  0  0  0  0  0  0
   21.0907   14.0170   10.0348 H   0  0  0  0  0  0  0  0  0  0  0  0
   22.3721   15.2515    6.1707 H   0  0  0  0  0  0  0  0  0  0  0  0
  1  2  1  0
  2  3  1  0
  3  4  2  0
  4  5  1  0
  5  6  1  0
  6  7  2  0
  6  8  2  0
  6  9  1  0
  9 10  2  0
 10 11  1  0
 11 12  1  0
 12 13  2  0
 12 14  1  0
 14 15  1  0
 15 16  1  0
 16 17  1  0
 17 18  1  0
 18 19  2  0
 18 20  1  0
 20 21  1  0
 21 22  2  0
 11 23  2  0
 23 24  1  0
 24 25  2  0
 25 26  1  0
 26 27  1  0
 27 28  2  0
 27 29  1  0
 29 30  2  0
  5 31  1  0
 31 32  2  0
 32  3  1  0
 30  9  1  0
 21 15  1  0
 29 23  1  0
  1 33  1  0
  1 34  1  0
  1 35  1  0
  2 36  1  0
  2 37  1  0
  4 38  1  0
 10 39  1  0
 14 40  1  0
 15 41  1  1
 16 42  1  0
 16 43  1  0
 17 44  1  0
 17 45  1  0
 20 46  1  0
 24 47  1  0
 26 48  1  0
 30 49  1  0
 31 50  1  0
M  END
>  <meeko>  (545) 
{"is_sidechain": [true], "free_energy": -10.72, "intermolecular_energy": 0.0, "internal_energy": -10.72, "cluster_size": 19, "cluster_id": 1, "rank_in_cluster": 1}

>  <_RMSD_MCS_to_ref>  (545) 
0.43906149910917963

$$$$
ligand
     RDKit          3D

 53 57  0  0  0  0  0  0  0  0999 V2000
   18.8250   19.0180    7.5350 C   0  0  0  0  0  0  0  0  0  0  0  0
   18.5200   17.5410    7.7330 C   0  0  0  0  0  0  0  0  0  0  0  0
   19.7590   16.7260    7.8470 C   0  0  0  0  0  0  0  0  0  0  0  0
   20.1870   15.9390    8.8980 C   0  0  0  0  0  0  0  0  0  0  0  0
   21.3610   15.4010    8.4530 N   0  0  0  0  0  0  0  0  0  0  0  0
   22.3540   14.3660    9.3200 S   0  0  0  0  0  6  0  0  0  0  0  0
   23.5250   14.2170    8.4770 O   0  0  0  0  0  0  0  0  0  0  0  0
   21.5500   13.2260    9.7150 O   0  0  0  0  0  0  0  0  0  0  0  0
   22.8340   15.2520   10.7880 C   0  0  0  0  0  0  0  0  0  0  0  0
   21.8880   15.2840   11.8450 C   0  0  0  0  0  0  0  0  0  0  0  0
   22.1710   15.9470   13.0400 C   0  0  0  0  0  0  0  0  0  0  0  0
   23.3960   16.5730   13.1410 C   0  0  0  0  0  0  0  0  0  0  0  0
   24.3390   16.5630   12.1120 C   0  0  0  0  0  0  0  0  0  0  0  0
   24.0820   15.8980   10.9130 C   0  0  0  0  0  0  0  0  0  0  0  0
   25.0910   15.9400    9.8690 C   0  0  0  0  0  0  0  0  0  0  0  0
   24.9310   16.4210    8.5330 C   0  0  0  0  0  0  0  0  0  0  0  0
   26.1020   16.3620    7.8120 C   0  0  0  0  0  0  0  0  0  0  0  0
   27.4020   15.7570    8.7450 S   0  0  0  0  0  0  0  0  0  0  0  0
   26.3960   15.5590   10.1160 C   0  0  0  0  0  0  0  0  0  0  0  0
   25.5490   17.3350   12.5400 C   0  0  0  0  0  0  0  0  0  0  0  0
   25.1690   17.8320   13.8560 N   0  0  0  0  0  0  0  0  0  0  0  0
   26.1230   18.3980   14.8040 C   0  0  2  0  0  0  0  0  0  0  0  0
   25.7380   18.1260   16.2550 C   0  0  0  0  0  0  0  0  0  0  0  0
   26.8190   18.6740   17.1750 C   0  0  0  0  0  0  0  0  0  0  0  0
   27.0620   20.1430   16.9170 C   0  0  0  0  0  0  0  0  0  0  0  0
   27.3410   20.9300   17.8170 O   0  0  0  0  0  0  0  0  0  0  0  0
   26.9730   20.5620   15.6140 N   0  0  0  0  0  0  0  0  0  0  0  0
   26.2940   19.9140   14.6080 C   0  0  0  0  0  0  0  0  0  0  0  0
   25.8620   20.5420   13.6440 O   0  0  0  0  0  0  0  0  0  0  0  0
   23.9420   17.3350   14.2660 C   0  0  0  0  0  0  0  0  0  0  0  0
   23.3970   17.4750   15.3440 O   0  0  0  0  0  0  0  0  0  0  0  0
   21.6410   15.8940    7.2190 C   0  0  0  0  0  0  0  0  0  0  0  0
   20.6730   16.6890    6.8130 N   0  0  0  0  0  0  0  0  0  0  0  0
   18.9258   19.5062    8.5155 H   0  0  0  0  0  0  0  0  0  0  0  0
   19.7645   19.1263    6.9731 H   0  0  0  0  0  0  0  0  0  0  0  0
   18.0053   19.4896    6.9731 H   0  0  0  0  0  0  0  0  0  0  0  0
   17.9299   17.4206    8.6535 H   0  0  0  0  0  0  0  0  0  0  0  0
   17.9616   17.1887    6.8532 H   0  0  0  0  0  0  0  0  0  0  0  0
   19.6957   15.7817    9.8695 H   0  0  0  0  0  0  0  0  0  0  0  0
   20.9185   14.7794   11.7209 H   0  0  0  0  0  0  0  0  0  0  0  0
   21.4467   15.9694   13.8676 H   0  0  0  0  0  0  0  0  0  0  0  0
   23.9799   16.7959    8.1268 H   0  0  0  0  0  0  0  0  0  0  0  0
   26.1914   16.6680    6.7592 H   0  0  0  0  0  0  0  0  0  0  0  0
   26.7485   15.1724   11.0836 H   0  0  0  0  0  0  0  0  0  0  0  0
   26.4326   16.6829   12.6032 H   0  0  0  0  0  0  0  0  0  0  0  0
   25.8255   18.1344   11.8368 H   0  0  0  0  0  0  0  0  0  0  0  0
   27.0782   17.8941   14.5950 H   0  0  0  0  0  0  0  0  0  0  0  0
   24.7805   18.6187   16.4793 H   0  0  0  0  0  0  0  0  0  0  0  0
   25.6366   17.0419   16.4116 H   0  0  0  0  0  0  0  0  0  0  0  0
   26.5025   18.5406   18.2200 H   0  0  0  0  0  0  0  0  0  0  0  0
   27.7530   18.1266   16.9802 H   0  0  0  0  0  0  0  0  0  0  0  0
   27.4563   21.4375   15.3673 H   0  0  0  0  0  0  0  0  0  0  0  0
   22.5476   15.6622    6.6408 H   0  0  0  0  0  0  0  0  0  0  0  0
  1  2  1  0
  2  3  1  0
  3  4  2  0
  4  5  1  0
  5  6  1  0
  6  7  2  0
  6  8  2  0
  6  9  1  0
  9 10  2  0
 10 11  1  0
 11 12  2  0
 12 13  1  0
 13 14  2  0
 14 15  1  0
 15 16  1  0
 16 17  2  0
 17 18  1  0
 18 19  1  0
 13 20  1  0
 20 21  1  0
 21 22  1  0
 22 23  1  0
 23 24  1  0
 24 25  1  0
 25 26  2  0
 25 27  1  0
 27 28  1  0
 28 29  2  0
 21 30  1  0
 30 31  2  0
  5 32  1  0
 32 33  2  0
 33  3  1  0
 14  9  1  0
 19 15  2  0
 28 22  1  0
 30 12  1  0
  1 34  1  0
  1 35  1  0
  1 36  1  0
  2 37  1  0
  2 38  1  0
  4 39  1  0
 10 40  1  0
 11 41  1  0
 16 42  1  0
 17 43  1  0
 19 44  1  0
 20 45  1  0
 20 46  1  0
 22 47  1  6
 23 48  1  0
 23 49  1  0
 24 50  1  0
 24 51  1  0
 27 52  1  0
 32 53  1  0
M  END
>  <meeko>  (546) 
{"is_sidechain": [true], "free_energy": -10.71, "intermolecular_energy": 0.0, "internal_energy": -10.71, "cluster_size": 18, "cluster_id": 1, "rank_in_cluster": 1}

>  <_RMSD_MCS_to_ref>  (546) 
0.987906231492758

$$$$
ligand
     RDKit          3D

 46 49  0  0  0  0  0  0  0  0999 V2000
   18.9090   19.1540    7.5370 C   0  0  0  0  0  0  0  0  0  0  0  0
   18.7730   17.6460    7.6780 C   0  0  0  0  0  0  0  0  0  0  0  0
   20.0830   16.9850    7.9240 C   0  0  0  0  0  0  0  0  0  0  0  0
   20.8220   16.9290    9.0900 C   0  0  0  0  0  0  0  0  0  0  0  0
   21.9250   16.2000    8.7490 N   0  0  0  0  0  0  0  0  0  0  0  0
   23.2140   15.8380    9.7710 S   0  0  0  0  0  6  0  0  0  0  0  0
   24.3930   16.4500    9.1820 O   0  0  0  0  0  0  0  0  0  0  0  0
   23.1450   14.3950    9.9260 O   0  0  0  0  0  0  0  0  0  0  0  0
   22.9460   16.4910   11.2380 O   0  0  0  0  0  0  0  0  0  0  0  0
   22.5830   15.6580   12.2550 C   0  0  0  0  0  0  0  0  0  0  0  0
   21.6920   14.6960   11.9250 N   0  0  0  0  0  0  0  0  0  0  0  0
   21.3620   13.7980   12.8780 C   0  0  0  0  0  0  0  0  0  0  0  0
   21.8960   13.8110   14.1530 C   0  0  0  0  0  0  0  0  0  0  0  0
   22.8210   14.8030   14.4670 C   0  0  0  0  0  0  0  0  0  0  0  0
   23.1860   15.7550   13.5060 C   0  0  0  0  0  0  0  0  0  0  0  0
   24.1730   16.7920   13.8880 C   0  0  0  0  0  0  0  0  0  0  0  0
   25.4510   16.5710   13.8720 N   0  0  0  0  0  0  0  0  0  0  0  0
   26.0930   17.7630   14.2740 O   0  0  0  0  0  0  0  0  0  0  0  0
   25.1230   18.6110   14.9020 C   0  0  1  0  0  0  0  0  0  0  0  0
   25.2090   18.4460   16.4210 C   0  0  0  0  0  0  0  0  0  0  0  0
   26.6010   18.8190   16.9160 C   0  0  0  0  0  0  0  0  0  0  0  0
   27.0000   20.1990   16.4510 C   0  0  0  0  0  0  0  0  0  0  0  0
   27.6810   20.9530   17.1400 O   0  0  0  0  0  0  0  0  0  0  0  0
   26.5720   20.5780   15.2050 N   0  0  0  0  0  0  0  0  0  0  0  0
   25.4910   20.0480   14.5360 C   0  0  0  0  0  0  0  0  0  0  0  0
   24.8690   20.7340   13.7290 O   0  0  0  0  0  0  0  0  0  0  0  0
   23.7920   18.1660   14.3240 C   0  0  0  0  0  0  0  0  0  0  0  0
   21.8490   15.8560    7.4390 C   0  0  0  0  0  0  0  0  0  0  0  0
   20.7330   16.3120    6.9070 N   0  0  0  0  0  0  0  0  0  0  0  0
   18.9504   19.6134    8.5356 H   0  0  0  0  0  0  0  0  0  0  0  0
   19.8320   19.3891    6.9867 H   0  0  0  0  0  0  0  0  0  0  0  0
   18.0430   19.5504    6.9867 H   0  0  0  0  0  0  0  0  0  0  0  0
   18.1020   17.4280    8.5220 H   0  0  0  0  0  0  0  0  0  0  0  0
   18.3682   17.2533    6.7336 H   0  0  0  0  0  0  0  0  0  0  0  0
   20.5780   17.3701   10.0677 H   0  0  0  0  0  0  0  0  0  0  0  0
   20.6305   13.0158   12.6268 H   0  0  0  0  0  0  0  0  0  0  0  0
   21.5985   13.0588   14.8984 H   0  0  0  0  0  0  0  0  0  0  0  0
   23.2664   14.8395   15.4721 H   0  0  0  0  0  0  0  0  0  0  0  0
   24.4661   19.1010   16.8997 H   0  0  0  0  0  0  0  0  0  0  0  0
   25.0074   17.3958   16.6786 H   0  0  0  0  0  0  0  0  0  0  0  0
   26.6078   18.7961   18.0157 H   0  0  0  0  0  0  0  0  0  0  0  0
   27.3198   18.0944   16.5059 H   0  0  0  0  0  0  0  0  0  0  0  0
   27.1033   21.3213   14.7294 H   0  0  0  0  0  0  0  0  0  0  0  0
   22.9968   18.1517   15.0839 H   0  0  0  0  0  0  0  0  0  0  0  0
   23.3784   18.8138   13.5370 H   0  0  0  0  0  0  0  0  0  0  0  0
   22.6118   15.2777    6.8970 H   0  0  0  0  0  0  0  0  0  0  0  0
  1  2  1  0
  2  3  1  0
  3  4  2  0
  4  5  1  0
  5  6  1  0
  6  7  2  0
  6  8  2  0
  6  9  1  0
  9 10  1  0
 10 11  2  0
 11 12  1  0
 12 13  2  0
 13 14  1  0
 14 15  2  0
 15 16  1  0
 16 17  2  0
 17 18  1  0
 19 18  1  6
 19 20  1  0
 20 21  1  0
 21 22  1  0
 22 23  2  0
 22 24  1  0
 24 25  1  0
 25 26  2  0
 19 27  1  0
  5 28  1  0
 28 29  2  0
 29  3  1  0
 15 10  1  0
 27 16  1  0
 25 19  1  0
  1 30  1  0
  1 31  1  0
  1 32  1  0
  2 33  1  0
  2 34  1  0
  4 35  1  0
 12 36  1  0
 13 37  1  0
 14 38  1  0
 20 39  1  0
 20 40  1  0
 21 41  1  0
 21 42  1  0
 24 43  1  0
 27 44  1  0
 27 45  1  0
 28 46  1  0
M  END
>  <meeko>  (547) 
{"is_sidechain": [true], "free_energy": -10.71, "intermolecular_energy": 0.0, "internal_energy": -10.71, "cluster_size": 20, "cluster_id": 1, "rank_in_cluster": 1}

>  <_RMSD_MCS_to_ref>  (547) 
0.6515943907063662

$$$$
ligand
     RDKit          3D

 48 51  0  0  0  0  0  0  0  0999 V2000
   18.9090   19.1540    7.5370 C   0  0  0  0  0  0  0  0  0  0  0  0
   18.7730   17.6460    7.6780 C   0  0  0  0  0  0  0  0  0  0  0  0
   19.9700   16.9230    7.1690 C   0  0  0  0  0  0  0  0  0  0  0  0
   21.2340   16.8390    7.7210 C   0  0  0  0  0  0  0  0  0  0  0  0
   21.9360   16.0780    6.8320 N   0  0  0  0  0  0  0  0  0  0  0  0
   23.4820   15.4600    7.0650 S   0  0  0  0  0  6  0  0  0  0  0  0
   23.3990   14.0550    6.7160 O   0  0  0  0  0  0  0  0  0  0  0  0
   24.3850   16.3760    6.3950 O   0  0  0  0  0  0  0  0  0  0  0  0
   23.7260   15.6000    8.8180 C   0  0  0  0  0  0  0  0  0  0  0  0
   24.8980   16.1940    9.2950 C   0  0  0  0  0  0  0  0  0  0  0  0
   25.1150   16.3170   10.6730 C   0  0  0  0  0  0  0  0  0  0  0  0
   24.1430   15.8260   11.5680 C   0  0  0  0  0  0  0  0  0  0  0  0
   23.9950   15.7590   12.9860 C   0  0  0  0  0  0  0  0  0  0  0  0
   24.9300   16.2570   14.0070 C   0  0  0  0  0  0  0  0  0  0  0  0
   25.5660   15.5250   14.7610 O   0  0  0  0  0  0  0  0  0  0  0  0
   25.0370   17.6290   14.0290 N   0  0  0  0  0  0  0  0  0  0  0  0
   26.0240   18.3240   14.8310 C   0  0  2  0  0  0  0  0  0  0  0  0
   25.8400   18.0510   16.3210 C   0  0  0  0  0  0  0  0  0  0  0  0
   26.8880   18.8210   17.1120 C   0  0  0  0  0  0  0  0  0  0  0  0
   26.8320   20.2980   16.8030 C   0  0  0  0  0  0  0  0  0  0  0  0
   27.0970   21.1550   17.6400 O   0  0  0  0  0  0  0  0  0  0  0  0
   26.5010   20.6440   15.5170 N   0  0  0  0  0  0  0  0  0  0  0  0
   25.9090   19.8320   14.5810 C   0  0  0  0  0  0  0  0  0  0  0  0
   25.3470   20.3110   13.5970 O   0  0  0  0  0  0  0  0  0  0  0  0
   22.8350   15.1590   13.3290 N   0  0  0  0  0  0  0  0  0  0  0  0
   22.2670   14.8520   12.1510 N   0  0  0  0  0  0  0  0  0  0  0  0
   22.9960   15.2270   11.0570 C   0  0  0  0  0  0  0  0  0  0  0  0
   22.7480   15.0910    9.6860 C   0  0  0  0  0  0  0  0  0  0  0  0
   21.1100   15.6920    5.8260 C   0  0  0  0  0  0  0  0  0  0  0  0
   19.9070   16.1970    5.9950 N   0  0  0  0  0  0  0  0  0  0  0  0
   18.9504   19.6134    8.5356 H   0  0  0  0  0  0  0  0  0  0  0  0
   19.8320   19.3891    6.9867 H   0  0  0  0  0  0  0  0  0  0  0  0
   18.0430   19.5504    6.9867 H   0  0  0  0  0  0  0  0  0  0  0  0
   18.6368   17.4006    8.7416 H   0  0  0  0  0  0  0  0  0  0  0  0
   17.9068   17.3279    7.0793 H   0  0  0  0  0  0  0  0  0  0  0  0
   21.5922   17.2835    8.6613 H   0  0  0  0  0  0  0  0  0  0  0  0
   25.6521   16.5659    8.5858 H   0  0  0  0  0  0  0  0  0  0  0  0
   26.0324   16.7908   11.0522 H   0  0  0  0  0  0  0  0  0  0  0  0
   24.3893   18.1844   13.4520 H   0  0  0  0  0  0  0  0  0  0  0  0
   27.0176   17.9553   14.5363 H   0  0  0  0  0  0  0  0  0  0  0  0
   24.8356   18.3745   16.6316 H   0  0  0  0  0  0  0  0  0  0  0  0
   25.9545   16.9739   16.5129 H   0  0  0  0  0  0  0  0  0  0  0  0
   26.7065   18.6725   18.1867 H   0  0  0  0  0  0  0  0  0  0  0  0
   27.8823   18.4444   16.8299 H   0  0  0  0  0  0  0  0  0  0  0  0
   26.7179   21.6076   15.2250 H   0  0  0  0  0  0  0  0  0  0  0  0
   21.3577   14.3738   12.0781 H   0  0  0  0  0  0  0  0  0  0  0  0
   21.8336   14.6099    9.3086 H   0  0  0  0  0  0  0  0  0  0  0  0
   21.4057   15.0464    4.9859 H   0  0  0  0  0  0  0  0  0  0  0  0
  1  2  1  0
  2  3  1  0
  3  4  2  0
  4  5  1  0
  5  6  1  0
  6  7  2  0
  6  8  2  0
  6  9  1  0
  9 10  2  0
 10 11  1  0
 11 12  2  0
 12 13  1  0
 13 14  1  0
 14 15  2  0
 14 16  1  0
 16 17  1  0
 17 18  1  0
 18 19  1  0
 19 20  1  0
 20 21  2  0
 20 22  1  0
 22 23  1  0
 23 24  2  0
 13 25  2  0
 25 26  1  0
 26 27  1  0
 27 28  2  0
  5 29  1  0
 29 30  2  0
 30  3  1  0
 28  9  1  0
 27 12  1  0
 23 17  1  0
  1 31  1  0
  1 32  1  0
  1 33  1  0
  2 34  1  0
  2 35  1  0
  4 36  1  0
 10 37  1  0
 11 38  1  0
 16 39  1  0
 17 40  1  6
 18 41  1  0
 18 42  1  0
 19 43  1  0
 19 44  1  0
 22 45  1  0
 26 46  1  0
 28 47  1  0
 29 48  1  0
M  END
>  <meeko>  (548) 
{"is_sidechain": [true], "free_energy": -10.71, "intermolecular_energy": 0.0, "internal_energy": -10.71, "cluster_size": 12, "cluster_id": 1, "rank_in_cluster": 1}

>  <_RMSD_MCS_to_ref>  (548) 
0.7604510357529789

$$$$
ligand
     RDKit          3D

 48 51  0  0  0  0  0  0  0  0999 V2000
   18.9090   19.1540    7.5370 C   0  0  0  0  0  0  0  0  0  0  0  0
   18.7730   17.6460    7.6780 C   0  0  0  0  0  0  0  0  0  0  0  0
   19.9930   16.9270    7.2200 C   0  0  0  0  0  0  0  0  0  0  0  0
   21.2270   16.8360    7.8320 C   0  0  0  0  0  0  0  0  0  0  0  0
   21.9600   16.0480    6.9910 N   0  0  0  0  0  0  0  0  0  0  0  0
   23.5860   15.6840    7.1420 S   0  0  0  0  0  6  0  0  0  0  0  0
   24.3000   16.6340    6.3090 O   0  0  0  0  0  0  0  0  0  0  0  0
   23.7060   14.2470    6.9730 O   0  0  0  0  0  0  0  0  0  0  0  0
   24.1120   16.0050    8.7610 C   0  0  0  0  0  0  0  0  0  0  0  0
   25.2640   16.6350    9.0580 N   0  0  0  0  0  0  0  0  0  0  0  0
   25.2700   16.6520   10.4040 N   0  0  0  0  0  0  0  0  0  0  0  0
   24.1660   16.0730   10.9780 C   0  0  0  0  0  0  0  0  0  0  0  0
   23.8110   15.9110   12.3280 C   0  0  0  0  0  0  0  0  0  0  0  0
   24.7210   16.4380   13.3810 C   0  0  0  0  0  0  0  0  0  0  0  0
   25.2710   15.6550   14.1530 O   0  0  0  0  0  0  0  0  0  0  0  0
   24.9330   17.7960   13.4190 N   0  0  0  0  0  0  0  0  0  0  0  0
   25.9140   18.3840   14.3210 C   0  0  2  0  0  0  0  0  0  0  0  0
   25.6750   17.9890   15.7740 C   0  0  0  0  0  0  0  0  0  0  0  0
   26.7050   18.6720   16.6610 C   0  0  0  0  0  0  0  0  0  0  0  0
   26.6850   20.1710   16.4720 C   0  0  0  0  0  0  0  0  0  0  0  0
   26.9150   20.9540   17.3900 O   0  0  0  0  0  0  0  0  0  0  0  0
   26.4230   20.6280   15.2060 N   0  0  0  0  0  0  0  0  0  0  0  0
   25.8310   19.9080   14.1980 C   0  0  0  0  0  0  0  0  0  0  0  0
   25.2780   20.4680   13.2520 O   0  0  0  0  0  0  0  0  0  0  0  0
   22.6080   15.2330   12.5820 C   0  0  0  0  0  0  0  0  0  0  0  0
   21.8030   14.7730   11.5370 C   0  0  0  0  0  0  0  0  0  0  0  0
   22.1750   14.9660   10.2010 C   0  0  0  0  0  0  0  0  0  0  0  0
   23.3860   15.6270    9.9190 C   0  0  0  0  0  0  0  0  0  0  0  0
   21.2090   15.7400    5.9030 C   0  0  0  0  0  0  0  0  0  0  0  0
   19.9940   16.2350    6.0250 N   0  0  0  0  0  0  0  0  0  0  0  0
   18.9504   19.6134    8.5356 H   0  0  0  0  0  0  0  0  0  0  0  0
   19.8320   19.3891    6.9867 H   0  0  0  0  0  0  0  0  0  0  0  0
   18.0430   19.5504    6.9867 H   0  0  0  0  0  0  0  0  0  0  0  0
   18.5950   17.4036    8.7361 H   0  0  0  0  0  0  0  0  0  0  0  0
   17.9326   17.3219    7.0466 H   0  0  0  0  0  0  0  0  0  0  0  0
   21.5468   17.2934    8.7799 H   0  0  0  0  0  0  0  0  0  0  0  0
   26.0365   17.0638   10.9552 H   0  0  0  0  0  0  0  0  0  0  0  0
   24.3873   18.4097   12.7973 H   0  0  0  0  0  0  0  0  0  0  0  0
   26.9085   18.0101   14.0360 H   0  0  0  0  0  0  0  0  0  0  0  0
   24.6649   18.3014   16.0775 H   0  0  0  0  0  0  0  0  0  0  0  0
   25.7679   16.8978   15.8774 H   0  0  0  0  0  0  0  0  0  0  0  0
   26.4817   18.4405   17.7129 H   0  0  0  0  0  0  0  0  0  0  0  0
   27.7026   18.3005   16.3839 H   0  0  0  0  0  0  0  0  0  0  0  0
   26.6946   21.5982   14.9921 H   0  0  0  0  0  0  0  0  0  0  0  0
   22.2939   15.0610   13.6221 H   0  0  0  0  0  0  0  0  0  0  0  0
   20.8624   14.2512   11.7673 H   0  0  0  0  0  0  0  0  0  0  0  0
   21.5313   14.6069    9.3845 H   0  0  0  0  0  0  0  0  0  0  0  0
   21.5651   15.1583    5.0399 H   0  0  0  0  0  0  0  0  0  0  0  0
  1  2  1  0
  2  3  1  0
  3  4  2  0
  4  5  1  0
  5  6  1  0
  6  7  2  0
  6  8  2  0
  6  9  1  0
  9 10  2  0
 10 11  1  0
 11 12  1  0
 12 13  2  0
 13 14  1  0
 14 15  2  0
 14 16  1  0
 16 17  1  0
 17 18  1  0
 18 19  1  0
 19 20  1  0
 20 21  2  0
 20 22  1  0
 22 23  1  0
 23 24  2  0
 13 25  1  0
 25 26  2  0
 26 27  1  0
 27 28  2  0
  5 29  1  0
 29 30  2  0
 30  3  1  0
 28  9  1  0
 28 12  1  0
 23 17  1  0
  1 31  1  0
  1 32  1  0
  1 33  1  0
  2 34  1  0
  2 35  1  0
  4 36  1  0
 11 37  1  0
 16 38  1  0
 17 39  1  6
 18 40  1  0
 18 41  1  0
 19 42  1  0
 19 43  1  0
 22 44  1  0
 25 45  1  0
 26 46  1  0
 27 47  1  0
 29 48  1  0
M  END
>  <meeko>  (549) 
{"is_sidechain": [true], "free_energy": -10.71, "intermolecular_energy": 0.0, "internal_energy": -10.71, "cluster_size": 12, "cluster_id": 1, "rank_in_cluster": 1}

>  <_RMSD_MCS_to_ref>  (549) 
0.6257440903969181

$$$$
ligand
     RDKit          3D

 48 51  0  0  0  0  0  0  0  0999 V2000
   18.9090   19.1540    7.5370 C   0  0  0  0  0  0  0  0  0  0  0  0
   18.7730   17.6460    7.6780 C   0  0  0  0  0  0  0  0  0  0  0  0
   19.9790   16.9260    7.1880 C   0  0  0  0  0  0  0  0  0  0  0  0
   21.2290   16.8290    7.7690 C   0  0  0  0  0  0  0  0  0  0  0  0
   21.9480   16.0680    6.8920 N   0  0  0  0  0  0  0  0  0  0  0  0
   23.5100   15.4970    7.1260 S   0  0  0  0  0  6  0  0  0  0  0  0
   24.3700   16.4370    6.4260 O   0  0  0  0  0  0  0  0  0  0  0  0
   23.4720   14.0860    6.7880 O   0  0  0  0  0  0  0  0  0  0  0  0
   23.8130   15.6540    8.8670 C   0  0  0  0  0  0  0  0  0  0  0  0
   24.9450   16.3340    9.2960 C   0  0  0  0  0  0  0  0  0  0  0  0
   25.1590   16.4520   10.6690 C   0  0  0  0  0  0  0  0  0  0  0  0
   24.2150   15.8750   11.5430 C   0  0  0  0  0  0  0  0  0  0  0  0
   24.0620   15.7730   12.9690 C   0  0  0  0  0  0  0  0  0  0  0  0
   24.9740   16.3120   13.9780 C   0  0  0  0  0  0  0  0  0  0  0  0
   25.6020   15.5940   14.7490 O   0  0  0  0  0  0  0  0  0  0  0  0
   25.0940   17.6820   13.9970 N   0  0  0  0  0  0  0  0  0  0  0  0
   26.0790   18.3460   14.8370 C   0  0  2  0  0  0  0  0  0  0  0  0
   25.8560   18.0700   16.3200 C   0  0  0  0  0  0  0  0  0  0  0  0
   26.8900   18.8280   17.1380 C   0  0  0  0  0  0  0  0  0  0  0  0
   26.8590   20.3060   16.8290 C   0  0  0  0  0  0  0  0  0  0  0  0
   27.0920   21.1620   17.6760 O   0  0  0  0  0  0  0  0  0  0  0  0
   26.5820   20.6570   15.5310 N   0  0  0  0  0  0  0  0  0  0  0  0
   25.9820   19.8550   14.5920 C   0  0  0  0  0  0  0  0  0  0  0  0
   25.4140   20.3360   13.6120 O   0  0  0  0  0  0  0  0  0  0  0  0
   22.8900   15.0560   13.1820 C   0  0  0  0  0  0  0  0  0  0  0  0
   22.3420   14.7380   11.9650 N   0  0  0  0  0  0  0  0  0  0  0  0
   23.1300   15.2260   10.9620 C   0  0  0  0  0  0  0  0  0  0  0  0
   22.8640   15.0770    9.6520 N   0  0  0  0  0  0  0  0  0  0  0  0
   21.1440   15.6970    5.8620 C   0  0  0  0  0  0  0  0  0  0  0  0
   19.9410   16.2150    6.0040 N   0  0  0  0  0  0  0  0  0  0  0  0
   18.9504   19.6134    8.5356 H   0  0  0  0  0  0  0  0  0  0  0  0
   19.8320   19.3891    6.9867 H   0  0  0  0  0  0  0  0  0  0  0  0
   18.0430   19.5504    6.9867 H   0  0  0  0  0  0  0  0  0  0  0  0
   18.6212   17.4015    8.7397 H   0  0  0  0  0  0  0  0  0  0  0  0
   17.9161   17.3251    7.0674 H   0  0  0  0  0  0  0  0  0  0  0  0
   21.5676   17.2651    8.7204 H   0  0  0  0  0  0  0  0  0  0  0  0
   25.6526   16.7672    8.5737 H   0  0  0  0  0  0  0  0  0  0  0  0
   26.0407   16.9811   11.0597 H   0  0  0  0  0  0  0  0  0  0  0  0
   24.4729   18.2503   13.4036 H   0  0  0  0  0  0  0  0  0  0  0  0
   27.0732   17.9561   14.5732 H   0  0  0  0  0  0  0  0  0  0  0  0
   24.8470   18.4012   16.6069 H   0  0  0  0  0  0  0  0  0  0  0  0
   25.9562   16.9914   16.5113 H   0  0  0  0  0  0  0  0  0  0  0  0
   26.6785   18.6811   18.2074 H   0  0  0  0  0  0  0  0  0  0  0  0
   27.8871   18.4408   16.8814 H   0  0  0  0  0  0  0  0  0  0  0  0
   26.8481   21.6070   15.2351 H   0  0  0  0  0  0  0  0  0  0  0  0
   22.4715   14.7881   14.1634 H   0  0  0  0  0  0  0  0  0  0  0  0
   21.4679   14.2106   11.8284 H   0  0  0  0  0  0  0  0  0  0  0  0
   21.4542   15.0535    5.0255 H   0  0  0  0  0  0  0  0  0  0  0  0
  1  2  1  0
  2  3  1  0
  3  4  2  0
  4  5  1  0
  5  6  1  0
  6  7  2  0
  6  8  2  0
  6  9  1  0
  9 10  2  0
 10 11  1  0
 11 12  2  0
 12 13  1  0
 13 14  1  0
 14 15  2  0
 14 16  1  0
 16 17  1  0
 17 18  1  0
 18 19  1  0
 19 20  1  0
 20 21  2  0
 20 22  1  0
 22 23  1  0
 23 24  2  0
 13 25  2  0
 25 26  1  0
 26 27  1  0
 27 28  2  0
  5 29  1  0
 29 30  2  0
 30  3  1  0
 28  9  1  0
 27 12  1  0
 23 17  1  0
  1 31  1  0
  1 32  1  0
  1 33  1  0
  2 34  1  0
  2 35  1  0
  4 36  1  0
 10 37  1  0
 11 38  1  0
 16 39  1  0
 17 40  1  6
 18 41  1  0
 18 42  1  0
 19 43  1  0
 19 44  1  0
 22 45  1  0
 25 46  1  0
 26 47  1  0
 29 48  1  0
M  END
>  <meeko>  (550) 
{"is_sidechain": [true], "free_energy": -10.71, "intermolecular_energy": 0.0, "internal_energy": -10.71, "cluster_size": 17, "cluster_id": 1, "rank_in_cluster": 1}

>  <_RMSD_MCS_to_ref>  (550) 
0.8037252847418289

$$$$
ligand
     RDKit          3D

 48 51  0  0  0  0  0  0  0  0999 V2000
   18.9090   19.1540    7.5370 C   0  0  0  0  0  0  0  0  0  0  0  0
   18.7730   17.6460    7.6780 C   0  0  0  0  0  0  0  0  0  0  0  0
   19.9810   16.9260    7.1900 C   0  0  0  0  0  0  0  0  0  0  0  0
   21.0600   16.4520    7.9090 C   0  0  0  0  0  0  0  0  0  0  0  0
   21.8520   15.8540    6.9710 N   0  0  0  0  0  0  0  0  0  0  0  0
   23.4410   15.3390    7.2050 S   0  0  0  0  0  6  0  0  0  0  0  0
   23.4470   13.9450    6.8040 O   0  0  0  0  0  0  0  0  0  0  0  0
   24.2480   16.3300    6.5130 O   0  0  0  0  0  0  0  0  0  0  0  0
   23.7730   15.4740    8.9210 C   0  0  0  0  0  0  0  0  0  0  0  0
   23.2490   14.5650    9.7560 C   0  0  0  0  0  0  0  0  0  0  0  0
   23.5050   14.6490   11.1170 N   0  0  0  0  0  0  0  0  0  0  0  0
   23.0400   13.8200   12.0720 N   0  0  0  0  0  0  0  0  0  0  0  0
   23.5600   14.2910   13.2050 C   0  0  0  0  0  0  0  0  0  0  0  0
   24.3560   15.4470   13.0190 C   0  0  0  0  0  0  0  0  0  0  0  0
   25.0330   16.1550   14.0960 C   0  0  0  0  0  0  0  0  0  0  0  0
   25.3560   15.5710   15.1270 O   0  0  0  0  0  0  0  0  0  0  0  0
   25.2790   17.4960   13.9140 N   0  0  0  0  0  0  0  0  0  0  0  0
   26.2180   18.1970   14.7730 C   0  0  2  0  0  0  0  0  0  0  0  0
   25.8720   17.9820   16.2400 C   0  0  0  0  0  0  0  0  0  0  0  0
   26.8610   18.7400   17.1120 C   0  0  0  0  0  0  0  0  0  0  0  0
   26.8990   20.2060   16.7500 C   0  0  0  0  0  0  0  0  0  0  0  0
   27.0800   21.0850   17.5870 O   0  0  0  0  0  0  0  0  0  0  0  0
   26.7450   20.5150   15.4230 N   0  0  0  0  0  0  0  0  0  0  0  0
   26.1770   19.7040   14.4670 C   0  0  0  0  0  0  0  0  0  0  0  0
   25.6850   20.1860   13.4500 O   0  0  0  0  0  0  0  0  0  0  0  0
   24.3000   15.6530   11.6490 C   0  0  0  0  0  0  0  0  0  0  0  0
   24.8860   16.6310   10.7670 C   0  0  0  0  0  0  0  0  0  0  0  0
   25.6110   17.5510   11.1340 O   0  0  0  0  0  0  0  0  0  0  0  0
   24.5740   16.4830    9.4310 N   0  0  0  0  0  0  0  0  0  0  0  0
   21.2920   16.0190    5.7450 C   0  0  0  0  0  0  0  0  0  0  0  0
   20.1470   16.6620    5.8450 N   0  0  0  0  0  0  0  0  0  0  0  0
   18.9504   19.6134    8.5356 H   0  0  0  0  0  0  0  0  0  0  0  0
   19.8320   19.3891    6.9867 H   0  0  0  0  0  0  0  0  0  0  0  0
   18.0430   19.5504    6.9867 H   0  0  0  0  0  0  0  0  0  0  0  0
   18.6192   17.4016    8.7394 H   0  0  0  0  0  0  0  0  0  0  0  0
   17.9173   17.3247    7.0660 H   0  0  0  0  0  0  0  0  0  0  0  0
   21.2406   16.5367    8.9908 H   0  0  0  0  0  0  0  0  0  0  0  0
   22.6176   13.7546    9.3628 H   0  0  0  0  0  0  0  0  0  0  0  0
   23.3878   13.8275   14.1876 H   0  0  0  0  0  0  0  0  0  0  0  0
   24.7938   18.0072   13.1629 H   0  0  0  0  0  0  0  0  0  0  0  0
   27.2249   17.7988   14.5790 H   0  0  0  0  0  0  0  0  0  0  0  0
   24.8542   18.3512   16.4343 H   0  0  0  0  0  0  0  0  0  0  0  0
   25.9245   16.9087   16.4750 H   0  0  0  0  0  0  0  0  0  0  0  0
   26.5612   18.6385   18.1655 H   0  0  0  0  0  0  0  0  0  0  0  0
   27.8630   18.3159   16.9505 H   0  0  0  0  0  0  0  0  0  0  0  0
   27.0849   21.4368   15.1139 H   0  0  0  0  0  0  0  0  0  0  0  0
   24.9628   17.1689    8.7682 H   0  0  0  0  0  0  0  0  0  0  0  0
   21.7327   15.6654    4.8012 H   0  0  0  0  0  0  0  0  0  0  0  0
  1  2  1  0
  2  3  1  0
  3  4  2  0
  4  5  1  0
  5  6  1  0
  6  7  2  0
  6  8  2  0
  6  9  1  0
  9 10  2  0
 10 11  1  0
 11 12  1  0
 12 13  2  0
 13 14  1  0
 14 15  1  0
 15 16  2  0
 15 17  1  0
 17 18  1  0
 18 19  1  0
 19 20  1  0
 20 21  1  0
 21 22  2  0
 21 23  1  0
 23 24  1  0
 24 25  2  0
 14 26  2  0
 26 27  1  0
 27 28  2  0
 27 29  1  0
  5 30  1  0
 30 31  2  0
 31  3  1  0
 29  9  1  0
 26 11  1  0
 24 18  1  0
  1 32  1  0
  1 33  1  0
  1 34  1  0
  2 35  1  0
  2 36  1  0
  4 37  1  0
 10 38  1  0
 13 39  1  0
 17 40  1  0
 18 41  1  1
 19 42  1  0
 19 43  1  0
 20 44  1  0
 20 45  1  0
 23 46  1  0
 29 47  1  0
 30 48  1  0
M  END
>  <meeko>  (551) 
{"is_sidechain": [true], "free_energy": -10.71, "intermolecular_energy": 0.0, "internal_energy": -10.71, "cluster_size": 19, "cluster_id": 1, "rank_in_cluster": 1}

>  <_RMSD_MCS_to_ref>  (551) 
0.8603376598108955

$$$$
ligand
     RDKit          3D

 49 52  0  0  0  0  0  0  0  0999 V2000
   18.9090   19.1540    7.5370 C   0  0  0  0  0  0  0  0  0  0  0  0
   18.7730   17.6460    7.6780 C   0  0  0  0  0  0  0  0  0  0  0  0
   20.0890   16.9550    7.6190 C   0  0  0  0  0  0  0  0  0  0  0  0
   21.0230   16.7760    8.6210 C   0  0  0  0  0  0  0  0  0  0  0  0
   22.0230   16.0620    8.0240 N   0  0  0  0  0  0  0  0  0  0  0  0
   23.4910   15.6360    8.7210 S   0  0  0  0  0  6  0  0  0  0  0  0
   24.4020   16.7190    8.3960 O   0  0  0  0  0  0  0  0  0  0  0  0
   23.7200   14.2670    8.2870 O   0  0  0  0  0  0  0  0  0  0  0  0
   23.1690   15.6480   10.4700 C   0  0  0  0  0  0  0  0  0  0  0  0
   22.1930   14.8460   10.9110 N   0  0  0  0  0  0  0  0  0  0  0  0
   21.9910   14.8750   12.2400 C   0  0  0  0  0  0  0  0  0  0  0  0
   22.7010   15.6750   13.1230 C   0  0  0  0  0  0  0  0  0  0  0  0
   23.6940   16.4450   12.5380 C   0  0  0  0  0  0  0  0  0  0  0  0
   24.5780   17.3600   13.3460 C   0  0  0  0  0  0  0  0  0  0  0  0
   25.7530   17.5730   13.0800 O   0  0  0  0  0  0  0  0  0  0  0  0
   23.9530   17.9390   14.4310 N   0  0  0  0  0  0  0  0  0  0  0  0
   24.6740   18.7320   15.4130 C   0  0  1  0  0  0  0  0  0  0  0  0
   25.7680   17.9250   16.1040 C   0  0  0  0  0  0  0  0  0  0  0  0
   26.4990   18.8110   17.1010 C   0  0  0  0  0  0  0  0  0  0  0  0
   27.0510   20.0480   16.4330 C   0  0  0  0  0  0  0  0  0  0  0  0
   28.0960   20.5810   16.7960 O   0  0  0  0  0  0  0  0  0  0  0  0
   26.3070   20.5780   15.4090 N   0  0  0  0  0  0  0  0  0  0  0  0
   25.3070   19.9410   14.7170 C   0  0  0  0  0  0  0  0  0  0  0  0
   24.9440   20.3470   13.6130 O   0  0  0  0  0  0  0  0  0  0  0  0
   23.9550   16.4550   11.2020 N   0  0  0  0  0  0  0  0  0  0  0  0
   22.4660   15.6970   14.4650 O   0  0  0  0  0  0  0  0  0  0  0  0
   21.2180   15.0880   14.8140 C   0  0  0  0  0  0  0  0  0  0  0  0
   21.0460   13.7820   14.0600 C   0  0  0  0  0  0  0  0  0  0  0  0
   20.9940   14.0270   12.6510 O   0  0  0  0  0  0  0  0  0  0  0  0
   21.7100   15.8670    6.7160 C   0  0  0  0  0  0  0  0  0  0  0  0
   20.5320   16.3870    6.4400 N   0  0  0  0  0  0  0  0  0  0  0  0
   18.9504   19.6134    8.5356 H   0  0  0  0  0  0  0  0  0  0  0  0
   19.8320   19.3891    6.9867 H   0  0  0  0  0  0  0  0  0  0  0  0
   18.0430   19.5504    6.9867 H   0  0  0  0  0  0  0  0  0  0  0  0
   18.2983   17.4220    8.6447 H   0  0  0  0  0  0  0  0  0  0  0  0
   18.1626   17.2821    6.8383 H   0  0  0  0  0  0  0  0  0  0  0  0
   20.9729   17.1280    9.6619 H   0  0  0  0  0  0  0  0  0  0  0  0
   22.9387   17.8045   14.5496 H   0  0  0  0  0  0  0  0  0  0  0  0
   23.9549   19.0556   16.1799 H   0  0  0  0  0  0  0  0  0  0  0  0
   25.3163   17.0729   16.6331 H   0  0  0  0  0  0  0  0  0  0  0  0
   26.4802   17.5541   15.3522 H   0  0  0  0  0  0  0  0  0  0  0  0
   25.7980   19.1137   17.8928 H   0  0  0  0  0  0  0  0  0  0  0  0
   27.3390   18.2397   17.5230 H   0  0  0  0  0  0  0  0  0  0  0  0
   26.5193   21.5473   15.1329 H   0  0  0  0  0  0  0  0  0  0  0  0
   21.2003   14.8887   15.8956 H   0  0  0  0  0  0  0  0  0  0  0  0
   20.3973   15.7695   14.5455 H   0  0  0  0  0  0  0  0  0  0  0  0
   21.8956   13.1196   14.2824 H   0  0  0  0  0  0  0  0  0  0  0  0
   20.1058   13.3066   14.3762 H   0  0  0  0  0  0  0  0  0  0  0  0
   22.3513   15.3472    5.9890 H   0  0  0  0  0  0  0  0  0  0  0  0
  1  2  1  0
  2  3  1  0
  3  4  2  0
  4  5  1  0
  5  6  1  0
  6  7  2  0
  6  8  2  0
  6  9  1  0
  9 10  2  0
 10 11  1  0
 11 12  2  0
 12 13  1  0
 13 14  1  0
 14 15  2  0
 14 16  1  0
 16 17  1  0
 17 18  1  0
 18 19  1  0
 19 20  1  0
 20 21  2  0
 20 22  1  0
 22 23  1  0
 23 24  2  0
 13 25  2  0
 12 26  1  0
 26 27  1  0
 27 28  1  0
 28 29  1  0
  5 30  1  0
 30 31  2  0
 31  3  1  0
 25  9  1  0
 29 11  1  0
 23 17  1  0
  1 32  1  0
  1 33  1  0
  1 34  1  0
  2 35  1  0
  2 36  1  0
  4 37  1  0
 16 38  1  0
 17 39  1  1
 18 40  1  0
 18 41  1  0
 19 42  1  0
 19 43  1  0
 22 44  1  0
 27 45  1  0
 27 46  1  0
 28 47  1  0
 28 48  1  0
 30 49  1  0
M  END
>  <meeko>  (552) 
{"is_sidechain": [true], "free_energy": -10.71, "intermolecular_energy": 0.0, "internal_energy": -10.71, "cluster_size": 19, "cluster_id": 1, "rank_in_cluster": 1}

>  <_RMSD_MCS_to_ref>  (552) 
0.65889022859148

$$$$
ligand
     RDKit          3D

 53 57  0  0  0  0  0  0  0  0999 V2000
   18.9090   19.1540    7.5370 C   0  0  0  0  0  0  0  0  0  0  0  0
   18.7730   17.6460    7.6780 C   0  0  0  0  0  0  0  0  0  0  0  0
   20.0730   16.9450    7.4990 C   0  0  0  0  0  0  0  0  0  0  0  0
   21.0280   16.6350    8.4480 C   0  0  0  0  0  0  0  0  0  0  0  0
   22.0160   16.0200    7.7390 N   0  0  0  0  0  0  0  0  0  0  0  0
   23.4450   15.3890    8.3490 S   0  0  0  0  0  6  0  0  0  0  0  0
   24.4780   16.2100    7.7420 O   0  0  0  0  0  0  0  0  0  0  0  0
   23.4020   13.9530    8.1570 O   0  0  0  0  0  0  0  0  0  0  0  0
   23.4520   15.7110   10.1000 C   0  0  0  0  0  0  0  0  0  0  0  0
   24.4220   16.6270   10.5640 C   0  0  0  0  0  0  0  0  0  0  0  0
   24.4570   16.9250   11.9150 C   0  0  0  0  0  0  0  0  0  0  0  0
   23.5500   16.3280   12.7820 C   0  0  0  0  0  0  0  0  0  0  0  0
   22.5950   15.4230   12.3610 C   0  0  0  0  0  0  0  0  0  0  0  0
   22.5410   15.0960   10.9940 C   0  0  0  0  0  0  0  0  0  0  0  0
   21.5480   14.1260   10.5920 C   0  0  0  0  0  0  0  0  0  0  0  0
   20.1690   14.2530   10.3260 C   0  0  0  0  0  0  0  0  0  0  0  0
   19.6170   13.0920    9.9610 N   0  0  0  0  0  0  0  0  0  0  0  0
   20.6480   12.2310    9.9610 N   0  0  0  0  0  0  0  0  0  0  0  0
   21.8320   12.8060   10.3250 C   0  0  0  0  0  0  0  0  0  0  0  0
   23.8080   16.8350   14.1340 C   0  0  0  0  0  0  0  0  0  0  0  0
   23.1510   16.5590   15.1180 O   0  0  0  0  0  0  0  0  0  0  0  0
   24.9140   17.6670   14.0440 N   0  0  0  0  0  0  0  0  0  0  0  0
   25.2910   18.5590   15.1350 C   0  0  1  0  0  0  0  0  0  0  0  0
   26.3440   17.9480   16.0550 C   0  0  0  0  0  0  0  0  0  0  0  0
   26.6200   18.9010   17.2080 C   0  0  0  0  0  0  0  0  0  0  0  0
   27.0320   20.2640   16.7020 C   0  0  0  0  0  0  0  0  0  0  0  0
   27.8670   20.9540   17.2800 O   0  0  0  0  0  0  0  0  0  0  0  0
   26.4100   20.7100   15.5640 N   0  0  0  0  0  0  0  0  0  0  0  0
   25.8050   19.9150   14.6200 C   0  0  0  0  0  0  0  0  0  0  0  0
   25.7110   20.2940   13.4540 O   0  0  0  0  0  0  0  0  0  0  0  0
   25.3460   17.8610   12.6660 C   0  0  0  0  0  0  0  0  0  0  0  0
   21.6330   15.9110    6.4400 C   0  0  0  0  0  0  0  0  0  0  0  0
   20.4700   16.4990    6.2520 N   0  0  0  0  0  0  0  0  0  0  0  0
   18.9504   19.6134    8.5356 H   0  0  0  0  0  0  0  0  0  0  0  0
   19.8320   19.3891    6.9867 H   0  0  0  0  0  0  0  0  0  0  0  0
   18.0430   19.5504    6.9867 H   0  0  0  0  0  0  0  0  0  0  0  0
   18.3827   17.4178    8.6808 H   0  0  0  0  0  0  0  0  0  0  0  0
   18.0886   17.2939    6.8921 H   0  0  0  0  0  0  0  0  0  0  0  0
   20.9978   16.8381    9.5287 H   0  0  0  0  0  0  0  0  0  0  0  0
   25.1338   17.0932    9.8669 H   0  0  0  0  0  0  0  0  0  0  0  0
   21.8941   14.9693   13.0771 H   0  0  0  0  0  0  0  0  0  0  0  0
   19.6123   15.1981   10.4093 H   0  0  0  0  0  0  0  0  0  0  0  0
   20.5548   11.2361    9.7113 H   0  0  0  0  0  0  0  0  0  0  0  0
   22.8136   12.3140   10.3913 H   0  0  0  0  0  0  0  0  0  0  0  0
   24.3684   18.7165   15.7130 H   0  0  0  0  0  0  0  0  0  0  0  0
   25.9748   16.9903   16.4505 H   0  0  0  0  0  0  0  0  0  0  0  0
   27.2717   17.7763   15.4894 H   0  0  0  0  0  0  0  0  0  0  0  0
   25.7084   19.0038   17.8149 H   0  0  0  0  0  0  0  0  0  0  0  0
   27.4426   18.4896   17.8114 H   0  0  0  0  0  0  0  0  0  0  0  0
   26.3949   21.7272   15.4030 H   0  0  0  0  0  0  0  0  0  0  0  0
   25.1914   18.9012   12.3434 H   0  0  0  0  0  0  0  0  0  0  0  0
   26.4178   17.6681   12.5107 H   0  0  0  0  0  0  0  0  0  0  0  0
   22.2131   15.4029    5.6555 H   0  0  0  0  0  0  0  0  0  0  0  0
  1  2  1  0
  2  3  1  0
  3  4  2  0
  4  5  1  0
  5  6  1  0
  6  7  2  0
  6  8  2  0
  6  9  1  0
  9 10  2  0
 10 11  1  0
 11 12  2  0
 12 13  1  0
 13 14  2  0
 14 15  1  0
 15 16  1  0
 16 17  2  0
 17 18  1  0
 18 19  1  0
 12 20  1  0
 20 21  2  0
 20 22  1  0
 22 23  1  0
 23 24  1  0
 24 25  1  0
 25 26  1  0
 26 27  2  0
 26 28  1  0
 28 29  1  0
 29 30  2  0
 22 31  1  0
  5 32  1  0
 32 33  2  0
 33  3  1  0
 14  9  1  0
 19 15  2  0
 29 23  1  0
 31 11  1  0
  1 34  1  0
  1 35  1  0
  1 36  1  0
  2 37  1  0
  2 38  1  0
  4 39  1  0
 10 40  1  0
 13 41  1  0
 16 42  1  0
 18 43  1  0
 19 44  1  0
 23 45  1  1
 24 46  1  0
 24 47  1  0
 25 48  1  0
 25 49  1  0
 28 50  1  0
 31 51  1  0
 31 52  1  0
 32 53  1  0
M  END
>  <meeko>  (553) 
{"is_sidechain": [true], "free_energy": -10.71, "intermolecular_energy": 0.0, "internal_energy": -10.71, "cluster_size": 17, "cluster_id": 1, "rank_in_cluster": 1}

>  <_RMSD_MCS_to_ref>  (553) 
0.9723616725386816

$$$$
ligand
     RDKit          3D

 60 64  0  0  0  0  0  0  0  0999 V2000
   18.7970   18.8170    7.7190 C   0  0  0  0  0  0  0  0  0  0  0  0
   18.5280   17.3290    7.8810 C   0  0  0  0  0  0  0  0  0  0  0  0
   19.7620   16.5130    7.7190 C   0  0  0  0  0  0  0  0  0  0  0  0
   20.5360   15.9050    8.6870 C   0  0  0  0  0  0  0  0  0  0  0  0
   21.5440   15.3090    7.9830 N   0  0  0  0  0  0  0  0  0  0  0  0
   22.6750   14.2430    8.6170 S   0  0  0  0  0  6  0  0  0  0  0  0
   21.9530   12.9910    8.7550 O   0  0  0  0  0  0  0  0  0  0  0  0
   23.8700   14.3270    7.8000 O   0  0  0  0  0  0  0  0  0  0  0  0
   23.0640   14.8160   10.2520 C   0  0  0  0  0  0  0  0  0  0  0  0
   24.2740   15.5110   10.4450 C   0  0  0  0  0  0  0  0  0  0  0  0
   24.5450   16.0140   11.7070 C   0  0  0  0  0  0  0  0  0  0  0  0
   23.6350   15.8380   12.7460 C   0  0  0  0  0  0  0  0  0  0  0  0
   22.4350   15.1730   12.5870 C   0  0  0  0  0  0  0  0  0  0  0  0
   22.1450   14.6700   11.3120 C   0  0  0  0  0  0  0  0  0  0  0  0
   20.8960   13.9160   11.1420 C   0  0  0  0  0  0  0  0  0  0  0  0
   19.8810   14.5750   10.9430 O   0  0  0  0  0  0  0  0  0  0  0  0
   20.9400   12.5450   11.2150 N   0  0  0  0  0  0  0  0  0  0  0  0
   22.0600   11.7200   11.6530 C   0  0  0  0  0  0  0  0  0  0  0  0
   21.4250   10.3890   12.0350 C   0  0  0  0  0  0  0  0  0  0  0  0
   20.2060   10.3170   11.1230 C   0  0  0  0  0  0  0  0  0  0  0  0
   19.7260   11.7590   11.0940 C   0  0  0  0  0  0  0  0  0  0  0  0
   24.1800   16.4800   13.9460 C   0  0  0  0  0  0  0  0  0  0  0  0
   23.5840   16.5790   15.0000 O   0  0  0  0  0  0  0  0  0  0  0  0
   25.4410   16.9490   13.6110 N   0  0  0  0  0  0  0  0  0  0  0  0
   26.2180   17.8650   14.4420 C   0  0  2  0  0  0  0  0  0  0  0  0
   25.9810   17.6910   15.9410 C   0  0  0  0  0  0  0  0  0  0  0  0
   26.8810   18.6480   16.7070 C   0  0  0  0  0  0  0  0  0  0  0  0
   26.6540   20.0790   16.2770 C   0  0  0  0  0  0  0  0  0  0  0  0
   26.9170   21.0310   17.0060 O   0  0  0  0  0  0  0  0  0  0  0  0
   26.2100   20.2740   14.9930 N   0  0  0  0  0  0  0  0  0  0  0  0
   25.9770   19.3240   14.0250 C   0  0  0  0  0  0  0  0  0  0  0  0
   25.6910   19.6620   12.8770 O   0  0  0  0  0  0  0  0  0  0  0  0
   25.7190   16.8030   12.1890 C   0  0  0  0  0  0  0  0  0  0  0  0
   21.3360   15.5060    6.6560 C   0  0  0  0  0  0  0  0  0  0  0  0
   20.2630   16.2480    6.4600 N   0  0  0  0  0  0  0  0  0  0  0  0
   18.8815   19.2845    8.7111 H   0  0  0  0  0  0  0  0  0  0  0  0
   19.7359   18.9616    7.1643 H   0  0  0  0  0  0  0  0  0  0  0  0
   17.9682   19.2812    7.1643 H   0  0  0  0  0  0  0  0  0  0  0  0
   18.1150   17.1510    8.8849 H   0  0  0  0  0  0  0  0  0  0  0  0
   17.8185   17.0271    7.0965 H   0  0  0  0  0  0  0  0  0  0  0  0
   20.3776   15.9012    9.7755 H   0  0  0  0  0  0  0  0  0  0  0  0
   24.9841   15.6504    9.6165 H   0  0  0  0  0  0  0  0  0  0  0  0
   21.7361   15.0437   13.4265 H   0  0  0  0  0  0  0  0  0  0  0  0
   22.7860   11.5849   10.8377 H   0  0  0  0  0  0  0  0  0  0  0  0
   22.6139   12.1746   12.4876 H   0  0  0  0  0  0  0  0  0  0  0  0
   22.1131    9.5528   11.8421 H   0  0  0  0  0  0  0  0  0  0  0  0
   21.1721   10.3199   13.1033 H   0  0  0  0  0  0  0  0  0  0  0  0
   20.4834    9.9708   10.1164 H   0  0  0  0  0  0  0  0  0  0  0  0
   19.4403    9.6086   11.4722 H   0  0  0  0  0  0  0  0  0  0  0  0
   19.2122   11.9794   10.1467 H   0  0  0  0  0  0  0  0  0  0  0  0
   19.0034   11.9770   11.8942 H   0  0  0  0  0  0  0  0  0  0  0  0
   27.2721   17.6045   14.2660 H   0  0  0  0  0  0  0  0  0  0  0  0
   24.9286   17.9101   16.1744 H   0  0  0  0  0  0  0  0  0  0  0  0
   26.2114   16.6557   16.2326 H   0  0  0  0  0  0  0  0  0  0  0  0
   26.6663   18.5587   17.7821 H   0  0  0  0  0  0  0  0  0  0  0  0
   27.9278   18.3841   16.4957 H   0  0  0  0  0  0  0  0  0  0  0  0
   26.0291   21.2507   14.7207 H   0  0  0  0  0  0  0  0  0  0  0  0
   25.7702   17.7828   11.6917 H   0  0  0  0  0  0  0  0  0  0  0  0
   26.6856   16.3217   11.9792 H   0  0  0  0  0  0  0  0  0  0  0  0
   21.9736   15.1029    5.8554 H   0  0  0  0  0  0  0  0  0  0  0  0
  1  2  1  0
  2  3  1  0
  3  4  2  0
  4  5  1  0
  5  6  1  0
  6  7  2  0
  6  8  2  0
  6  9  1  0
  9 10  2  0
 10 11  1  0
 11 12  2  0
 12 13  1  0
 13 14  2  0
 14 15  1  0
 15 16  2  0
 15 17  1  0
 17 18  1  0
 18 19  1  0
 19 20  1  0
 20 21  1  0
 12 22  1  0
 22 23  2  0
 22 24  1  0
 24 25  1  0
 25 26  1  0
 26 27  1  0
 27 28  1  0
 28 29  2  0
 28 30  1  0
 30 31  1  0
 31 32  2  0
 24 33  1  0
  5 34  1  0
 34 35  2  0
 35  3  1  0
 14  9  1  0
 21 17  1  0
 31 25  1  0
 33 11  1  0
  1 36  1  0
  1 37  1  0
  1 38  1  0
  2 39  1  0
  2 40  1  0
  4 41  1  0
 10 42  1  0
 13 43  1  0
 18 44  1  0
 18 45  1  0
 19 46  1  0
 19 47  1  0
 20 48  1  0
 20 49  1  0
 21 50  1  0
 21 51  1  0
 25 52  1  1
 26 53  1  0
 26 54  1  0
 27 55  1  0
 27 56  1  0
 30 57  1  0
 33 58  1  0
 33 59  1  0
 34 60  1  0
M  END
>  <meeko>  (554) 
{"is_sidechain": [true], "free_energy": -10.7, "intermolecular_energy": 0.0, "internal_energy": -10.7, "cluster_size": 15, "cluster_id": 1, "rank_in_cluster": 1}

>  <_RMSD_MCS_to_ref>  (554) 
0.9339565478828941

$$$$
ligand
     RDKit          3D

 50 53  0  0  0  0  0  0  0  0999 V2000
   18.7970   18.8170    7.7190 C   0  0  0  0  0  0  0  0  0  0  0  0
   18.5280   17.3290    7.8810 C   0  0  0  0  0  0  0  0  0  0  0  0
   19.7840   16.5470    8.0320 C   0  0  0  0  0  0  0  0  0  0  0  0
   20.0230   15.4280    8.8050 C   0  0  0  0  0  0  0  0  0  0  0  0
   21.3310   15.1240    8.5570 N   0  0  0  0  0  0  0  0  0  0  0  0
   22.1850   13.8440    9.2300 S   0  0  0  0  0  6  0  0  0  0  0  0
   21.2140   12.8590    9.6670 O   0  0  0  0  0  0  0  0  0  0  0  0
   23.1840   13.5220    8.2230 O   0  0  0  0  0  0  0  0  0  0  0  0
   23.0490   14.4450   10.6500 C   0  0  0  0  0  0  0  0  0  0  0  0
   24.3610   14.9050   10.4600 C   0  0  0  0  0  0  0  0  0  0  0  0
   25.0800   15.3940   11.5400 C   0  0  0  0  0  0  0  0  0  0  0  0
   24.4870   15.4170   12.8080 C   0  0  0  0  0  0  0  0  0  0  0  0
   25.2910   15.9780   13.9260 C   0  0  0  0  0  0  0  0  0  0  0  0
   25.7570   15.2560   14.7960 O   0  0  0  0  0  0  0  0  0  0  0  0
   25.4640   17.3440   13.8980 N   0  0  0  0  0  0  0  0  0  0  0  0
   26.3520   18.0120   14.8410 C   0  0  2  0  0  0  0  0  0  0  0  0
   25.8790   17.8640   16.2830 C   0  0  0  0  0  0  0  0  0  0  0  0
   26.8260   18.6170   17.2050 C   0  0  0  0  0  0  0  0  0  0  0  0
   26.9510   20.0670   16.7980 C   0  0  0  0  0  0  0  0  0  0  0  0
   27.1090   20.9690   17.6150 O   0  0  0  0  0  0  0  0  0  0  0  0
   26.9090   20.3340   15.4530 N   0  0  0  0  0  0  0  0  0  0  0  0
   26.4070   19.5010   14.4850 C   0  0  0  0  0  0  0  0  0  0  0  0
   26.0370   19.9380   13.3950 O   0  0  0  0  0  0  0  0  0  0  0  0
   23.1590   14.9470   13.0040 C   0  0  0  0  0  0  0  0  0  0  0  0
   22.5030   14.9290   14.2580 C   0  0  0  0  0  0  0  0  0  0  0  0
   21.2070   14.4480   14.3820 C   0  0  0  0  0  0  0  0  0  0  0  0
   20.5900   13.9810   13.2480 C   0  0  0  0  0  0  0  0  0  0  0  0
   21.1810   13.9690   12.0340 N   0  0  0  0  0  0  0  0  0  0  0  0
   22.4330   14.4440   11.8980 C   0  0  0  0  0  0  0  0  0  0  0  0
   21.8450   16.0330    7.6890 C   0  0  0  0  0  0  0  0  0  0  0  0
   20.9260   16.9150    7.3450 N   0  0  0  0  0  0  0  0  0  0  0  0
   18.8815   19.2845    8.7111 H   0  0  0  0  0  0  0  0  0  0  0  0
   19.7359   18.9616    7.1643 H   0  0  0  0  0  0  0  0  0  0  0  0
   17.9682   19.2812    7.1643 H   0  0  0  0  0  0  0  0  0  0  0  0
   17.9054   17.1763    8.7749 H   0  0  0  0  0  0  0  0  0  0  0  0
   18.0162   16.9763    6.9734 H   0  0  0  0  0  0  0  0  0  0  0  0
   19.3207   14.9020    9.4685 H   0  0  0  0  0  0  0  0  0  0  0  0
   24.8168   14.8778    9.4592 H   0  0  0  0  0  0  0  0  0  0  0  0
   26.1078   15.7608   11.4017 H   0  0  0  0  0  0  0  0  0  0  0  0
   24.9566   17.9037   13.1979 H   0  0  0  0  0  0  0  0  0  0  0  0
   27.3447   17.5440   14.7665 H   0  0  0  0  0  0  0  0  0  0  0  0
   24.8647   18.2783   16.3809 H   0  0  0  0  0  0  0  0  0  0  0  0
   25.8673   16.7991   16.5584 H   0  0  0  0  0  0  0  0  0  0  0  0
   26.4407   18.5656   18.2340 H   0  0  0  0  0  0  0  0  0  0  0  0
   27.8200   18.1506   17.1380 H   0  0  0  0  0  0  0  0  0  0  0  0
   27.2878   21.2400   15.1423 H   0  0  0  0  0  0  0  0  0  0  0  0
   23.0290   15.3024   15.1490 H   0  0  0  0  0  0  0  0  0  0  0  0
   20.6926   14.4412   15.3543 H   0  0  0  0  0  0  0  0  0  0  0  0
   19.5626   13.5973   13.3326 H   0  0  0  0  0  0  0  0  0  0  0  0
   22.8826   16.0339    7.3237 H   0  0  0  0  0  0  0  0  0  0  0  0
  1  2  1  0
  2  3  1  0
  3  4  2  0
  4  5  1  0
  5  6  1  0
  6  7  2  0
  6  8  2  0
  6  9  1  0
  9 10  2  0
 10 11  1  0
 11 12  2  0
 12 13  1  0
 13 14  2  0
 13 15  1  0
 15 16  1  0
 16 17  1  0
 17 18  1  0
 18 19  1  0
 19 20  2  0
 19 21  1  0
 21 22  1  0
 22 23  2  0
 12 24  1  0
 24 25  2  0
 25 26  1  0
 26 27  2  0
 27 28  1  0
 28 29  2  0
  5 30  1  0
 30 31  2  0
 31  3  1  0
 29  9  1  0
 22 16  1  0
 29 24  1  0
  1 32  1  0
  1 33  1  0
  1 34  1  0
  2 35  1  0
  2 36  1  0
  4 37  1  0
 10 38  1  0
 11 39  1  0
 15 40  1  0
 16 41  1  1
 17 42  1  0
 17 43  1  0
 18 44  1  0
 18 45  1  0
 21 46  1  0
 25 47  1  0
 26 48  1  0
 27 49  1  0
 30 50  1  0
M  END
>  <meeko>  (555) 
{"is_sidechain": [true], "free_energy": -10.7, "intermolecular_energy": 0.0, "internal_energy": -10.7, "cluster_size": 17, "cluster_id": 1, "rank_in_cluster": 1}

>  <_RMSD_MCS_to_ref>  (555) 
0.8277652646332365

$$$$
ligand
     RDKit          3D

 51 54  0  0  0  0  0  0  0  0999 V2000
   18.7970   18.8170    7.7190 C   0  0  0  0  0  0  0  0  0  0  0  0
   18.5280   17.3290    7.8810 C   0  0  0  0  0  0  0  0  0  0  0  0
   19.7840   16.5460    8.0450 C   0  0  0  0  0  0  0  0  0  0  0  0
   20.2590   15.8890    9.1630 C   0  0  0  0  0  0  0  0  0  0  0  0
   21.4290   15.3230    8.7460 N   0  0  0  0  0  0  0  0  0  0  0  0
   22.5600   14.5450    9.7170 S   0  0  0  0  0  6  0  0  0  0  0  0
   23.1950   13.5470    8.8810 O   0  0  0  0  0  0  0  0  0  0  0  0
   23.3040   15.6200   10.3540 O   0  0  0  0  0  0  0  0  0  0  0  0
   21.5860   13.7120   10.9420 C   0  0  0  0  0  0  0  0  0  0  0  0
   20.4710   12.9790   10.5030 C   0  0  0  0  0  0  0  0  0  0  0  0
   19.6570   12.3220   11.4250 C   0  0  0  0  0  0  0  0  0  0  0  0
   19.9550   12.3900   12.7830 C   0  0  0  0  0  0  0  0  0  0  0  0
   21.0780   13.1060   13.2150 C   0  0  0  0  0  0  0  0  0  0  0  0
   21.3930   13.1660   14.6680 C   0  0  0  0  0  0  0  0  0  0  0  0
   20.6930   12.5970   15.4980 O   0  0  0  0  0  0  0  0  0  0  0  0
   22.5740   13.9460   15.0920 C   0  0  0  0  0  0  0  0  0  0  0  0
   23.3320   14.5130   14.1450 C   0  0  0  0  0  0  0  0  0  0  0  0
   24.5300   15.2970   14.6110 C   0  0  0  0  0  0  0  0  0  0  0  0
   25.5700   14.7670   14.9810 O   0  0  0  0  0  0  0  0  0  0  0  0
   24.3460   16.6580   14.5600 N   0  0  0  0  0  0  0  0  0  0  0  0
   25.4480   17.5750   14.8190 C   0  0  2  0  0  0  0  0  0  0  0  0
   25.7920   17.6490   16.3030 C   0  0  0  0  0  0  0  0  0  0  0  0
   26.9150   18.6510   16.5140 C   0  0  0  0  0  0  0  0  0  0  0  0
   26.5540   20.0070   15.9540 C   0  0  0  0  0  0  0  0  0  0  0  0
   26.9450   21.0540   16.4610 O   0  0  0  0  0  0  0  0  0  0  0  0
   25.7870   20.0170   14.8170 N   0  0  0  0  0  0  0  0  0  0  0  0
   25.0510   18.9690   14.3250 C   0  0  0  0  0  0  0  0  0  0  0  0
   24.1410   19.1520   13.5160 O   0  0  0  0  0  0  0  0  0  0  0  0
   23.0700   14.4160   12.7930 N   0  0  0  0  0  0  0  0  0  0  0  0
   21.9140   13.7850   12.3050 C   0  0  0  0  0  0  0  0  0  0  0  0
   21.6530   15.6640    7.4510 C   0  0  0  0  0  0  0  0  0  0  0  0
   20.6660   16.4050    6.9930 N   0  0  0  0  0  0  0  0  0  0  0  0
   18.8815   19.2845    8.7111 H   0  0  0  0  0  0  0  0  0  0  0  0
   19.7359   18.9616    7.1643 H   0  0  0  0  0  0  0  0  0  0  0  0
   17.9682   19.2812    7.1643 H   0  0  0  0  0  0  0  0  0  0  0  0
   17.8973   17.1775    8.7694 H   0  0  0  0  0  0  0  0  0  0  0  0
   18.0254   16.9749    6.9688 H   0  0  0  0  0  0  0  0  0  0  0  0
   19.7997   15.8343   10.1610 H   0  0  0  0  0  0  0  0  0  0  0  0
   20.2394   12.9232    9.4291 H   0  0  0  0  0  0  0  0  0  0  0  0
   18.7819   11.7516   11.0802 H   0  0  0  0  0  0  0  0  0  0  0  0
   19.3097   11.8824   13.5151 H   0  0  0  0  0  0  0  0  0  0  0  0
   22.8239   14.0579   16.1574 H   0  0  0  0  0  0  0  0  0  0  0  0
   23.4144   17.0356   14.3352 H   0  0  0  0  0  0  0  0  0  0  0  0
   26.3368   17.2044   14.2873 H   0  0  0  0  0  0  0  0  0  0  0  0
   24.9047   17.9682   16.8695 H   0  0  0  0  0  0  0  0  0  0  0  0
   26.1146   16.6577   16.6542 H   0  0  0  0  0  0  0  0  0  0  0  0
   27.1098   18.7490   17.5922 H   0  0  0  0  0  0  0  0  0  0  0  0
   27.8094   18.2855   15.9883 H   0  0  0  0  0  0  0  0  0  0  0  0
   25.7611   20.8961   14.2809 H   0  0  0  0  0  0  0  0  0  0  0  0
   23.7414   14.8178   12.1231 H   0  0  0  0  0  0  0  0  0  0  0  0
   22.5352   15.3634    6.8667 H   0  0  0  0  0  0  0  0  0  0  0  0
  1  2  1  0
  2  3  1  0
  3  4  2  0
  4  5  1  0
  5  6  1  0
  6  7  2  0
  6  8  2  0
  6  9  1  0
  9 10  2  0
 10 11  1  0
 11 12  2  0
 12 13  1  0
 13 14  1  0
 14 15  2  0
 14 16  1  0
 16 17  2  0
 17 18  1  0
 18 19  2  0
 18 20  1  0
 20 21  1  0
 21 22  1  0
 22 23  1  0
 23 24  1  0
 24 25  2  0
 24 26  1  0
 26 27  1  0
 27 28  2  0
 17 29  1  0
 29 30  1  0
  5 31  1  0
 31 32  2  0
 32  3  1  0
 30  9  1  0
 30 13  2  0
 27 21  1  0
  1 33  1  0
  1 34  1  0
  1 35  1  0
  2 36  1  0
  2 37  1  0
  4 38  1  0
 10 39  1  0
 11 40  1  0
 12 41  1  0
 16 42  1  0
 20 43  1  0
 21 44  1  6
 22 45  1  0
 22 46  1  0
 23 47  1  0
 23 48  1  0
 26 49  1  0
 29 50  1  0
 31 51  1  0
M  END
>  <meeko>  (556) 
{"is_sidechain": [true], "free_energy": -10.7, "intermolecular_energy": 0.0, "internal_energy": -10.7, "cluster_size": 19, "cluster_id": 1, "rank_in_cluster": 1}

>  <_RMSD_MCS_to_ref>  (556) 
0.8863605361251146

$$$$
ligand
     RDKit          3D

 51 54  0  0  0  0  0  0  0  0999 V2000
   18.7970   18.8170    7.7190 C   0  0  0  0  0  0  0  0  0  0  0  0
   18.5280   17.3290    7.8810 C   0  0  0  0  0  0  0  0  0  0  0  0
   19.7700   16.5170    7.7690 C   0  0  0  0  0  0  0  0  0  0  0  0
   20.2170   15.4970    8.5850 C   0  0  0  0  0  0  0  0  0  0  0  0
   21.4100   15.1260    8.0340 N   0  0  0  0  0  0  0  0  0  0  0  0
   22.3230   13.7850    8.4710 S   0  0  0  0  0  6  0  0  0  0  0  0
   23.7120   14.1920    8.3450 O   0  0  0  0  0  0  0  0  0  0  0  0
   21.7780   12.6690    7.7240 O   0  0  0  0  0  0  0  0  0  0  0  0
   21.9410   13.5660   10.1880 C   0  0  0  0  0  0  0  0  0  0  0  0
   20.7990   12.8170   10.5160 C   0  0  0  0  0  0  0  0  0  0  0  0
   20.4320   12.6490   11.8490 C   0  0  0  0  0  0  0  0  0  0  0  0
   21.2020   13.2280   12.8560 C   0  0  0  0  0  0  0  0  0  0  0  0
   22.3510   13.9600   12.5260 C   0  0  0  0  0  0  0  0  0  0  0  0
   23.1630   14.5700   13.6150 C   0  0  0  0  0  0  0  0  0  0  0  0
   22.8180   14.4500   14.7880 O   0  0  0  0  0  0  0  0  0  0  0  0
   24.3990   15.3070   13.2390 C   0  0  0  0  0  0  0  0  0  0  0  0
   25.3500   15.9210   14.2080 C   0  0  0  0  0  0  0  0  0  0  0  0
   26.0020   15.2420   14.9970 O   0  0  0  0  0  0  0  0  0  0  0  0
   25.4530   17.2850   14.1560 N   0  0  0  0  0  0  0  0  0  0  0  0
   26.3780   18.0280   14.9930 C   0  0  2  0  0  0  0  0  0  0  0  0
   26.0200   17.9010   16.4710 C   0  0  0  0  0  0  0  0  0  0  0  0
   27.0100   18.6960   17.3060 C   0  0  0  0  0  0  0  0  0  0  0  0
   27.0630   20.1400   16.8660 C   0  0  0  0  0  0  0  0  0  0  0  0
   27.2840   21.0590   17.6500 O   0  0  0  0  0  0  0  0  0  0  0  0
   26.8860   20.3810   15.5280 N   0  0  0  0  0  0  0  0  0  0  0  0
   26.3710   19.5090   14.5980 C   0  0  0  0  0  0  0  0  0  0  0  0
   25.9640   19.9190   13.5130 O   0  0  0  0  0  0  0  0  0  0  0  0
   24.6710   15.3990   11.9280 C   0  0  0  0  0  0  0  0  0  0  0  0
   23.8910   14.9040   10.9120 N   0  0  0  0  0  0  0  0  0  0  0  0
   22.7580   14.1170   11.1860 C   0  0  0  0  0  0  0  0  0  0  0  0
   21.6320   15.8630    6.9150 C   0  0  0  0  0  0  0  0  0  0  0  0
   20.6570   16.7280    6.7310 N   0  0  0  0  0  0  0  0  0  0  0  0
   18.8815   19.2845    8.7111 H   0  0  0  0  0  0  0  0  0  0  0  0
   19.7359   18.9616    7.1643 H   0  0  0  0  0  0  0  0  0  0  0  0
   17.9682   19.2812    7.1643 H   0  0  0  0  0  0  0  0  0  0  0  0
   18.0798   17.1559    8.8705 H   0  0  0  0  0  0  0  0  0  0  0  0
   17.8484   17.0192    7.0734 H   0  0  0  0  0  0  0  0  0  0  0  0
   19.7247   15.0788    9.4754 H   0  0  0  0  0  0  0  0  0  0  0  0
   20.1932   12.3621    9.7184 H   0  0  0  0  0  0  0  0  0  0  0  0
   19.5381   12.0617   12.1059 H   0  0  0  0  0  0  0  0  0  0  0  0
   20.9082   13.1106   13.9095 H   0  0  0  0  0  0  0  0  0  0  0  0
   24.8523   17.8032   13.4991 H   0  0  0  0  0  0  0  0  0  0  0  0
   27.3809   17.6031   14.8392 H   0  0  0  0  0  0  0  0  0  0  0  0
   25.0050   18.2914   16.6366 H   0  0  0  0  0  0  0  0  0  0  0  0
   26.0604   16.8423   16.7667 H   0  0  0  0  0  0  0  0  0  0  0  0
   26.7036   18.6540   18.3616 H   0  0  0  0  0  0  0  0  0  0  0  0
   28.0091   18.2554   17.1733 H   0  0  0  0  0  0  0  0  0  0  0  0
   27.1676   21.3103   15.1844 H   0  0  0  0  0  0  0  0  0  0  0  0
   25.5992   15.9157   11.6426 H   0  0  0  0  0  0  0  0  0  0  0  0
   24.1395   15.1122    9.9343 H   0  0  0  0  0  0  0  0  0  0  0  0
   22.5048   15.7525    6.2546 H   0  0  0  0  0  0  0  0  0  0  0  0
  1  2  1  0
  2  3  1  0
  3  4  2  0
  4  5  1  0
  5  6  1  0
  6  7  2  0
  6  8  2  0
  6  9  1  0
  9 10  2  0
 10 11  1  0
 11 12  2  0
 12 13  1  0
 13 14  1  0
 14 15  2  0
 14 16  1  0
 16 17  1  0
 17 18  2  0
 17 19  1  0
 19 20  1  0
 20 21  1  0
 21 22  1  0
 22 23  1  0
 23 24  2  0
 23 25  1  0
 25 26  1  0
 26 27  2  0
 16 28  2  0
 28 29  1  0
 29 30  1  0
  5 31  1  0
 31 32  2  0
 32  3  1  0
 30  9  1  0
 30 13  2  0
 26 20  1  0
  1 33  1  0
  1 34  1  0
  1 35  1  0
  2 36  1  0
  2 37  1  0
  4 38  1  0
 10 39  1  0
 11 40  1  0
 12 41  1  0
 19 42  1  0
 20 43  1  1
 21 44  1  0
 21 45  1  0
 22 46  1  0
 22 47  1  0
 25 48  1  0
 28 49  1  0
 29 50  1  0
 31 51  1  0
M  END
>  <meeko>  (557) 
{"is_sidechain": [true], "free_energy": -10.7, "intermolecular_energy": 0.0, "internal_energy": -10.7, "cluster_size": 9, "cluster_id": 1, "rank_in_cluster": 1}

>  <_RMSD_MCS_to_ref>  (557) 
0.8444538669064949

$$$$
ligand
     RDKit          3D

 55 59  0  0  0  0  0  0  0  0999 V2000
   18.7970   18.8170    7.7190 C   0  0  0  0  0  0  0  0  0  0  0  0
   18.5280   17.3290    7.8810 C   0  0  0  0  0  0  0  0  0  0  0  0
   19.7500   16.5090    7.6570 C   0  0  0  0  0  0  0  0  0  0  0  0
   20.9220   16.4790    8.3880 C   0  0  0  0  0  0  0  0  0  0  0  0
   21.6880   15.5480    7.7470 N   0  0  0  0  0  0  0  0  0  0  0  0
   23.2460   15.0970    8.1740 S   0  0  0  0  0  6  0  0  0  0  0  0
   23.5610   15.9590    9.2990 O   0  0  0  0  0  0  0  0  0  0  0  0
   24.0420   15.1150    6.9620 O   0  0  0  0  0  0  0  0  0  0  0  0
   23.1490   13.4410    8.7630 C   0  0  0  0  0  0  0  0  0  0  0  0
   22.9520   12.4170    7.8250 C   0  0  0  0  0  0  0  0  0  0  0  0
   22.9160   11.0950    8.2480 C   0  0  0  0  0  0  0  0  0  0  0  0
   23.0850   10.8410    9.5950 C   0  0  0  0  0  0  0  0  0  0  0  0
   23.2720   11.8100   10.5170 N   0  0  0  0  0  0  0  0  0  0  0  0
   23.2860   13.1080   10.1070 C   0  0  0  0  0  0  0  0  0  0  0  0
   23.4530   14.0500   11.2210 C   0  0  0  0  0  0  0  0  0  0  0  0
   22.3100   14.5730   11.8810 C   0  0  0  0  0  0  0  0  0  0  0  0
   22.4260   15.4700   12.9460 C   0  0  0  0  0  0  0  0  0  0  0  0
   23.7000   15.8380   13.3270 C   0  0  0  0  0  0  0  0  0  0  0  0
   24.8410   15.3630   12.6870 C   0  0  0  0  0  0  0  0  0  0  0  0
   24.7330   14.4800   11.6260 C   0  0  0  0  0  0  0  0  0  0  0  0
   26.0580   15.9670   13.3040 C   0  0  0  0  0  0  0  0  0  0  0  0
   25.5080   16.7260   14.4190 N   0  0  0  0  0  0  0  0  0  0  0  0
   26.3330   17.6530   15.1850 C   0  0  2  0  0  0  0  0  0  0  0  0
   25.9500   17.7410   16.6620 C   0  0  0  0  0  0  0  0  0  0  0  0
   26.9070   18.6840   17.3750 C   0  0  0  0  0  0  0  0  0  0  0  0
   26.9160   20.0490   16.7280 C   0  0  0  0  0  0  0  0  0  0  0  0
   27.2650   21.0580   17.3350 O   0  0  0  0  0  0  0  0  0  0  0  0
   26.5960   20.1020   15.3950 N   0  0  0  0  0  0  0  0  0  0  0  0
   26.3440   19.0500   14.5440 C   0  0  0  0  0  0  0  0  0  0  0  0
   26.2460   19.2420   13.3330 O   0  0  0  0  0  0  0  0  0  0  0  0
   24.1200   16.7550   14.3920 C   0  0  0  0  0  0  0  0  0  0  0  0
   23.3650   17.4120   15.0800 O   0  0  0  0  0  0  0  0  0  0  0  0
   21.0180   15.0850    6.6610 C   0  0  0  0  0  0  0  0  0  0  0  0
   19.8240   15.6360    6.5900 N   0  0  0  0  0  0  0  0  0  0  0  0
   18.8815   19.2845    8.7111 H   0  0  0  0  0  0  0  0  0  0  0  0
   19.7359   18.9616    7.1643 H   0  0  0  0  0  0  0  0  0  0  0  0
   17.9682   19.2812    7.1643 H   0  0  0  0  0  0  0  0  0  0  0  0
   18.1597   17.1446    8.9010 H   0  0  0  0  0  0  0  0  0  0  0  0
   17.7823   17.0366    7.1271 H   0  0  0  0  0  0  0  0  0  0  0  0
   21.1787   17.0689    9.2803 H   0  0  0  0  0  0  0  0  0  0  0  0
   22.8266   12.6600    6.7595 H   0  0  0  0  0  0  0  0  0  0  0  0
   22.7577   10.2750    7.5321 H   0  0  0  0  0  0  0  0  0  0  0  0
   23.0663    9.7949    9.9346 H   0  0  0  0  0  0  0  0  0  0  0  0
   21.3088   14.2646   11.5458 H   0  0  0  0  0  0  0  0  0  0  0  0
   21.5379   15.8666   13.4597 H   0  0  0  0  0  0  0  0  0  0  0  0
   25.6330   14.1192   11.1066 H   0  0  0  0  0  0  0  0  0  0  0  0
   26.7514   15.1894   13.6570 H   0  0  0  0  0  0  0  0  0  0  0  0
   26.6434   16.5813   12.6041 H   0  0  0  0  0  0  0  0  0  0  0  0
   27.3508   17.2369   15.1547 H   0  0  0  0  0  0  0  0  0  0  0  0
   24.9224   18.1227   16.7529 H   0  0  0  0  0  0  0  0  0  0  0  0
   26.0098   16.7418   17.1180 H   0  0  0  0  0  0  0  0  0  0  0  0
   26.5934   18.7869   18.4243 H   0  0  0  0  0  0  0  0  0  0  0  0
   27.9212   18.2629   17.3115 H   0  0  0  0  0  0  0  0  0  0  0  0
   26.5372   21.0432   14.9808 H   0  0  0  0  0  0  0  0  0  0  0  0
   21.4159   14.3534    5.9423 H   0  0  0  0  0  0  0  0  0  0  0  0
  1  2  1  0
  2  3  1  0
  3  4  2  0
  4  5  1  0
  5  6  1  0
  6  7  2  0
  6  8  2  0
  6  9  1  0
  9 10  2  0
 10 11  1  0
 11 12  2  0
 12 13  1  0
 13 14  2  0
 14 15  1  0
 15 16  2  0
 16 17  1  0
 17 18  2  0
 18 19  1  0
 19 20  2  0
 19 21  1  0
 21 22  1  0
 22 23  1  0
 23 24  1  0
 24 25  1  0
 25 26  1  0
 26 27  2  0
 26 28  1  0
 28 29  1  0
 29 30  2  0
 22 31  1  0
 31 32  2  0
  5 33  1  0
 33 34  2  0
 34  3  1  0
 14  9  1  0
 20 15  1  0
 29 23  1  0
 31 18  1  0
  1 35  1  0
  1 36  1  0
  1 37  1  0
  2 38  1  0
  2 39  1  0
  4 40  1  0
 10 41  1  0
 11 42  1  0
 12 43  1  0
 16 44  1  0
 17 45  1  0
 20 46  1  0
 21 47  1  0
 21 48  1  0
 23 49  1  1
 24 50  1  0
 24 51  1  0
 25 52  1  0
 25 53  1  0
 28 54  1  0
 33 55  1  0
M  END
>  <meeko>  (558) 
{"is_sidechain": [true], "free_energy": -10.7, "intermolecular_energy": 0.0, "internal_energy": -10.7, "cluster_size": 18, "cluster_id": 1, "rank_in_cluster": 1}

>  <_RMSD_MCS_to_ref>  (558) 
1.2179073582721032

$$$$
ligand
     RDKit          3D

 51 54  0  0  0  0  0  0  0  0999 V2000
   18.9090   19.1540    7.5370 C   0  0  0  0  0  0  0  0  0  0  0  0
   18.7730   17.6460    7.6780 C   0  0  0  0  0  0  0  0  0  0  0  0
   19.9760   16.9250    7.1830 C   0  0  0  0  0  0  0  0  0  0  0  0
   20.9940   16.3330    7.9060 C   0  0  0  0  0  0  0  0  0  0  0  0
   21.8490   15.8560    6.9520 N   0  0  0  0  0  0  0  0  0  0  0  0
   23.1570   14.8280    7.2270 S   0  0  0  0  0  6  0  0  0  0  0  0
   22.5590   13.6050    7.7290 O   0  0  0  0  0  0  0  0  0  0  0  0
   23.9080   14.8550    5.9850 O   0  0  0  0  0  0  0  0  0  0  0  0
   24.0320   15.5320    8.4070 O   0  0  0  0  0  0  0  0  0  0  0  0
   23.6150   15.5720    9.7130 C   0  0  0  0  0  0  0  0  0  0  0  0
   22.5720   14.8270   10.2540 C   0  0  0  0  0  0  0  0  0  0  0  0
   22.2470   14.9610   11.6060 C   0  0  0  0  0  0  0  0  0  0  0  0
   22.9630   15.8340   12.4380 C   0  0  0  0  0  0  0  0  0  0  0  0
   24.0040   16.6030   11.8910 C   0  0  0  0  0  0  0  0  0  0  0  0
   24.3260   16.4540   10.5320 C   0  0  0  0  0  0  0  0  0  0  0  0
   24.8220   17.5500   12.7370 C   0  0  0  0  0  0  0  0  0  0  0  0
   24.1660   17.8820   14.0920 C   0  0  2  0  0  0  0  0  0  0  0  0
   25.0600   18.6730   14.9630 N   0  0  0  0  0  0  0  0  0  0  0  0
   26.0030   18.0000   15.8500 C   0  0  0  0  0  0  0  0  0  0  0  0
   26.3490   18.8880   17.0240 C   0  0  0  0  0  0  0  0  0  0  0  0
   26.8280   20.2140   16.5130 C   0  0  0  0  0  0  0  0  0  0  0  0
   27.5630   20.9460   17.1700 O   0  0  0  0  0  0  0  0  0  0  0  0
   26.3340   20.6010   15.2970 N   0  0  0  0  0  0  0  0  0  0  0  0
   25.3680   19.9670   14.5620 C   0  0  0  0  0  0  0  0  0  0  0  0
   24.8290   20.5450   13.6230 O   0  0  0  0  0  0  0  0  0  0  0  0
   23.6450   16.5990   14.7510 C   0  0  0  0  0  0  0  0  0  0  0  0
   22.5550   15.9720   13.8830 C   0  0  0  0  0  0  0  0  0  0  0  0
   21.3120   16.0770    5.7250 C   0  0  0  0  0  0  0  0  0  0  0  0
   20.1850   16.7500    5.8290 N   0  0  0  0  0  0  0  0  0  0  0  0
   18.9504   19.6134    8.5356 H   0  0  0  0  0  0  0  0  0  0  0  0
   19.8320   19.3891    6.9867 H   0  0  0  0  0  0  0  0  0  0  0  0
   18.0430   19.5504    6.9867 H   0  0  0  0  0  0  0  0  0  0  0  0
   18.6254   17.4013    8.7402 H   0  0  0  0  0  0  0  0  0  0  0  0
   17.9136   17.3260    7.0705 H   0  0  0  0  0  0  0  0  0  0  0  0
   21.0936   16.2619    8.9992 H   0  0  0  0  0  0  0  0  0  0  0  0
   22.0036   14.1329    9.6175 H   0  0  0  0  0  0  0  0  0  0  0  0
   21.4169   14.3729   12.0244 H   0  0  0  0  0  0  0  0  0  0  0  0
   25.1520   17.0415   10.1047 H   0  0  0  0  0  0  0  0  0  0  0  0
   25.8024   17.0890   12.9278 H   0  0  0  0  0  0  0  0  0  0  0  0
   24.9081   18.4934   12.1779 H   0  0  0  0  0  0  0  0  0  0  0  0
   23.2965   18.5323   13.9155 H   0  0  0  0  0  0  0  0  0  0  0  0
   25.5500   17.0688   16.2211 H   0  0  0  0  0  0  0  0  0  0  0  0
   26.9224   17.7761   15.2892 H   0  0  0  0  0  0  0  0  0  0  0  0
   25.4565   19.0352   17.6499 H   0  0  0  0  0  0  0  0  0  0  0  0
   27.1397   18.4154   17.6253 H   0  0  0  0  0  0  0  0  0  0  0  0
   26.7309   21.4606   14.8914 H   0  0  0  0  0  0  0  0  0  0  0  0
   24.4745   15.8857   14.8661 H   0  0  0  0  0  0  0  0  0  0  0  0
   23.2248   16.8444   15.7375 H   0  0  0  0  0  0  0  0  0  0  0  0
   22.3224   14.9725   14.2791 H   0  0  0  0  0  0  0  0  0  0  0  0
   21.6811   16.6392   13.9171 H   0  0  0  0  0  0  0  0  0  0  0  0
   21.7562   15.7409    4.7765 H   0  0  0  0  0  0  0  0  0  0  0  0
  1  2  1  0
  2  3  1  0
  3  4  2  0
  4  5  1  0
  5  6  1  0
  6  7  2  0
  6  8  2  0
  6  9  1  0
  9 10  1  0
 10 11  2  0
 11 12  1  0
 12 13  2  0
 13 14  1  0
 14 15  2  0
 14 16  1  0
 16 17  1  0
 17 18  1  0
 18 19  1  0
 19 20  1  0
 20 21  1  0
 21 22  2  0
 21 23  1  0
 23 24  1  0
 24 25  2  0
 17 26  1  0
 26 27  1  0
  5 28  1  0
 28 29  2  0
 29  3  1  0
 15 10  1  0
 24 18  1  0
 27 13  1  0
  1 30  1  0
  1 31  1  0
  1 32  1  0
  2 33  1  0
  2 34  1  0
  4 35  1  0
 11 36  1  0
 12 37  1  0
 15 38  1  0
 16 39  1  0
 16 40  1  0
 17 41  1  6
 19 42  1  0
 19 43  1  0
 20 44  1  0
 20 45  1  0
 23 46  1  0
 26 47  1  0
 26 48  1  0
 27 49  1  0
 27 50  1  0
 28 51  1  0
M  END
>  <meeko>  (559) 
{"is_sidechain": [true], "free_energy": -10.7, "intermolecular_energy": 0.0, "internal_energy": -10.7, "cluster_size": 19, "cluster_id": 1, "rank_in_cluster": 1}

>  <_RMSD_MCS_to_ref>  (559) 
0.3782185214925357

$$$$
ligand
     RDKit          3D

 48 51  0  0  0  0  0  0  0  0999 V2000
   18.9090   19.1540    7.5370 C   0  0  0  0  0  0  0  0  0  0  0  0
   18.7730   17.6460    7.6780 C   0  0  0  0  0  0  0  0  0  0  0  0
   20.0410   16.9370    7.3590 C   0  0  0  0  0  0  0  0  0  0  0  0
   20.6820   15.9400    8.0680 C   0  0  0  0  0  0  0  0  0  0  0  0
   21.7920   15.6600    7.3230 N   0  0  0  0  0  0  0  0  0  0  0  0
   23.0160   14.5950    7.7530 S   0  0  0  0  0  6  0  0  0  0  0  0
   22.3350   13.5160    8.4460 O   0  0  0  0  0  0  0  0  0  0  0  0
   23.8060   14.3650    6.5600 O   0  0  0  0  0  0  0  0  0  0  0  0
   24.0140   15.4500    8.9220 C   0  0  0  0  0  0  0  0  0  0  0  0
   25.2380   16.0000    8.5080 C   0  0  0  0  0  0  0  0  0  0  0  0
   26.0630   16.6750    9.4100 C   0  0  0  0  0  0  0  0  0  0  0  0
   25.6890   16.8230   10.7520 C   0  0  0  0  0  0  0  0  0  0  0  0
   24.4620   16.2860   11.1900 C   0  0  0  0  0  0  0  0  0  0  0  0
   23.7540   16.2330   12.4380 C   0  0  0  0  0  0  0  0  0  0  0  0
   24.1750   16.7890   13.7150 C   0  0  0  0  0  0  0  0  0  0  0  0
   24.0560   16.1720   14.7690 O   0  0  0  0  0  0  0  0  0  0  0  0
   24.7030   18.0590   13.6750 N   0  0  0  0  0  0  0  0  0  0  0  0
   25.0290   18.7820   14.8960 C   0  0  1  0  0  0  0  0  0  0  0  0
   26.0050   18.0150   15.7820 C   0  0  0  0  0  0  0  0  0  0  0  0
   26.3350   18.8450   17.0130 C   0  0  0  0  0  0  0  0  0  0  0  0
   26.8690   20.2060   16.6310 C   0  0  0  0  0  0  0  0  0  0  0  0
   27.7170   20.7920   17.2980 O   0  0  0  0  0  0  0  0  0  0  0  0
   26.3380   20.7810   15.5050 N   0  0  0  0  0  0  0  0  0  0  0  0
   25.6600   20.1230   14.5090 C   0  0  0  0  0  0  0  0  0  0  0  0
   25.5630   20.5970   13.3780 O   0  0  0  0  0  0  0  0  0  0  0  0
   22.5850   15.5530   12.1590 C   0  0  0  0  0  0  0  0  0  0  0  0
   22.5270   15.1870   10.8560 O   0  0  0  0  0  0  0  0  0  0  0  0
   23.6670   15.6230   10.2590 C   0  0  0  0  0  0  0  0  0  0  0  0
   21.8110   16.4650    6.2300 C   0  0  0  0  0  0  0  0  0  0  0  0
   20.7560   17.2540    6.2190 N   0  0  0  0  0  0  0  0  0  0  0  0
   18.9504   19.6134    8.5356 H   0  0  0  0  0  0  0  0  0  0  0  0
   19.8320   19.3891    6.9867 H   0  0  0  0  0  0  0  0  0  0  0  0
   18.0430   19.5504    6.9867 H   0  0  0  0  0  0  0  0  0  0  0  0
   18.4863   17.4111    8.7137 H   0  0  0  0  0  0  0  0  0  0  0  0
   18.0071   17.3071    6.9649 H   0  0  0  0  0  0  0  0  0  0  0  0
   20.3699   15.4773    9.0159 H   0  0  0  0  0  0  0  0  0  0  0  0
   25.5512   15.8977    7.4585 H   0  0  0  0  0  0  0  0  0  0  0  0
   27.0182   17.0957    9.0626 H   0  0  0  0  0  0  0  0  0  0  0  0
   26.3466   17.3531   11.4567 H   0  0  0  0  0  0  0  0  0  0  0  0
   24.8710   18.5072   12.7630 H   0  0  0  0  0  0  0  0  0  0  0  0
   24.1001   18.9211   15.4685 H   0  0  0  0  0  0  0  0  0  0  0  0
   25.5477   17.0641   16.0931 H   0  0  0  0  0  0  0  0  0  0  0  0
   26.9281   17.8122   15.2193 H   0  0  0  0  0  0  0  0  0  0  0  0
   25.4224   18.9738   17.6134 H   0  0  0  0  0  0  0  0  0  0  0  0
   27.1093   18.3178   17.5897 H   0  0  0  0  0  0  0  0  0  0  0  0
   26.4587   21.7982   15.3968 H   0  0  0  0  0  0  0  0  0  0  0  0
   21.8013   15.3363   12.8998 H   0  0  0  0  0  0  0  0  0  0  0  0
   22.5975   16.4593    5.4609 H   0  0  0  0  0  0  0  0  0  0  0  0
  1  2  1  0
  2  3  1  0
  3  4  2  0
  4  5  1  0
  5  6  1  0
  6  7  2  0
  6  8  2  0
  6  9  1  0
  9 10  2  0
 10 11  1  0
 11 12  2  0
 12 13  1  0
 13 14  1  0
 14 15  1  0
 15 16  2  0
 15 17  1  0
 17 18  1  0
 18 19  1  0
 19 20  1  0
 20 21  1  0
 21 22  2  0
 21 23  1  0
 23 24  1  0
 24 25  2  0
 14 26  2  0
 26 27  1  0
 27 28  1  0
  5 29  1  0
 29 30  2  0
 30  3  1  0
 28  9  1  0
 28 13  2  0
 24 18  1  0
  1 31  1  0
  1 32  1  0
  1 33  1  0
  2 34  1  0
  2 35  1  0
  4 36  1  0
 10 37  1  0
 11 38  1  0
 12 39  1  0
 17 40  1  0
 18 41  1  1
 19 42  1  0
 19 43  1  0
 20 44  1  0
 20 45  1  0
 23 46  1  0
 26 47  1  0
 29 48  1  0
M  END
>  <meeko>  (560) 
{"is_sidechain": [true], "free_energy": -10.7, "intermolecular_energy": 0.0, "internal_energy": -10.7, "cluster_size": 17, "cluster_id": 1, "rank_in_cluster": 1}

>  <_RMSD_MCS_to_ref>  (560) 
0.5634515655020108

$$$$
ligand
     RDKit          3D

 48 51  0  0  0  0  0  0  0  0999 V2000
   18.9090   19.1540    7.5370 C   0  0  0  0  0  0  0  0  0  0  0  0
   18.7730   17.6460    7.6780 C   0  0  0  0  0  0  0  0  0  0  0  0
   20.0290   16.9320    7.3180 C   0  0  0  0  0  0  0  0  0  0  0  0
   21.2050   16.8290    8.0320 C   0  0  0  0  0  0  0  0  0  0  0  0
   22.0240   16.0900    7.2260 N   0  0  0  0  0  0  0  0  0  0  0  0
   23.5080   15.4500    7.6660 S   0  0  0  0  0  6  0  0  0  0  0  0
   23.3780   14.0100    7.5890 O   0  0  0  0  0  0  0  0  0  0  0  0
   24.5070   16.1980    6.9280 O   0  0  0  0  0  0  0  0  0  0  0  0
   23.7940   15.8070    9.3110 C   0  0  0  0  0  0  0  0  0  0  0  0
   24.7840   16.6740    9.7810 C   0  0  0  0  0  0  0  0  0  0  0  0
   24.7610   16.8050   11.1060 N   0  0  0  0  0  0  0  0  0  0  0  0
   23.7390   16.0000   11.5340 N   0  0  0  0  0  0  0  0  0  0  0  0
   23.2980   15.8000   12.8540 C   0  0  0  0  0  0  0  0  0  0  0  0
   23.9020   16.4650   14.0490 C   0  0  0  0  0  0  0  0  0  0  0  0
   24.0120   15.8830   15.1260 O   0  0  0  0  0  0  0  0  0  0  0  0
   24.3160   17.7570   13.8780 N   0  0  0  0  0  0  0  0  0  0  0  0
   24.8580   18.5530   14.9650 C   0  0  1  0  0  0  0  0  0  0  0  0
   25.9910   17.8240   15.6830 C   0  0  0  0  0  0  0  0  0  0  0  0
   26.5270   18.6970   16.8070 C   0  0  0  0  0  0  0  0  0  0  0  0
   26.9690   20.0450   16.2890 C   0  0  0  0  0  0  0  0  0  0  0  0
   27.9060   20.6650   16.7830 O   0  0  0  0  0  0  0  0  0  0  0  0
   26.2450   20.5720   15.2490 N   0  0  0  0  0  0  0  0  0  0  0  0
   25.3830   19.8880   14.4250 C   0  0  0  0  0  0  0  0  0  0  0  0
   25.0530   20.3570   13.3370 O   0  0  0  0  0  0  0  0  0  0  0  0
   22.2630   14.9610   13.0730 C   0  0  0  0  0  0  0  0  0  0  0  0
   21.6360   14.2820   11.9550 C   0  0  0  0  0  0  0  0  0  0  0  0
   22.0500   14.4740   10.6910 C   0  0  0  0  0  0  0  0  0  0  0  0
   23.1310   15.3650   10.4340 C   0  0  0  0  0  0  0  0  0  0  0  0
   21.3380   15.7250    6.1130 C   0  0  0  0  0  0  0  0  0  0  0  0
   20.1250   16.2340    6.1310 N   0  0  0  0  0  0  0  0  0  0  0  0
   18.9504   19.6134    8.5356 H   0  0  0  0  0  0  0  0  0  0  0  0
   19.8320   19.3891    6.9867 H   0  0  0  0  0  0  0  0  0  0  0  0
   18.0430   19.5504    6.9867 H   0  0  0  0  0  0  0  0  0  0  0  0
   18.5176   17.4094    8.7214 H   0  0  0  0  0  0  0  0  0  0  0  0
   17.9848   17.3119    6.9873 H   0  0  0  0  0  0  0  0  0  0  0  0
   21.4316   17.2467    9.0241 H   0  0  0  0  0  0  0  0  0  0  0  0
   25.5029   17.1912    9.1285 H   0  0  0  0  0  0  0  0  0  0  0  0
   24.2406   18.1817   12.9427 H   0  0  0  0  0  0  0  0  0  0  0  0
   24.0454   18.7297   15.6851 H   0  0  0  0  0  0  0  0  0  0  0  0
   25.6118   16.8800   16.1015 H   0  0  0  0  0  0  0  0  0  0  0  0
   26.7995   17.6111   14.9682 H   0  0  0  0  0  0  0  0  0  0  0  0
   25.7353   18.8428   17.5566 H   0  0  0  0  0  0  0  0  0  0  0  0
   27.3969   18.1936   17.2541 H   0  0  0  0  0  0  0  0  0  0  0  0
   26.3587   21.5796   15.0680 H   0  0  0  0  0  0  0  0  0  0  0  0
   21.8963   14.7929   14.0964 H   0  0  0  0  0  0  0  0  0  0  0  0
   20.8006   13.5925   12.1466 H   0  0  0  0  0  0  0  0  0  0  0  0
   21.5575   13.9467    9.8607 H   0  0  0  0  0  0  0  0  0  0  0  0
   21.7402   15.0920    5.3083 H   0  0  0  0  0  0  0  0  0  0  0  0
  1  2  1  0
  2  3  1  0
  3  4  2  0
  4  5  1  0
  5  6  1  0
  6  7  2  0
  6  8  2  0
  6  9  1  0
  9 10  1  0
 10 11  2  0
 11 12  1  0
 12 13  1  0
 13 14  1  0
 14 15  2  0
 14 16  1  0
 16 17  1  0
 17 18  1  0
 18 19  1  0
 19 20  1  0
 20 21  2  0
 20 22  1  0
 22 23  1  0
 23 24  2  0
 13 25  2  0
 25 26  1  0
 26 27  2  0
 27 28  1  0
  5 29  1  0
 29 30  2  0
 30  3  1  0
 28  9  2  0
 28 12  1  0
 23 17  1  0
  1 31  1  0
  1 32  1  0
  1 33  1  0
  2 34  1  0
  2 35  1  0
  4 36  1  0
 10 37  1  0
 16 38  1  0
 17 39  1  1
 18 40  1  0
 18 41  1  0
 19 42  1  0
 19 43  1  0
 22 44  1  0
 25 45  1  0
 26 46  1  0
 27 47  1  0
 29 48  1  0
M  END
>  <meeko>  (561) 
{"is_sidechain": [true], "free_energy": -10.7, "intermolecular_energy": 0.0, "internal_energy": -10.7, "cluster_size": 15, "cluster_id": 1, "rank_in_cluster": 1}

>  <_RMSD_MCS_to_ref>  (561) 
0.40389616377369986

$$$$
ligand
     RDKit          3D

 47 50  0  0  0  0  0  0  0  0999 V2000
   18.9090   19.1540    7.5370 C   0  0  0  0  0  0  0  0  0  0  0  0
   18.7730   17.6460    7.6780 C   0  0  0  0  0  0  0  0  0  0  0  0
   19.8810   16.9160    7.0030 C   0  0  0  0  0  0  0  0  0  0  0  0
   21.1720   16.6990    7.4420 C   0  0  0  0  0  0  0  0  0  0  0  0
   21.7570   15.9990    6.4260 N   0  0  0  0  0  0  0  0  0  0  0  0
   23.3100   15.3600    6.4290 S   0  0  0  0  0  6  0  0  0  0  0  0
   23.2230   14.0980    5.7180 O   0  0  0  0  0  0  0  0  0  0  0  0
   24.1750   16.4400    5.9850 O   0  0  0  0  0  0  0  0  0  0  0  0
   23.6850   15.0170    8.1280 C   0  0  0  0  0  0  0  0  0  0  0  0
   23.9140   16.0800    8.9860 C   0  0  0  0  0  0  0  0  0  0  0  0
   24.1950   15.6680   10.2770 C   0  0  0  0  0  0  0  0  0  0  0  0
   24.4600   16.4960   11.3240 O   0  0  0  0  0  0  0  0  0  0  0  0
   24.6860   15.7060   12.4220 C   0  0  0  0  0  0  0  0  0  0  0  0
   24.9940   16.3240   13.6930 C   0  0  0  0  0  0  0  0  0  0  0  0
   25.0810   15.7010   14.7480 O   0  0  0  0  0  0  0  0  0  0  0  0
   25.1730   17.6860   13.6320 N   0  0  0  0  0  0  0  0  0  0  0  0
   25.3280   18.5040   14.8210 C   0  0  1  0  0  0  0  0  0  0  0  0
   26.3370   17.9120   15.8000 C   0  0  0  0  0  0  0  0  0  0  0  0
   26.4750   18.8300   17.0040 C   0  0  0  0  0  0  0  0  0  0  0  0
   26.8530   20.2310   16.5860 C   0  0  0  0  0  0  0  0  0  0  0  0
   27.5700   20.9540   17.2730 O   0  0  0  0  0  0  0  0  0  0  0  0
   26.3280   20.6820   15.4010 N   0  0  0  0  0  0  0  0  0  0  0  0
   25.7990   19.9000   14.4030 C   0  0  0  0  0  0  0  0  0  0  0  0
   25.7050   20.3200   13.2510 O   0  0  0  0  0  0  0  0  0  0  0  0
   24.5610   14.3750   12.0680 C   0  0  0  0  0  0  0  0  0  0  0  0
   24.2450   14.3410   10.6860 C   0  0  0  0  0  0  0  0  0  0  0  0
   23.9950   13.3490    9.7360 C   0  0  0  0  0  0  0  0  0  0  0  0
   23.7130   13.6950    8.4550 N   0  0  0  0  0  0  0  0  0  0  0  0
   20.8370   15.7730    5.4530 C   0  0  0  0  0  0  0  0  0  0  0  0
   19.6870   16.3340    5.7660 N   0  0  0  0  0  0  0  0  0  0  0  0
   18.9504   19.6134    8.5356 H   0  0  0  0  0  0  0  0  0  0  0  0
   19.8320   19.3891    6.9867 H   0  0  0  0  0  0  0  0  0  0  0  0
   18.0430   19.5504    6.9867 H   0  0  0  0  0  0  0  0  0  0  0  0
   18.7786   17.3882    8.7474 H   0  0  0  0  0  0  0  0  0  0  0  0
   17.8295   17.3457    7.1988 H   0  0  0  0  0  0  0  0  0  0  0  0
   21.6253   17.0171    8.3924 H   0  0  0  0  0  0  0  0  0  0  0  0
   23.8767   17.1347    8.6757 H   0  0  0  0  0  0  0  0  0  0  0  0
   25.1980   18.1424   12.7090 H   0  0  0  0  0  0  0  0  0  0  0  0
   24.3538   18.5493   15.3298 H   0  0  0  0  0  0  0  0  0  0  0  0
   25.9889   16.9226   16.1315 H   0  0  0  0  0  0  0  0  0  0  0  0
   27.3131   17.8103   15.3032 H   0  0  0  0  0  0  0  0  0  0  0  0
   25.5156   18.8630   17.5411 H   0  0  0  0  0  0  0  0  0  0  0  0
   27.2709   18.4347   17.6523 H   0  0  0  0  0  0  0  0  0  0  0  0
   26.3308   21.7002   15.2456 H   0  0  0  0  0  0  0  0  0  0  0  0
   24.6835   13.5071   12.7326 H   0  0  0  0  0  0  0  0  0  0  0  0
   24.0266   12.2883   10.0258 H   0  0  0  0  0  0  0  0  0  0  0  0
   21.0257   15.2014    4.5323 H   0  0  0  0  0  0  0  0  0  0  0  0
  1  2  1  0
  2  3  1  0
  3  4  2  0
  4  5  1  0
  5  6  1  0
  6  7  2  0
  6  8  2  0
  6  9  1  0
  9 10  2  0
 10 11  1  0
 11 12  1  0
 12 13  1  0
 13 14  1  0
 14 15  2  0
 14 16  1  0
 16 17  1  0
 17 18  1  0
 18 19  1  0
 19 20  1  0
 20 21  2  0
 20 22  1  0
 22 23  1  0
 23 24  2  0
 13 25  2  0
 25 26  1  0
 26 27  1  0
 27 28  2  0
  5 29  1  0
 29 30  2  0
 30  3  1  0
 28  9  1  0
 26 11  2  0
 23 17  1  0
  1 31  1  0
  1 32  1  0
  1 33  1  0
  2 34  1  0
  2 35  1  0
  4 36  1  0
 10 37  1  0
 16 38  1  0
 17 39  1  1
 18 40  1  0
 18 41  1  0
 19 42  1  0
 19 43  1  0
 22 44  1  0
 25 45  1  0
 27 46  1  0
 29 47  1  0
M  END
>  <meeko>  (562) 
{"is_sidechain": [true], "free_energy": -10.7, "intermolecular_energy": 0.0, "internal_energy": -10.7, "cluster_size": 19, "cluster_id": 1, "rank_in_cluster": 1}

>  <_RMSD_MCS_to_ref>  (562) 
0.5774894900438537

$$$$
ligand
     RDKit          3D

 46 49  0  0  0  0  0  0  0  0999 V2000
   18.9090   19.1540    7.5370 C   0  0  0  0  0  0  0  0  0  0  0  0
   18.7730   17.6460    7.6780 C   0  0  0  0  0  0  0  0  0  0  0  0
   20.0840   16.9510    7.5600 C   0  0  0  0  0  0  0  0  0  0  0  0
   20.9050   16.4690    8.5610 C   0  0  0  0  0  0  0  0  0  0  0  0
   21.9600   15.9170    7.8920 N   0  0  0  0  0  0  0  0  0  0  0  0
   23.4020   15.4020    8.5840 S   0  0  0  0  0  6  0  0  0  0  0  0
   23.5280   13.9960    8.2610 O   0  0  0  0  0  0  0  0  0  0  0  0
   24.3930   16.3840    8.1980 O   0  0  0  0  0  0  0  0  0  0  0  0
   23.1160   15.5380   10.3180 C   0  0  0  0  0  0  0  0  0  0  0  0
   23.8970   16.4220   11.0690 C   0  0  0  0  0  0  0  0  0  0  0  0
   23.6600   16.5220   12.4360 C   0  0  0  0  0  0  0  0  0  0  0  0
   24.5070   17.4520   13.2510 C   0  0  0  0  0  0  0  0  0  0  0  0
   25.6430   17.7500   12.8980 O   0  0  0  0  0  0  0  0  0  0  0  0
   23.9200   17.9160   14.4060 N   0  0  0  0  0  0  0  0  0  0  0  0
   24.6440   18.7050   15.3880 C   0  0  1  0  0  0  0  0  0  0  0  0
   25.7560   17.9040   16.0560 C   0  0  0  0  0  0  0  0  0  0  0  0
   26.4880   18.7870   17.0540 C   0  0  0  0  0  0  0  0  0  0  0  0
   27.0160   20.0400   16.3950 C   0  0  0  0  0  0  0  0  0  0  0  0
   28.0600   20.5800   16.7510 O   0  0  0  0  0  0  0  0  0  0  0  0
   26.2510   20.5740   15.3900 N   0  0  0  0  0  0  0  0  0  0  0  0
   25.2520   19.9310   14.7000 C   0  0  0  0  0  0  0  0  0  0  0  0
   24.8730   20.3450   13.6050 O   0  0  0  0  0  0  0  0  0  0  0  0
   22.7140   15.8330   13.1250 N   0  0  0  0  0  0  0  0  0  0  0  0
   21.9830   15.0160   12.3460 C   0  0  0  0  0  0  0  0  0  0  0  0
   20.9710   14.2340   12.8160 O   0  0  0  0  0  0  0  0  0  0  0  0
   20.4130   13.5140   11.7690 N   0  0  0  0  0  0  0  0  0  0  0  0
   21.1000   13.8790   10.6830 C   0  0  0  0  0  0  0  0  0  0  0  0
   22.1110   14.8170   10.9790 C   0  0  0  0  0  0  0  0  0  0  0  0
   21.7880   16.1020    6.5580 C   0  0  0  0  0  0  0  0  0  0  0  0
   20.6530   16.7260    6.3230 N   0  0  0  0  0  0  0  0  0  0  0  0
   18.9504   19.6134    8.5356 H   0  0  0  0  0  0  0  0  0  0  0  0
   19.8320   19.3891    6.9867 H   0  0  0  0  0  0  0  0  0  0  0  0
   18.0430   19.5504    6.9867 H   0  0  0  0  0  0  0  0  0  0  0  0
   18.3393   17.4198    8.6632 H   0  0  0  0  0  0  0  0  0  0  0  0
   18.1255   17.2872    6.8643 H   0  0  0  0  0  0  0  0  0  0  0  0
   20.7455   16.5185    9.6483 H   0  0  0  0  0  0  0  0  0  0  0  0
   24.6818   17.0252   10.5891 H   0  0  0  0  0  0  0  0  0  0  0  0
   22.9292   17.6955   14.5810 H   0  0  0  0  0  0  0  0  0  0  0  0
   23.9307   19.0094   16.1681 H   0  0  0  0  0  0  0  0  0  0  0  0
   25.3214   17.0403   16.5805 H   0  0  0  0  0  0  0  0  0  0  0  0
   26.4635   17.5509   15.2913 H   0  0  0  0  0  0  0  0  0  0  0  0
   25.7933   19.0707   17.8583 H   0  0  0  0  0  0  0  0  0  0  0  0
   27.3408   18.2214   17.4576 H   0  0  0  0  0  0  0  0  0  0  0  0
   26.4439   21.5510   15.1272 H   0  0  0  0  0  0  0  0  0  0  0  0
   20.9000   13.4921    9.6729 H   0  0  0  0  0  0  0  0  0  0  0  0
   22.4972   15.7763    5.7828 H   0  0  0  0  0  0  0  0  0  0  0  0
  1  2  1  0
  2  3  1  0
  3  4  2  0
  4  5  1  0
  5  6  1  0
  6  7  2  0
  6  8  2  0
  6  9  1  0
  9 10  2  0
 10 11  1  0
 11 12  1  0
 12 13  2  0
 12 14  1  0
 14 15  1  0
 15 16  1  0
 16 17  1  0
 17 18  1  0
 18 19  2  0
 18 20  1  0
 20 21  1  0
 21 22  2  0
 11 23  2  0
 23 24  1  0
 24 25  1  0
 25 26  1  0
 26 27  2  0
 27 28  1  0
  5 29  1  0
 29 30  2  0
 30  3  1  0
 28  9  1  0
 21 15  1  0
 28 24  2  0
  1 31  1  0
  1 32  1  0
  1 33  1  0
  2 34  1  0
  2 35  1  0
  4 36  1  0
 10 37  1  0
 14 38  1  0
 15 39  1  1
 16 40  1  0
 16 41  1  0
 17 42  1  0
 17 43  1  0
 20 44  1  0
 27 45  1  0
 29 46  1  0
M  END
>  <meeko>  (563) 
{"is_sidechain": [true], "free_energy": -10.7, "intermolecular_energy": 0.0, "internal_energy": -10.7, "cluster_size": 19, "cluster_id": 1, "rank_in_cluster": 1}

>  <_RMSD_MCS_to_ref>  (563) 
0.6331182090784202

$$$$
ligand
     RDKit          3D

 50 53  0  0  0  0  0  0  0  0999 V2000
   18.9090   19.1540    7.5370 C   0  0  0  0  0  0  0  0  0  0  0  0
   18.7730   17.6460    7.6780 C   0  0  0  0  0  0  0  0  0  0  0  0
   20.0830   16.9500    7.5600 C   0  0  0  0  0  0  0  0  0  0  0  0
   21.0910   16.8330    8.4970 C   0  0  0  0  0  0  0  0  0  0  0  0
   22.0610   16.1170    7.8570 N   0  0  0  0  0  0  0  0  0  0  0  0
   23.4430   15.4720    8.5620 S   0  0  0  0  0  6  0  0  0  0  0  0
   23.5730   14.1370    8.0100 O   0  0  0  0  0  0  0  0  0  0  0  0
   24.4790   16.4760    8.4200 O   0  0  0  0  0  0  0  0  0  0  0  0
   23.0210   15.3410   10.2790 C   0  0  0  0  0  0  0  0  0  0  0  0
   21.8170   14.7320   10.6510 C   0  0  0  0  0  0  0  0  0  0  0  0
   21.5280   14.6540   12.0020 C   0  0  0  0  0  0  0  0  0  0  0  0
   22.4100   15.1440   12.9620 C   0  0  0  0  0  0  0  0  0  0  0  0
   23.6200   15.7300   12.6140 C   0  0  0  0  0  0  0  0  0  0  0  0
   24.6030   16.2720   13.5950 C   0  0  0  0  0  0  0  0  0  0  0  0
   25.2100   15.5090   14.3400 O   0  0  0  0  0  0  0  0  0  0  0  0
   24.7940   17.6310   13.6120 N   0  0  0  0  0  0  0  0  0  0  0  0
   25.8150   18.2590   14.4330 C   0  0  2  0  0  0  0  0  0  0  0  0
   25.6270   17.9480   15.9140 C   0  0  0  0  0  0  0  0  0  0  0  0
   26.7120   18.6440   16.7210 C   0  0  0  0  0  0  0  0  0  0  0  0
   26.7210   20.1310   16.4560 C   0  0  0  0  0  0  0  0  0  0  0  0
   27.0150   20.9530   17.3190 O   0  0  0  0  0  0  0  0  0  0  0  0
   26.4130   20.5300   15.1810 N   0  0  0  0  0  0  0  0  0  0  0  0
   25.7640   19.7770   14.2320 C   0  0  0  0  0  0  0  0  0  0  0  0
   25.1980   20.3150   13.2800 O   0  0  0  0  0  0  0  0  0  0  0  0
   23.9230   15.8250   11.2450 C   0  0  0  0  0  0  0  0  0  0  0  0
   21.9490   14.9530   14.2440 O   0  0  0  0  0  0  0  0  0  0  0  0
   20.5580   14.5930   14.0730 C   0  0  0  0  0  0  0  0  0  0  0  0
   20.3680   14.0200   12.6720 C   0  0  0  0  0  0  0  0  0  0  0  0
   21.6250   15.7890    6.6130 C   0  0  0  0  0  0  0  0  0  0  0  0
   20.4270   16.2880    6.3970 N   0  0  0  0  0  0  0  0  0  0  0  0
   18.9504   19.6134    8.5356 H   0  0  0  0  0  0  0  0  0  0  0  0
   19.8320   19.3891    6.9867 H   0  0  0  0  0  0  0  0  0  0  0  0
   18.0430   19.5504    6.9867 H   0  0  0  0  0  0  0  0  0  0  0  0
   18.3393   17.4200    8.6633 H   0  0  0  0  0  0  0  0  0  0  0  0
   18.1257   17.2877    6.8640 H   0  0  0  0  0  0  0  0  0  0  0  0
   21.1082   17.2267    9.5240 H   0  0  0  0  0  0  0  0  0  0  0  0
   21.1251   14.3297    9.8963 H   0  0  0  0  0  0  0  0  0  0  0  0
   24.1935   18.2255   13.0231 H   0  0  0  0  0  0  0  0  0  0  0  0
   26.7901   17.8566   14.1211 H   0  0  0  0  0  0  0  0  0  0  0  0
   24.6399   18.3065   16.2413 H   0  0  0  0  0  0  0  0  0  0  0  0
   25.6937   16.8614   16.0713 H   0  0  0  0  0  0  0  0  0  0  0  0
   26.5291   18.4715   17.7919 H   0  0  0  0  0  0  0  0  0  0  0  0
   27.6869   18.2312   16.4226 H   0  0  0  0  0  0  0  0  0  0  0  0
   26.6942   21.4828   14.9090 H   0  0  0  0  0  0  0  0  0  0  0  0
   24.8719   16.2809   10.9261 H   0  0  0  0  0  0  0  0  0  0  0  0
   20.2764   13.8387   14.8224 H   0  0  0  0  0  0  0  0  0  0  0  0
   19.9229   15.4817   14.2030 H   0  0  0  0  0  0  0  0  0  0  0  0
   20.4360   12.9221   12.6628 H   0  0  0  0  0  0  0  0  0  0  0  0
   19.3895   14.2166   12.2096 H   0  0  0  0  0  0  0  0  0  0  0  0
   22.1943   15.1896    5.8873 H   0  0  0  0  0  0  0  0  0  0  0  0
  1  2  1  0
  2  3  1  0
  3  4  2  0
  4  5  1  0
  5  6  1  0
  6  7  2  0
  6  8  2  0
  6  9  1  0
  9 10  2  0
 10 11  1  0
 11 12  2  0
 12 13  1  0
 13 14  1  0
 14 15  2  0
 14 16  1  0
 16 17  1  0
 17 18  1  0
 18 19  1  0
 19 20  1  0
 20 21  2  0
 20 22  1  0
 22 23  1  0
 23 24  2  0
 13 25  2  0
 12 26  1  0
 26 27  1  0
 27 28  1  0
  5 29  1  0
 29 30  2  0
 30  3  1  0
 25  9  1  0
 28 11  1  0
 23 17  1  0
  1 31  1  0
  1 32  1  0
  1 33  1  0
  2 34  1  0
  2 35  1  0
  4 36  1  0
 10 37  1  0
 16 38  1  0
 17 39  1  6
 18 40  1  0
 18 41  1  0
 19 42  1  0
 19 43  1  0
 22 44  1  0
 25 45  1  0
 27 46  1  0
 27 47  1  0
 28 48  1  0
 28 49  1  0
 29 50  1  0
M  END
>  <meeko>  (564) 
{"is_sidechain": [true], "free_energy": -10.7, "intermolecular_energy": 0.0, "internal_energy": -10.7, "cluster_size": 20, "cluster_id": 1, "rank_in_cluster": 1}

>  <_RMSD_MCS_to_ref>  (564) 
0.550018383531153

$$$$
ligand
     RDKit          3D

 44 47  0  0  0  0  0  0  0  0999 V2000
   18.9090   19.1540    7.5370 C   0  0  0  0  0  0  0  0  0  0  0  0
   18.7730   17.6460    7.6780 C   0  0  0  0  0  0  0  0  0  0  0  0
   20.0950   16.9720    7.8030 C   0  0  0  0  0  0  0  0  0  0  0  0
   20.6120   16.2670    8.8720 C   0  0  0  0  0  0  0  0  0  0  0  0
   21.8260   15.8240    8.4290 N   0  0  0  0  0  0  0  0  0  0  0  0
   23.0440   15.1670    9.3890 S   0  0  0  0  0  6  0  0  0  0  0  0
   24.1190   16.1400    9.3690 O   0  0  0  0  0  0  0  0  0  0  0  0
   23.2090   13.7990    8.9360 O   0  0  0  0  0  0  0  0  0  0  0  0
   22.4190   15.1100   11.0370 C   0  0  0  0  0  0  0  0  0  0  0  0
   22.8080   16.0020   11.9160 N   0  0  0  0  0  0  0  0  0  0  0  0
   22.2120   15.6560   13.0810 N   0  0  0  0  0  0  0  0  0  0  0  0
   22.3260   16.1750   14.3370 C   0  0  0  0  0  0  0  0  0  0  0  0
   23.1680   17.2630   14.7530 C   0  0  0  0  0  0  0  0  0  0  0  0
   22.8990   17.9880   15.7040 O   0  0  0  0  0  0  0  0  0  0  0  0
   24.3170   17.4300   14.0060 N   0  0  0  0  0  0  0  0  0  0  0  0
   25.4890   18.0930   14.5590 C   0  0  2  0  0  0  0  0  0  0  0  0
   25.5880   17.8410   16.0570 C   0  0  0  0  0  0  0  0  0  0  0  0
   26.7630   18.6170   16.6280 C   0  0  0  0  0  0  0  0  0  0  0  0
   26.6520   20.0910   16.3170 C   0  0  0  0  0  0  0  0  0  0  0  0
   27.0650   20.9540   17.0840 O   0  0  0  0  0  0  0  0  0  0  0  0
   26.1020   20.4220   15.1040 N   0  0  0  0  0  0  0  0  0  0  0  0
   25.3390   19.6040   14.3070 C   0  0  0  0  0  0  0  0  0  0  0  0
   24.5960   20.0720   13.4440 O   0  0  0  0  0  0  0  0  0  0  0  0
   21.4890   15.3540   15.0880 C   0  0  0  0  0  0  0  0  0  0  0  0
   20.8910   14.3660   14.3170 N   0  0  0  0  0  0  0  0  0  0  0  0
   21.3800   14.5910   13.1330 C   0  0  0  0  0  0  0  0  0  0  0  0
   21.2710   13.8580   11.5890 S   0  0  0  0  0  0  0  0  0  0  0  0
   22.0380   16.3000    7.1730 C   0  0  0  0  0  0  0  0  0  0  0  0
   21.0070   17.0140    6.7680 N   0  0  0  0  0  0  0  0  0  0  0  0
   18.9504   19.6134    8.5356 H   0  0  0  0  0  0  0  0  0  0  0  0
   19.8320   19.3891    6.9867 H   0  0  0  0  0  0  0  0  0  0  0  0
   18.0430   19.5504    6.9867 H   0  0  0  0  0  0  0  0  0  0  0  0
   18.1769   17.4264    8.5760 H   0  0  0  0  0  0  0  0  0  0  0  0
   18.2835   17.2644    6.7698 H   0  0  0  0  0  0  0  0  0  0  0  0
   20.1510   16.1000    9.8567 H   0  0  0  0  0  0  0  0  0  0  0  0
   24.3455   17.0785   13.0383 H   0  0  0  0  0  0  0  0  0  0  0  0
   26.3987   17.7012   14.0806 H   0  0  0  0  0  0  0  0  0  0  0  0
   24.6594   18.1707   16.5458 H   0  0  0  0  0  0  0  0  0  0  0  0
   25.7377   16.7663   16.2375 H   0  0  0  0  0  0  0  0  0  0  0  0
   26.7849   18.4820   17.7195 H   0  0  0  0  0  0  0  0  0  0  0  0
   27.6868   18.2345   16.1693 H   0  0  0  0  0  0  0  0  0  0  0  0
   26.2784   21.3759   14.7579 H   0  0  0  0  0  0  0  0  0  0  0  0
   21.3207   15.4743   16.1684 H   0  0  0  0  0  0  0  0  0  0  0  0
   22.9442   16.1148    6.5777 H   0  0  0  0  0  0  0  0  0  0  0  0
  1  2  1  0
  2  3  1  0
  3  4  2  0
  4  5  1  0
  5  6  1  0
  6  7  2  0
  6  8  2  0
  6  9  1  0
  9 10  2  0
 10 11  1  0
 11 12  1  0
 12 13  1  0
 13 14  2  0
 13 15  1  0
 15 16  1  0
 16 17  1  0
 17 18  1  0
 18 19  1  0
 19 20  2  0
 19 21  1  0
 21 22  1  0
 22 23  2  0
 12 24  2  0
 24 25  1  0
 25 26  2  0
 26 27  1  0
  5 28  1  0
 28 29  2  0
 29  3  1  0
 27  9  1  0
 26 11  1  0
 22 16  1  0
  1 30  1  0
  1 31  1  0
  1 32  1  0
  2 33  1  0
  2 34  1  0
  4 35  1  0
 15 36  1  0
 16 37  1  6
 17 38  1  0
 17 39  1  0
 18 40  1  0
 18 41  1  0
 21 42  1  0
 24 43  1  0
 28 44  1  0
M  END
>  <meeko>  (565) 
{"is_sidechain": [true], "free_energy": -10.7, "intermolecular_energy": 0.0, "internal_energy": -10.7, "cluster_size": 16, "cluster_id": 1, "rank_in_cluster": 1}

>  <_RMSD_MCS_to_ref>  (565) 
0.4456211644684559

$$$$
ligand
     RDKit          3D

 53 56  0  0  0  0  0  0  0  0999 V2000
   18.9090   19.1540    7.5370 C   0  0  0  0  0  0  0  0  0  0  0  0
   18.7730   17.6460    7.6780 C   0  0  0  0  0  0  0  0  0  0  0  0
   20.0940   16.9600    7.6560 C   0  0  0  0  0  0  0  0  0  0  0  0
   20.9640   16.7150    8.6990 C   0  0  0  0  0  0  0  0  0  0  0  0
   22.0120   16.0610    8.1140 N   0  0  0  0  0  0  0  0  0  0  0  0
   23.4580   15.6570    8.8630 S   0  0  0  0  0  6  0  0  0  0  0  0
   24.3020   16.8290    8.7410 O   0  0  0  0  0  0  0  0  0  0  0  0
   23.8160   14.3710    8.2950 O   0  0  0  0  0  0  0  0  0  0  0  0
   23.1310   15.4070   10.5970 C   0  0  0  0  0  0  0  0  0  0  0  0
   24.0020   15.9280   11.5650 C   0  0  0  0  0  0  0  0  0  0  0  0
   23.7310   15.7500   12.9280 C   0  0  0  0  0  0  0  0  0  0  0  0
   24.6910   16.3140   13.9170 C   0  0  0  0  0  0  0  0  0  0  0  0
   25.2880   15.5670   14.6840 O   0  0  0  0  0  0  0  0  0  0  0  0
   24.8910   17.6750   13.8920 N   0  0  0  0  0  0  0  0  0  0  0  0
   25.9140   18.2990   14.7200 C   0  0  2  0  0  0  0  0  0  0  0  0
   25.7120   18.0070   16.2040 C   0  0  0  0  0  0  0  0  0  0  0  0
   26.7880   18.7190   17.0100 C   0  0  0  0  0  0  0  0  0  0  0  0
   26.7980   20.2020   16.7240 C   0  0  0  0  0  0  0  0  0  0  0  0
   27.0830   21.0360   17.5780 O   0  0  0  0  0  0  0  0  0  0  0  0
   26.5010   20.5820   15.4400 N   0  0  0  0  0  0  0  0  0  0  0  0
   25.8660   19.8130   14.4970 C   0  0  0  0  0  0  0  0  0  0  0  0
   25.3070   20.3240   13.5260 O   0  0  0  0  0  0  0  0  0  0  0  0
   22.5960   15.0400   13.3190 C   0  0  0  0  0  0  0  0  0  0  0  0
   21.7240   14.5260   12.3570 C   0  0  0  0  0  0  0  0  0  0  0  0
   21.9850   14.6770   10.9860 C   0  0  0  0  0  0  0  0  0  0  0  0
   21.0290   14.0760    9.9840 C   0  0  0  0  0  0  0  0  0  0  0  0
   20.1200   13.0410   10.6320 C   0  0  0  0  0  0  0  0  0  0  0  0
   19.5890   13.6090   11.9330 C   0  0  0  0  0  0  0  0  0  0  0  0
   20.6450   13.8510   12.8640 O   0  0  0  0  0  0  0  0  0  0  0  0
   21.7780   15.9440    6.7810 C   0  0  0  0  0  0  0  0  0  0  0  0
   20.6150   16.4790    6.4710 N   0  0  0  0  0  0  0  0  0  0  0  0
   18.9504   19.6134    8.5356 H   0  0  0  0  0  0  0  0  0  0  0  0
   19.8320   19.3891    6.9867 H   0  0  0  0  0  0  0  0  0  0  0  0
   18.0430   19.5504    6.9867 H   0  0  0  0  0  0  0  0  0  0  0  0
   18.2732   17.4226    8.6321 H   0  0  0  0  0  0  0  0  0  0  0  0
   18.1858   17.2776    6.8239 H   0  0  0  0  0  0  0  0  0  0  0  0
   20.8419   16.9844    9.7585 H   0  0  0  0  0  0  0  0  0  0  0  0
   24.9016   16.4786   11.2528 H   0  0  0  0  0  0  0  0  0  0  0  0
   24.3082   18.2618   13.2781 H   0  0  0  0  0  0  0  0  0  0  0  0
   26.8899   17.8832   14.4288 H   0  0  0  0  0  0  0  0  0  0  0  0
   24.7207   18.3664   16.5172 H   0  0  0  0  0  0  0  0  0  0  0  0
   25.7796   16.9229   16.3777 H   0  0  0  0  0  0  0  0  0  0  0  0
   26.5954   18.5622   18.0816 H   0  0  0  0  0  0  0  0  0  0  0  0
   27.7662   18.3042   16.7251 H   0  0  0  0  0  0  0  0  0  0  0  0
   26.7803   21.5323   15.1573 H   0  0  0  0  0  0  0  0  0  0  0  0
   22.3872   14.8845   14.3878 H   0  0  0  0  0  0  0  0  0  0  0  0
   20.4095   14.8777    9.5556 H   0  0  0  0  0  0  0  0  0  0  0  0
   21.6184   13.5761    9.2013 H   0  0  0  0  0  0  0  0  0  0  0  0
   19.2812   12.8112    9.9585 H   0  0  0  0  0  0  0  0  0  0  0  0
   20.6835   12.1169   10.8282 H   0  0  0  0  0  0  0  0  0  0  0  0
   19.0708   14.5567   11.7250 H   0  0  0  0  0  0  0  0  0  0  0  0
   18.8981   12.8760   12.3751 H   0  0  0  0  0  0  0  0  0  0  0  0
   22.4626   15.4697    6.0624 H   0  0  0  0  0  0  0  0  0  0  0  0
  1  2  1  0
  2  3  1  0
  3  4  2  0
  4  5  1  0
  5  6  1  0
  6  7  2  0
  6  8  2  0
  6  9  1  0
  9 10  2  0
 10 11  1  0
 11 12  1  0
 12 13  2  0
 12 14  1  0
 14 15  1  0
 15 16  1  0
 16 17  1  0
 17 18  1  0
 18 19  2  0
 18 20  1  0
 20 21  1  0
 21 22  2  0
 11 23  2  0
 23 24  1  0
 24 25  2  0
 25 26  1  0
 26 27  1  0
 27 28  1  0
 28 29  1  0
  5 30  1  0
 30 31  2  0
 31  3  1  0
 25  9  1  0
 21 15  1  0
 29 24  1  0
  1 32  1  0
  1 33  1  0
  1 34  1  0
  2 35  1  0
  2 36  1  0
  4 37  1  0
 10 38  1  0
 14 39  1  0
 15 40  1  6
 16 41  1  0
 16 42  1  0
 17 43  1  0
 17 44  1  0
 20 45  1  0
 23 46  1  0
 26 47  1  0
 26 48  1  0
 27 49  1  0
 27 50  1  0
 28 51  1  0
 28 52  1  0
 30 53  1  0
M  END
>  <meeko>  (566) 
{"is_sidechain": [true], "free_energy": -10.7, "intermolecular_energy": 0.0, "internal_energy": -10.7, "cluster_size": 19, "cluster_id": 1, "rank_in_cluster": 1}

>  <_RMSD_MCS_to_ref>  (566) 
0.6639378317617133

$$$$
ligand
     RDKit          3D

 47 50  0  0  0  0  0  0  0  0999 V2000
   18.9090   19.1540    7.5370 C   0  0  0  0  0  0  0  0  0  0  0  0
   18.7730   17.6460    7.6780 C   0  0  0  0  0  0  0  0  0  0  0  0
   19.9880   16.9260    7.2090 C   0  0  0  0  0  0  0  0  0  0  0  0
   21.1710   16.6890    7.8820 C   0  0  0  0  0  0  0  0  0  0  0  0
   21.9320   15.9990    6.9850 N   0  0  0  0  0  0  0  0  0  0  0  0
   23.3980   15.2590    7.3050 S   0  0  0  0  0  6  0  0  0  0  0  0
   23.2350   13.8550    6.9630 O   0  0  0  0  0  0  0  0  0  0  0  0
   24.4240   16.0790    6.6920 O   0  0  0  0  0  0  0  0  0  0  0  0
   23.6850   15.2920    9.0460 C   0  0  0  0  0  0  0  0  0  0  0  0
   23.2440   14.3620    9.8350 N   0  0  0  0  0  0  0  0  0  0  0  0
   23.5640   14.5800   11.1330 C   0  0  0  0  0  0  0  0  0  0  0  0
   23.1910   13.7490   12.1410 O   0  0  0  0  0  0  0  0  0  0  0  0
   23.6720   14.2760   13.2950 C   0  0  0  0  0  0  0  0  0  0  0  0
   24.3730   15.4470   13.0670 C   0  0  0  0  0  0  0  0  0  0  0  0
   24.9910   16.2140   14.1380 C   0  0  0  0  0  0  0  0  0  0  0  0
   25.4640   15.6660   15.1290 O   0  0  0  0  0  0  0  0  0  0  0  0
   25.0260   17.5810   13.9720 N   0  0  0  0  0  0  0  0  0  0  0  0
   25.3110   18.4500   15.1020 C   0  0  1  0  0  0  0  0  0  0  0  0
   26.4390   17.8800   15.9530 C   0  0  0  0  0  0  0  0  0  0  0  0
   26.7220   18.8210   17.1140 C   0  0  0  0  0  0  0  0  0  0  0  0
   27.0330   20.2160   16.6240 C   0  0  0  0  0  0  0  0  0  0  0  0
   27.8470   20.9430   17.1840 O   0  0  0  0  0  0  0  0  0  0  0  0
   26.3370   20.6490   15.5240 N   0  0  0  0  0  0  0  0  0  0  0  0
   25.7290   19.8390   14.5940 C   0  0  0  0  0  0  0  0  0  0  0  0
   25.5480   20.2320   13.4430 O   0  0  0  0  0  0  0  0  0  0  0  0
   24.2900   15.6340   11.6580 C   0  0  0  0  0  0  0  0  0  0  0  0
   24.7730   16.6330   10.7440 C   0  0  0  0  0  0  0  0  0  0  0  0
   25.4480   17.5980   11.0850 O   0  0  0  0  0  0  0  0  0  0  0  0
   24.4190   16.4020    9.4380 N   0  0  0  0  0  0  0  0  0  0  0  0
   21.2130   15.7940    5.8520 C   0  0  0  0  0  0  0  0  0  0  0  0
   20.0310   16.3630    5.9480 N   0  0  0  0  0  0  0  0  0  0  0  0
   18.9504   19.6134    8.5356 H   0  0  0  0  0  0  0  0  0  0  0  0
   19.8320   19.3891    6.9867 H   0  0  0  0  0  0  0  0  0  0  0  0
   18.0430   19.5504    6.9867 H   0  0  0  0  0  0  0  0  0  0  0  0
   18.6040   17.4030    8.7374 H   0  0  0  0  0  0  0  0  0  0  0  0
   17.9269   17.3233    7.0535 H   0  0  0  0  0  0  0  0  0  0  0  0
   21.4379   16.9882    8.9063 H   0  0  0  0  0  0  0  0  0  0  0  0
   23.5232   13.8280   14.2885 H   0  0  0  0  0  0  0  0  0  0  0  0
   24.8494   17.9893   13.0430 H   0  0  0  0  0  0  0  0  0  0  0  0
   24.4006   18.5260   15.7147 H   0  0  0  0  0  0  0  0  0  0  0  0
   26.1426   16.8950   16.3429 H   0  0  0  0  0  0  0  0  0  0  0  0
   27.3447   17.7729   15.3380 H   0  0  0  0  0  0  0  0  0  0  0  0
   25.8386   18.8593   17.7683 H   0  0  0  0  0  0  0  0  0  0  0  0
   27.5961   18.4423   17.6639 H   0  0  0  0  0  0  0  0  0  0  0  0
   26.2637   21.6666   15.3828 H   0  0  0  0  0  0  0  0  0  0  0  0
   24.7102   17.0805    8.7198 H   0  0  0  0  0  0  0  0  0  0  0  0
   21.5689   15.2311    4.9765 H   0  0  0  0  0  0  0  0  0  0  0  0
  1  2  1  0
  2  3  1  0
  3  4  2  0
  4  5  1  0
  5  6  1  0
  6  7  2  0
  6  8  2  0
  6  9  1  0
  9 10  2  0
 10 11  1  0
 11 12  1  0
 12 13  1  0
 13 14  2  0
 14 15  1  0
 15 16  2  0
 15 17  1  0
 17 18  1  0
 18 19  1  0
 19 20  1  0
 20 21  1  0
 21 22  2  0
 21 23  1  0
 23 24  1  0
 24 25  2  0
 14 26  1  0
 26 27  1  0
 27 28  2  0
 27 29  1  0
  5 30  1  0
 30 31  2  0
 31  3  1  0
 29  9  1  0
 26 11  2  0
 24 18  1  0
  1 32  1  0
  1 33  1  0
  1 34  1  0
  2 35  1  0
  2 36  1  0
  4 37  1  0
 13 38  1  0
 17 39  1  0
 18 40  1  1
 19 41  1  0
 19 42  1  0
 20 43  1  0
 20 44  1  0
 23 45  1  0
 29 46  1  0
 30 47  1  0
M  END
>  <meeko>  (567) 
{"is_sidechain": [true], "free_energy": -10.7, "intermolecular_energy": 0.0, "internal_energy": -10.7, "cluster_size": 15, "cluster_id": 1, "rank_in_cluster": 1}

>  <_RMSD_MCS_to_ref>  (567) 
0.6160385990792746

$$$$
ligand
     RDKit          3D

 52 56  0  0  0  0  0  0  0  0999 V2000
   18.8250   19.0180    7.5350 C   0  0  0  0  0  0  0  0  0  0  0  0
   18.5200   17.5410    7.7330 C   0  0  0  0  0  0  0  0  0  0  0  0
   19.7550   16.7140    7.7670 C   0  0  0  0  0  0  0  0  0  0  0  0
   20.3150   16.0320    8.8300 C   0  0  0  0  0  0  0  0  0  0  0  0
   21.4510   15.4790    8.3110 N   0  0  0  0  0  0  0  0  0  0  0  0
   22.4600   14.3890    9.0910 S   0  0  0  0  0  6  0  0  0  0  0  0
   21.6490   13.1910    9.2300 O   0  0  0  0  0  0  0  0  0  0  0  0
   23.7120   14.3570    8.3600 O   0  0  0  0  0  0  0  0  0  0  0  0
   22.7640   15.0420   10.7170 C   0  0  0  0  0  0  0  0  0  0  0  0
   23.9320   15.8060   10.8930 C   0  0  0  0  0  0  0  0  0  0  0  0
   24.1410   16.3760   12.1330 C   0  0  0  0  0  0  0  0  0  0  0  0
   23.2510   16.2280   13.1900 C   0  0  0  0  0  0  0  0  0  0  0  0
   22.0940   15.4850   13.0270 C   0  0  0  0  0  0  0  0  0  0  0  0
   21.8360   14.8820   11.7760 C   0  0  0  0  0  0  0  0  0  0  0  0
   20.6440   14.0770   11.6530 C   0  0  0  0  0  0  0  0  0  0  0  0
   20.5280   12.7350   11.9240 C   0  0  0  0  0  0  0  0  0  0  0  0
   19.2440   12.3650   11.6470 O   0  0  0  0  0  0  0  0  0  0  0  0
   18.6570   13.5210   11.2280 C   0  0  0  0  0  0  0  0  0  0  0  0
   19.4490   14.5720   11.2060 N   0  0  0  0  0  0  0  0  0  0  0  0
   23.7710   16.9330   14.3980 C   0  0  0  0  0  0  0  0  0  0  0  0
   24.9720   17.5840   13.8940 N   0  0  0  0  0  0  0  0  0  0  0  0
   25.9360   18.2000   14.8020 C   0  0  2  0  0  0  0  0  0  0  0  0
   25.5710   18.0570   16.2790 C   0  0  0  0  0  0  0  0  0  0  0  0
   26.6690   18.6760   17.1300 C   0  0  0  0  0  0  0  0  0  0  0  0
   26.9030   20.1210   16.7580 C   0  0  0  0  0  0  0  0  0  0  0  0
   27.4070   20.9250   17.5390 O   0  0  0  0  0  0  0  0  0  0  0  0
   26.6030   20.4830   15.4700 N   0  0  0  0  0  0  0  0  0  0  0  0
   26.1670   19.6760   14.4440 C   0  0  0  0  0  0  0  0  0  0  0  0
   26.0760   20.1180   13.2980 O   0  0  0  0  0  0  0  0  0  0  0  0
   25.2670   17.1940   12.5970 C   0  0  0  0  0  0  0  0  0  0  0  0
   26.2590   17.4320   11.9370 O   0  0  0  0  0  0  0  0  0  0  0  0
   21.5000   15.7390    6.9780 C   0  0  0  0  0  0  0  0  0  0  0  0
   20.5020   16.5200    6.6200 N   0  0  0  0  0  0  0  0  0  0  0  0
   18.9258   19.5062    8.5155 H   0  0  0  0  0  0  0  0  0  0  0  0
   19.7645   19.1263    6.9731 H   0  0  0  0  0  0  0  0  0  0  0  0
   18.0053   19.4896    6.9731 H   0  0  0  0  0  0  0  0  0  0  0  0
   17.9822   17.4144    8.6842 H   0  0  0  0  0  0  0  0  0  0  0  0
   17.9104   17.2042    6.8816 H   0  0  0  0  0  0  0  0  0  0  0  0
   19.9334   15.9525    9.8586 H   0  0  0  0  0  0  0  0  0  0  0  0
   24.6521   15.9442   10.0730 H   0  0  0  0  0  0  0  0  0  0  0  0
   21.3857   15.3660   13.8601 H   0  0  0  0  0  0  0  0  0  0  0  0
   21.3266   12.0771   12.2972 H   0  0  0  0  0  0  0  0  0  0  0  0
   17.5993   13.5721   10.9301 H   0  0  0  0  0  0  0  0  0  0  0  0
   23.0454   17.6714   14.7698 H   0  0  0  0  0  0  0  0  0  0  0  0
   23.9616   16.2614   15.2481 H   0  0  0  0  0  0  0  0  0  0  0  0
   26.8736   17.6420   14.6619 H   0  0  0  0  0  0  0  0  0  0  0  0
   24.6196   18.5735   16.4741 H   0  0  0  0  0  0  0  0  0  0  0  0
   25.4657   16.9915   16.5312 H   0  0  0  0  0  0  0  0  0  0  0  0
   26.3754   18.6216   18.1887 H   0  0  0  0  0  0  0  0  0  0  0  0
   27.6003   18.1173   16.9551 H   0  0  0  0  0  0  0  0  0  0  0  0
   26.7180   21.4810   15.2425 H   0  0  0  0  0  0  0  0  0  0  0  0
   22.2676   15.3506    6.2925 H   0  0  0  0  0  0  0  0  0  0  0  0
  1  2  1  0
  2  3  1  0
  3  4  2  0
  4  5  1  0
  5  6  1  0
  6  7  2  0
  6  8  2  0
  6  9  1  0
  9 10  2  0
 10 11  1  0
 11 12  2  0
 12 13  1  0
 13 14  2  0
 14 15  1  0
 15 16  2  0
 16 17  1  0
 17 18  1  0
 18 19  2  0
 12 20  1  0
 20 21  1  0
 21 22  1  0
 22 23  1  0
 23 24  1  0
 24 25  1  0
 25 26  2  0
 25 27  1  0
 27 28  1  0
 28 29  2  0
 21 30  1  0
 30 31  2  0
  5 32  1  0
 32 33  2  0
 33  3  1  0
 14  9  1  0
 19 15  1  0
 28 22  1  0
 30 11  1  0
  1 34  1  0
  1 35  1  0
  1 36  1  0
  2 37  1  0
  2 38  1  0
  4 39  1  0
 10 40  1  0
 13 41  1  0
 16 42  1  0
 18 43  1  0
 20 44  1  0
 20 45  1  0
 22 46  1  1
 23 47  1  0
 23 48  1  0
 24 49  1  0
 24 50  1  0
 27 51  1  0
 32 52  1  0
M  END
>  <meeko>  (568) 
{"is_sidechain": [true], "free_energy": -10.69, "intermolecular_energy": 0.0, "internal_energy": -10.69, "cluster_size": 11, "cluster_id": 1, "rank_in_cluster": 1}

>  <_RMSD_MCS_to_ref>  (568) 
1.9197998882985465

$$$$
ligand
     RDKit          3D

 53 57  0  0  0  0  0  0  0  0999 V2000
   18.7970   18.8170    7.7190 C   0  0  0  0  0  0  0  0  0  0  0  0
   18.5280   17.3290    7.8810 C   0  0  0  0  0  0  0  0  0  0  0  0
   19.7850   16.5350    7.9400 C   0  0  0  0  0  0  0  0  0  0  0  0
   20.2990   15.7970    8.9880 C   0  0  0  0  0  0  0  0  0  0  0  0
   21.4610   15.2770    8.4940 N   0  0  0  0  0  0  0  0  0  0  0  0
   22.4390   14.1320    9.2440 S   0  0  0  0  0  6  0  0  0  0  0  0
   21.5280   13.4190   10.1210 O   0  0  0  0  0  0  0  0  0  0  0  0
   23.1680   13.4860    8.1710 O   0  0  0  0  0  0  0  0  0  0  0  0
   23.6110   15.0250   10.2480 C   0  0  0  0  0  0  0  0  0  0  0  0
   23.1950   15.5790   11.4690 C   0  0  0  0  0  0  0  0  0  0  0  0
   24.1480   16.2260   12.2280 C   0  0  0  0  0  0  0  0  0  0  0  0
   25.4730   16.3460   11.8330 C   0  0  0  0  0  0  0  0  0  0  0  0
   25.8850   15.8160   10.6240 C   0  0  0  0  0  0  0  0  0  0  0  0
   24.9570   15.1540    9.7830 C   0  0  0  0  0  0  0  0  0  0  0  0
   25.4400   14.6010    8.4540 C   0  0  0  0  0  0  0  0  0  0  0  0
   25.3840   15.4660    7.2150 C   0  0  0  0  0  0  0  0  0  0  0  0
   26.7100   15.1180    7.8130 C   0  0  0  0  0  0  0  0  0  0  0  0
   26.2470   17.1060   12.8580 C   0  0  0  0  0  0  0  0  0  0  0  0
   25.2570   17.3220   13.9060 N   0  0  0  0  0  0  0  0  0  0  0  0
   25.4490   18.2510   15.0150 C   0  0  1  0  0  0  0  0  0  0  0  0
   26.3170   17.6650   16.1240 C   0  0  0  0  0  0  0  0  0  0  0  0
   26.3990   18.6550   17.2760 C   0  0  0  0  0  0  0  0  0  0  0  0
   26.9100   19.9970   16.8060 C   0  0  0  0  0  0  0  0  0  0  0  0
   27.6420   20.7000   17.4960 O   0  0  0  0  0  0  0  0  0  0  0  0
   26.5010   20.4080   15.5640 N   0  0  0  0  0  0  0  0  0  0  0  0
   26.0580   19.5850   14.5530 C   0  0  0  0  0  0  0  0  0  0  0  0
   26.1740   19.9260   13.3780 O   0  0  0  0  0  0  0  0  0  0  0  0
   23.9950   16.8900   13.5270 C   0  0  0  0  0  0  0  0  0  0  0  0
   22.9420   17.0180   14.1200 O   0  0  0  0  0  0  0  0  0  0  0  0
   21.6170   15.6780    7.2050 C   0  0  0  0  0  0  0  0  0  0  0  0
   20.6130   16.4450    6.8360 N   0  0  0  0  0  0  0  0  0  0  0  0
   18.8815   19.2845    8.7111 H   0  0  0  0  0  0  0  0  0  0  0  0
   19.7359   18.9616    7.1643 H   0  0  0  0  0  0  0  0  0  0  0  0
   17.9682   19.2812    7.1643 H   0  0  0  0  0  0  0  0  0  0  0  0
   17.9643   17.1700    8.8121 H   0  0  0  0  0  0  0  0  0  0  0  0
   17.9555   16.9914    7.0045 H   0  0  0  0  0  0  0  0  0  0  0  0
   19.8702   15.6594    9.9916 H   0  0  0  0  0  0  0  0  0  0  0  0
   22.1511   15.5003   11.8069 H   0  0  0  0  0  0  0  0  0  0  0  0
   26.9365   15.9087   10.3144 H   0  0  0  0  0  0  0  0  0  0  0  0
   25.0638   13.6076    8.7398 H   0  0  0  0  0  0  0  0  0  0  0  0
   25.0839   15.0268    6.2522 H   0  0  0  0  0  0  0  0  0  0  0  0
   24.8767   16.4045    6.9469 H   0  0  0  0  0  0  0  0  0  0  0  0
   27.3831   14.4231    7.2895 H   0  0  0  0  0  0  0  0  0  0  0  0
   27.5777   15.6950    8.1654 H   0  0  0  0  0  0  0  0  0  0  0  0
   27.0981   16.5171   13.2306 H   0  0  0  0  0  0  0  0  0  0  0  0
   26.6876   18.0374   12.4727 H   0  0  0  0  0  0  0  0  0  0  0  0
   24.4422   18.4359   15.4176 H   0  0  0  0  0  0  0  0  0  0  0  0
   25.8725   16.7237   16.4796 H   0  0  0  0  0  0  0  0  0  0  0  0
   27.3271   17.4680   15.7355 H   0  0  0  0  0  0  0  0  0  0  0  0
   25.3967   18.7845   17.7102 H   0  0  0  0  0  0  0  0  0  0  0  0
   27.0982   18.2590   18.0273 H   0  0  0  0  0  0  0  0  0  0  0  0
   26.5273   21.4193   15.3704 H   0  0  0  0  0  0  0  0  0  0  0  0
   22.4639   15.4004    6.5602 H   0  0  0  0  0  0  0  0  0  0  0  0
  1  2  1  0
  2  3  1  0
  3  4  2  0
  4  5  1  0
  5  6  1  0
  6  7  2  0
  6  8  2  0
  6  9  1  0
  9 10  2  0
 10 11  1  0
 11 12  2  0
 12 13  1  0
 13 14  2  0
 14 15  1  0
 15 16  1  0
 16 17  1  0
 12 18  1  0
 18 19  1  0
 19 20  1  0
 20 21  1  0
 21 22  1  0
 22 23  1  0
 23 24  2  0
 23 25  1  0
 25 26  1  0
 26 27  2  0
 19 28  1  0
 28 29  2  0
  5 30  1  0
 30 31  2  0
 31  3  1  0
 14  9  1  0
 17 15  1  0
 26 20  1  0
 28 11  1  0
  1 32  1  0
  1 33  1  0
  1 34  1  0
  2 35  1  0
  2 36  1  0
  4 37  1  0
 10 38  1  0
 13 39  1  0
 15 40  1  0
 16 41  1  0
 16 42  1  0
 17 43  1  0
 17 44  1  0
 18 45  1  0
 18 46  1  0
 20 47  1  1
 21 48  1  0
 21 49  1  0
 22 50  1  0
 22 51  1  0
 25 52  1  0
 30 53  1  0
M  END
>  <meeko>  (569) 
{"is_sidechain": [true], "free_energy": -10.69, "intermolecular_energy": 0.0, "internal_energy": -10.69, "cluster_size": 16, "cluster_id": 1, "rank_in_cluster": 1}

>  <_RMSD_MCS_to_ref>  (569) 
0.5263124863931443

$$$$
ligand
     RDKit          3D

 54 58  0  0  0  0  0  0  0  0999 V2000
   18.9090   19.1540    7.5370 C   0  0  0  0  0  0  0  0  0  0  0  0
   18.7730   17.6460    7.6780 C   0  0  0  0  0  0  0  0  0  0  0  0
   19.6530   16.9110    6.7290 C   0  0  0  0  0  0  0  0  0  0  0  0
   21.0200   16.7270    6.7770 C   0  0  0  0  0  0  0  0  0  0  0  0
   21.3010   16.0060    5.6520 N   0  0  0  0  0  0  0  0  0  0  0  0
   22.7750   15.2890    5.2850 S   0  0  0  0  0  6  0  0  0  0  0  0
   23.7050   16.3800    5.0740 O   0  0  0  0  0  0  0  0  0  0  0  0
   22.4910   14.3000    4.2620 O   0  0  0  0  0  0  0  0  0  0  0  0
   23.2080   14.4520    6.7650 C   0  0  0  0  0  0  0  0  0  0  0  0
   23.4180   13.0880    6.7370 C   0  0  0  0  0  0  0  0  0  0  0  0
   23.7660   12.3820    7.8340 N   0  0  0  0  0  0  0  0  0  0  0  0
   23.8840   13.0690    8.9980 C   0  0  0  0  0  0  0  0  0  0  0  0
   23.6760   14.4440    9.1390 C   0  0  0  0  0  0  0  0  0  0  0  0
   23.8180   15.1240   10.4360 C   0  0  0  0  0  0  0  0  0  0  0  0
   22.8460   14.9430   11.4580 C   0  0  0  0  0  0  0  0  0  0  0  0
   22.9510   15.5760   12.7040 C   0  0  0  0  0  0  0  0  0  0  0  0
   24.0430   16.3930   12.9040 C   0  0  0  0  0  0  0  0  0  0  0  0
   24.9970   16.5840   11.9240 C   0  0  0  0  0  0  0  0  0  0  0  0
   24.9170   15.9680   10.6880 C   0  0  0  0  0  0  0  0  0  0  0  0
   26.0100   17.4870   12.4660 C   0  0  0  0  0  0  0  0  0  0  0  0
   27.0170   17.8130   11.8680 O   0  0  0  0  0  0  0  0  0  0  0  0
   25.5970   17.8320   13.7230 N   0  0  0  0  0  0  0  0  0  0  0  0
   26.3850   18.5940   14.6820 C   0  0  2  0  0  0  0  0  0  0  0  0
   26.1680   18.1860   16.1360 C   0  0  0  0  0  0  0  0  0  0  0  0
   27.0700   19.0260   17.0300 C   0  0  0  0  0  0  0  0  0  0  0  0
   26.8230   20.5030   16.8240 C   0  0  0  0  0  0  0  0  0  0  0  0
   27.0150   21.3290   17.7110 O   0  0  0  0  0  0  0  0  0  0  0  0
   26.4260   20.8910   15.5680 N   0  0  0  0  0  0  0  0  0  0  0  0
   26.0890   20.0870   14.5040 C   0  0  0  0  0  0  0  0  0  0  0  0
   25.6340   20.5760   13.4710 O   0  0  0  0  0  0  0  0  0  0  0  0
   24.4460   17.1770   14.0690 C   0  0  0  0  0  0  0  0  0  0  0  0
   23.8340   17.2060   15.1200 O   0  0  0  0  0  0  0  0  0  0  0  0
   23.3250   15.1400    7.9750 C   0  0  0  0  0  0  0  0  0  0  0  0
   20.1430   15.7340    4.9970 C   0  0  0  0  0  0  0  0  0  0  0  0
   19.1210   16.2790    5.6220 N   0  0  0  0  0  0  0  0  0  0  0  0
   18.9504   19.6134    8.5356 H   0  0  0  0  0  0  0  0  0  0  0  0
   19.8320   19.3891    6.9867 H   0  0  0  0  0  0  0  0  0  0  0  0
   18.0430   19.5504    6.9867 H   0  0  0  0  0  0  0  0  0  0  0  0
   19.0432   17.3605    8.7053 H   0  0  0  0  0  0  0  0  0  0  0  0
   17.7310   17.3780    7.4490 H   0  0  0  0  0  0  0  0  0  0  0  0
   21.7227   17.0805    7.5460 H   0  0  0  0  0  0  0  0  0  0  0  0
   23.2970   12.5548    5.7825 H   0  0  0  0  0  0  0  0  0  0  0  0
   24.1642   12.5017    9.8978 H   0  0  0  0  0  0  0  0  0  0  0  0
   21.9852   14.2860   11.2647 H   0  0  0  0  0  0  0  0  0  0  0  0
   22.1945   15.4272   13.4886 H   0  0  0  0  0  0  0  0  0  0  0  0
   25.6903   16.1328    9.9232 H   0  0  0  0  0  0  0  0  0  0  0  0
   27.4409   18.3727   14.4670 H   0  0  0  0  0  0  0  0  0  0  0  0
   25.1165   18.3535   16.4124 H   0  0  0  0  0  0  0  0  0  0  0  0
   26.4107   17.1205   16.2617 H   0  0  0  0  0  0  0  0  0  0  0  0
   26.8698   18.7721   18.0814 H   0  0  0  0  0  0  0  0  0  0  0  0
   28.1167   18.8088   16.7706 H   0  0  0  0  0  0  0  0  0  0  0  0
   26.3743   21.9063   15.4027 H   0  0  0  0  0  0  0  0  0  0  0  0
   23.1423   16.2240    8.0137 H   0  0  0  0  0  0  0  0  0  0  0  0
   20.0694   15.1412    4.0734 H   0  0  0  0  0  0  0  0  0  0  0  0
  1  2  1  0
  2  3  1  0
  3  4  2  0
  4  5  1  0
  5  6  1  0
  6  7  2  0
  6  8  2  0
  6  9  1  0
  9 10  2  0
 10 11  1  0
 11 12  2  0
 12 13  1  0
 13 14  1  0
 14 15  2  0
 15 16  1  0
 16 17  2  0
 17 18  1  0
 18 19  2  0
 18 20  1  0
 20 21  2  0
 20 22  1  0
 22 23  1  0
 23 24  1  0
 24 25  1  0
 25 26  1  0
 26 27  2  0
 26 28  1  0
 28 29  1  0
 29 30  2  0
 22 31  1  0
 31 32  2  0
 13 33  2  0
  5 34  1  0
 34 35  2  0
 35  3  1  0
 33  9  1  0
 19 14  1  0
 29 23  1  0
 31 17  1  0
  1 36  1  0
  1 37  1  0
  1 38  1  0
  2 39  1  0
  2 40  1  0
  4 41  1  0
 10 42  1  0
 12 43  1  0
 15 44  1  0
 16 45  1  0
 19 46  1  0
 23 47  1  6
 24 48  1  0
 24 49  1  0
 25 50  1  0
 25 51  1  0
 28 52  1  0
 33 53  1  0
 34 54  1  0
M  END
>  <meeko>  (570) 
{"is_sidechain": [true], "free_energy": -10.69, "intermolecular_energy": 0.0, "internal_energy": -10.69, "cluster_size": 19, "cluster_id": 1, "rank_in_cluster": 1}

>  <_RMSD_MCS_to_ref>  (570) 
1.1141607178783313

$$$$
ligand
     RDKit          3D

 48 51  0  0  0  0  0  0  0  0999 V2000
   18.9090   19.1540    7.5370 C   0  0  0  0  0  0  0  0  0  0  0  0
   18.7730   17.6460    7.6780 C   0  0  0  0  0  0  0  0  0  0  0  0
   20.0250   16.9320    7.3090 C   0  0  0  0  0  0  0  0  0  0  0  0
   20.9490   16.3160    8.1300 C   0  0  0  0  0  0  0  0  0  0  0  0
   21.8790   15.8090    7.2680 N   0  0  0  0  0  0  0  0  0  0  0  0
   23.3740   15.1870    7.7010 S   0  0  0  0  0  6  0  0  0  0  0  0
   24.3410   15.7700    6.7960 O   0  0  0  0  0  0  0  0  0  0  0  0
   23.1930   13.7590    7.8520 O   0  0  0  0  0  0  0  0  0  0  0  0
   23.8130   15.7700    9.2880 C   0  0  0  0  0  0  0  0  0  0  0  0
   24.8010   16.6330    9.7190 C   0  0  0  0  0  0  0  0  0  0  0  0
   24.7670   16.8030   11.0740 N   0  0  0  0  0  0  0  0  0  0  0  0
   23.7640   16.0570   11.4970 C   0  0  0  0  0  0  0  0  0  0  0  0
   23.2420   15.8380   12.8110 C   0  0  0  0  0  0  0  0  0  0  0  0
   23.8120   16.5010   14.0290 C   0  0  0  0  0  0  0  0  0  0  0  0
   23.8200   15.9470   15.1260 O   0  0  0  0  0  0  0  0  0  0  0  0
   24.3170   17.7610   13.8420 N   0  0  0  0  0  0  0  0  0  0  0  0
   24.8290   18.5650   14.9370 C   0  0  1  0  0  0  0  0  0  0  0  0
   25.9240   17.8330   15.7070 C   0  0  0  0  0  0  0  0  0  0  0  0
   26.4300   18.7160   16.8360 C   0  0  0  0  0  0  0  0  0  0  0  0
   26.9100   20.0490   16.3160 C   0  0  0  0  0  0  0  0  0  0  0  0
   27.8370   20.6640   16.8350 O   0  0  0  0  0  0  0  0  0  0  0  0
   26.2320   20.5700   15.2430 N   0  0  0  0  0  0  0  0  0  0  0  0
   25.3940   19.8830   14.3960 C   0  0  0  0  0  0  0  0  0  0  0  0
   25.1150   20.3380   13.2870 O   0  0  0  0  0  0  0  0  0  0  0  0
   22.1920   15.0030   12.9720 C   0  0  0  0  0  0  0  0  0  0  0  0
   21.5740   14.3230   11.8480 C   0  0  0  0  0  0  0  0  0  0  0  0
   22.0570   14.5330   10.6140 C   0  0  0  0  0  0  0  0  0  0  0  0
   23.1440   15.3940   10.4360 N   0  0  0  0  0  0  0  0  0  0  0  0
   21.5490   16.1640    5.9980 C   0  0  0  0  0  0  0  0  0  0  0  0
   20.4180   16.8360    5.9880 N   0  0  0  0  0  0  0  0  0  0  0  0
   18.9504   19.6134    8.5356 H   0  0  0  0  0  0  0  0  0  0  0  0
   19.8320   19.3891    6.9867 H   0  0  0  0  0  0  0  0  0  0  0  0
   18.0430   19.5504    6.9867 H   0  0  0  0  0  0  0  0  0  0  0  0
   18.5248   17.4089    8.7231 H   0  0  0  0  0  0  0  0  0  0  0  0
   17.9797   17.3129    6.9927 H   0  0  0  0  0  0  0  0  0  0  0  0
   20.9383   16.2490    9.2279 H   0  0  0  0  0  0  0  0  0  0  0  0
   25.5263   17.1233    9.0531 H   0  0  0  0  0  0  0  0  0  0  0  0
   24.3340   18.1522   12.8893 H   0  0  0  0  0  0  0  0  0  0  0  0
   23.9928   18.7629   15.6238 H   0  0  0  0  0  0  0  0  0  0  0  0
   25.5167   16.9008   16.1256 H   0  0  0  0  0  0  0  0  0  0  0  0
   26.7553   17.5982   15.0259 H   0  0  0  0  0  0  0  0  0  0  0  0
   25.6130   18.8842   17.5531 H   0  0  0  0  0  0  0  0  0  0  0  0
   27.2758   18.2078   17.3221 H   0  0  0  0  0  0  0  0  0  0  0  0
   26.3634   21.5738   15.0532 H   0  0  0  0  0  0  0  0  0  0  0  0
   21.7941   14.8336   13.9834 H   0  0  0  0  0  0  0  0  0  0  0  0
   20.7220   13.6453   12.0058 H   0  0  0  0  0  0  0  0  0  0  0  0
   21.6007   14.0310    9.7481 H   0  0  0  0  0  0  0  0  0  0  0  0
   22.1438   15.9233    5.1045 H   0  0  0  0  0  0  0  0  0  0  0  0
  1  2  1  0
  2  3  1  0
  3  4  2  0
  4  5  1  0
  5  6  1  0
  6  7  2  0
  6  8  2  0
  6  9  1  0
  9 10  2  0
 10 11  1  0
 11 12  2  0
 12 13  1  0
 13 14  1  0
 14 15  2  0
 14 16  1  0
 16 17  1  0
 17 18  1  0
 18 19  1  0
 19 20  1  0
 20 21  2  0
 20 22  1  0
 22 23  1  0
 23 24  2  0
 13 25  2  0
 25 26  1  0
 26 27  2  0
 27 28  1  0
  5 29  1  0
 29 30  2  0
 30  3  1  0
 28  9  1  0
 28 12  1  0
 23 17  1  0
  1 31  1  0
  1 32  1  0
  1 33  1  0
  2 34  1  0
  2 35  1  0
  4 36  1  0
 10 37  1  0
 16 38  1  0
 17 39  1  1
 18 40  1  0
 18 41  1  0
 19 42  1  0
 19 43  1  0
 22 44  1  0
 25 45  1  0
 26 46  1  0
 27 47  1  0
 29 48  1  0
M  END
>  <meeko>  (571) 
{"is_sidechain": [true], "free_energy": -10.69, "intermolecular_energy": 0.0, "internal_energy": -10.69, "cluster_size": 11, "cluster_id": 1, "rank_in_cluster": 1}

>  <_RMSD_MCS_to_ref>  (571) 
0.3812912272790965

$$$$
ligand
     RDKit          3D

 47 50  0  0  0  0  0  0  0  0999 V2000
   18.9090   19.1540    7.5370 C   0  0  0  0  0  0  0  0  0  0  0  0
   18.7730   17.6460    7.6780 C   0  0  0  0  0  0  0  0  0  0  0  0
   20.0540   16.9380    7.4070 C   0  0  0  0  0  0  0  0  0  0  0  0
   21.0330   16.5410    8.2970 C   0  0  0  0  0  0  0  0  0  0  0  0
   21.9860   15.9600    7.5100 N   0  0  0  0  0  0  0  0  0  0  0  0
   23.2710   15.0080    8.0580 S   0  0  0  0  0  6  0  0  0  0  0  0
   22.7150   13.6690    8.1170 O   0  0  0  0  0  0  0  0  0  0  0  0
   24.3600   15.3100    7.1470 O   0  0  0  0  0  0  0  0  0  0  0  0
   23.6520   15.5710    9.6520 C   0  0  0  0  0  0  0  0  0  0  0  0
   24.7970   16.2590    9.8410 C   0  0  0  0  0  0  0  0  0  0  0  0
   25.1450   16.7110   11.1800 C   0  0  0  0  0  0  0  0  0  0  0  0
   24.3590   16.4470   12.2480 C   0  0  0  0  0  0  0  0  0  0  0  0
   24.7970   16.9460   13.5900 C   0  0  0  0  0  0  0  0  0  0  0  0
   25.0640   16.1720   14.5060 O   0  0  0  0  0  0  0  0  0  0  0  0
   24.8750   18.3060   13.7330 N   0  0  0  0  0  0  0  0  0  0  0  0
   25.2410   18.9310   14.9940 C   0  0  1  0  0  0  0  0  0  0  0  0
   26.3590   18.1650   15.6920 C   0  0  0  0  0  0  0  0  0  0  0  0
   26.7130   18.8570   16.9980 C   0  0  0  0  0  0  0  0  0  0  0  0
   27.0860   20.3030   16.7690 C   0  0  0  0  0  0  0  0  0  0  0  0
   27.9060   20.8900   17.4700 O   0  0  0  0  0  0  0  0  0  0  0  0
   26.4300   20.9530   15.7540 N   0  0  0  0  0  0  0  0  0  0  0  0
   25.6930   20.3760   14.7490 C   0  0  0  0  0  0  0  0  0  0  0  0
   25.4010   21.0120   13.7380 O   0  0  0  0  0  0  0  0  0  0  0  0
   23.1510   15.7180   12.0470 C   0  0  0  0  0  0  0  0  0  0  0  0
   22.2120   15.3160   12.8770 N   0  0  0  0  0  0  0  0  0  0  0  0
   21.2560   14.6620   12.1500 N   0  0  0  0  0  0  0  0  0  0  0  0
   21.6250   14.6790   10.8900 C   0  0  0  0  0  0  0  0  0  0  0  0
   22.8310   15.3150   10.7510 N   0  0  0  0  0  0  0  0  0  0  0  0
   21.5640   15.9710    6.2190 C   0  0  0  0  0  0  0  0  0  0  0  0
   20.3940   16.5650    6.1210 N   0  0  0  0  0  0  0  0  0  0  0  0
   18.9504   19.6134    8.5356 H   0  0  0  0  0  0  0  0  0  0  0  0
   19.8320   19.3891    6.9867 H   0  0  0  0  0  0  0  0  0  0  0  0
   18.0430   19.5504    6.9867 H   0  0  0  0  0  0  0  0  0  0  0  0
   18.4500   17.4138    8.7036 H   0  0  0  0  0  0  0  0  0  0  0  0
   18.0346   17.3030    6.9383 H   0  0  0  0  0  0  0  0  0  0  0  0
   21.0428   16.6646    9.3900 H   0  0  0  0  0  0  0  0  0  0  0  0
   25.4611   16.4762    8.9914 H   0  0  0  0  0  0  0  0  0  0  0  0
   26.0729   17.2831   11.3271 H   0  0  0  0  0  0  0  0  0  0  0  0
   24.6678   18.9053   12.9213 H   0  0  0  0  0  0  0  0  0  0  0  0
   24.3538   18.9197   15.6442 H   0  0  0  0  0  0  0  0  0  0  0  0
   26.0243   17.1382   15.9008 H   0  0  0  0  0  0  0  0  0  0  0  0
   27.2452   18.1382   15.0409 H   0  0  0  0  0  0  0  0  0  0  0  0
   25.8458   18.8132   17.6733 H   0  0  0  0  0  0  0  0  0  0  0  0
   27.5776   18.3412   17.4412 H   0  0  0  0  0  0  0  0  0  0  0  0
   26.4974   21.9808   15.7449 H   0  0  0  0  0  0  0  0  0  0  0  0
   21.0469   14.2436   10.0616 H   0  0  0  0  0  0  0  0  0  0  0  0
   22.1224   15.5431    5.3734 H   0  0  0  0  0  0  0  0  0  0  0  0
  1  2  1  0
  2  3  1  0
  3  4  2  0
  4  5  1  0
  5  6  1  0
  6  7  2  0
  6  8  2  0
  6  9  1  0
  9 10  2  0
 10 11  1  0
 11 12  2  0
 12 13  1  0
 13 14  2  0
 13 15  1  0
 15 16  1  0
 16 17  1  0
 17 18  1  0
 18 19  1  0
 19 20  2  0
 19 21  1  0
 21 22  1  0
 22 23  2  0
 12 24  1  0
 24 25  2  0
 25 26  1  0
 26 27  2  0
 27 28  1  0
  5 29  1  0
 29 30  2  0
 30  3  1  0
 28  9  1  0
 22 16  1  0
 28 24  1  0
  1 31  1  0
  1 32  1  0
  1 33  1  0
  2 34  1  0
  2 35  1  0
  4 36  1  0
 10 37  1  0
 11 38  1  0
 15 39  1  0
 16 40  1  1
 17 41  1  0
 17 42  1  0
 18 43  1  0
 18 44  1  0
 21 45  1  0
 27 46  1  0
 29 47  1  0
M  END
>  <meeko>  (572) 
{"is_sidechain": [true], "free_energy": -10.69, "intermolecular_energy": 0.0, "internal_energy": -10.69, "cluster_size": 16, "cluster_id": 1, "rank_in_cluster": 1}

>  <_RMSD_MCS_to_ref>  (572) 
0.799332846816644

$$$$
ligand
     RDKit          3D

 50 53  0  0  0  0  0  0  0  0999 V2000
   18.9090   19.1540    7.5370 C   0  0  0  0  0  0  0  0  0  0  0  0
   18.7730   17.6460    7.6780 C   0  0  0  0  0  0  0  0  0  0  0  0
   20.0450   16.9360    7.3760 C   0  0  0  0  0  0  0  0  0  0  0  0
   20.9460   16.3610    8.2500 C   0  0  0  0  0  0  0  0  0  0  0  0
   21.9200   15.8500    7.4370 N   0  0  0  0  0  0  0  0  0  0  0  0
   23.2820   15.0120    7.9470 S   0  0  0  0  0  6  0  0  0  0  0  0
   24.3760   15.3920    7.0750 O   0  0  0  0  0  0  0  0  0  0  0  0
   22.8310   13.6320    8.0320 O   0  0  0  0  0  0  0  0  0  0  0  0
   23.6670   15.5400    9.5910 C   0  0  0  0  0  0  0  0  0  0  0  0
   24.7770   16.3830    9.7530 C   0  0  0  0  0  0  0  0  0  0  0  0
   25.1240   16.8200   11.0230 C   0  0  0  0  0  0  0  0  0  0  0  0
   24.3570   16.4200   12.1230 C   0  0  0  0  0  0  0  0  0  0  0  0
   24.7890   16.8940   13.4650 C   0  0  0  0  0  0  0  0  0  0  0  0
   24.9010   16.1190   14.4040 O   0  0  0  0  0  0  0  0  0  0  0  0
   25.0410   18.2440   13.5570 N   0  0  0  0  0  0  0  0  0  0  0  0
   25.3250   18.8730   14.8400 C   0  0  1  0  0  0  0  0  0  0  0  0
   26.4150   18.1410   15.6150 C   0  0  0  0  0  0  0  0  0  0  0  0
   26.6870   18.8720   16.9200 C   0  0  0  0  0  0  0  0  0  0  0  0
   27.0460   20.3190   16.6740 C   0  0  0  0  0  0  0  0  0  0  0  0
   27.8460   20.9280   17.3770 O   0  0  0  0  0  0  0  0  0  0  0  0
   26.4080   20.9410   15.6320 N   0  0  0  0  0  0  0  0  0  0  0  0
   25.7780   20.3140   14.5860 C   0  0  0  0  0  0  0  0  0  0  0  0
   25.5860   20.8920   13.5170 O   0  0  0  0  0  0  0  0  0  0  0  0
   23.2290   15.5690   11.9590 C   0  0  0  0  0  0  0  0  0  0  0  0
   22.4020   15.1370   13.0220 C   0  0  0  0  0  0  0  0  0  0  0  0
   21.3080   14.3130   12.7920 C   0  0  0  0  0  0  0  0  0  0  0  0
   21.0530   13.9430   11.4940 C   0  0  0  0  0  0  0  0  0  0  0  0
   21.8080   14.3400   10.4490 N   0  0  0  0  0  0  0  0  0  0  0  0
   22.8770   15.1300   10.6590 C   0  0  0  0  0  0  0  0  0  0  0  0
   21.6000   16.1080    6.1430 C   0  0  0  0  0  0  0  0  0  0  0  0
   20.4640   16.7710    6.0700 N   0  0  0  0  0  0  0  0  0  0  0  0
   18.9504   19.6134    8.5356 H   0  0  0  0  0  0  0  0  0  0  0  0
   19.8320   19.3891    6.9867 H   0  0  0  0  0  0  0  0  0  0  0  0
   18.0430   19.5504    6.9867 H   0  0  0  0  0  0  0  0  0  0  0  0
   18.4735   17.4124    8.7103 H   0  0  0  0  0  0  0  0  0  0  0  0
   18.0169   17.3062    6.9549 H   0  0  0  0  0  0  0  0  0  0  0  0
   20.8927   16.3227    9.3480 H   0  0  0  0  0  0  0  0  0  0  0  0
   25.3678   16.6951    8.8792 H   0  0  0  0  0  0  0  0  0  0  0  0
   25.9956   17.4761   11.1644 H   0  0  0  0  0  0  0  0  0  0  0  0
   25.0286   18.8200   12.7032 H   0  0  0  0  0  0  0  0  0  0  0  0
   24.4072   18.8405   15.4455 H   0  0  0  0  0  0  0  0  0  0  0  0
   26.0844   17.1145   15.8318 H   0  0  0  0  0  0  0  0  0  0  0  0
   27.3352   18.1105   15.0132 H   0  0  0  0  0  0  0  0  0  0  0  0
   25.7861   18.8283   17.5497 H   0  0  0  0  0  0  0  0  0  0  0  0
   27.5360   18.3839   17.4210 H   0  0  0  0  0  0  0  0  0  0  0  0
   26.4008   21.9710   15.6343 H   0  0  0  0  0  0  0  0  0  0  0  0
   22.6293   15.4593   14.0489 H   0  0  0  0  0  0  0  0  0  0  0  0
   20.6692   13.9693   13.6189 H   0  0  0  0  0  0  0  0  0  0  0  0
   20.1899   13.2902   11.2968 H   0  0  0  0  0  0  0  0  0  0  0  0
   22.2054   15.8054    5.2758 H   0  0  0  0  0  0  0  0  0  0  0  0
  1  2  1  0
  2  3  1  0
  3  4  2  0
  4  5  1  0
  5  6  1  0
  6  7  2  0
  6  8  2  0
  6  9  1  0
  9 10  2  0
 10 11  1  0
 11 12  2  0
 12 13  1  0
 13 14  2  0
 13 15  1  0
 15 16  1  0
 16 17  1  0
 17 18  1  0
 18 19  1  0
 19 20  2  0
 19 21  1  0
 21 22  1  0
 22 23  2  0
 12 24  1  0
 24 25  2  0
 25 26  1  0
 26 27  2  0
 27 28  1  0
 28 29  2  0
  5 30  1  0
 30 31  2  0
 31  3  1  0
 29  9  1  0
 22 16  1  0
 29 24  1  0
  1 32  1  0
  1 33  1  0
  1 34  1  0
  2 35  1  0
  2 36  1  0
  4 37  1  0
 10 38  1  0
 11 39  1  0
 15 40  1  0
 16 41  1  1
 17 42  1  0
 17 43  1  0
 18 44  1  0
 18 45  1  0
 21 46  1  0
 25 47  1  0
 26 48  1  0
 27 49  1  0
 30 50  1  0
M  END
>  <meeko>  (573) 
{"is_sidechain": [true], "free_energy": -10.69, "intermolecular_energy": 0.0, "internal_energy": -10.69, "cluster_size": 12, "cluster_id": 1, "rank_in_cluster": 1}

>  <_RMSD_MCS_to_ref>  (573) 
0.7699071372574743

$$$$
ligand
     RDKit          3D

 52 55  0  0  0  0  0  0  0  0999 V2000
   18.9090   19.1540    7.5370 C   0  0  0  0  0  0  0  0  0  0  0  0
   18.7730   17.6460    7.6780 C   0  0  0  0  0  0  0  0  0  0  0  0
   20.0950   16.9640    7.7220 C   0  0  0  0  0  0  0  0  0  0  0  0
   20.9210   16.7400    8.8060 C   0  0  0  0  0  0  0  0  0  0  0  0
   21.9850   16.0620    8.2810 N   0  0  0  0  0  0  0  0  0  0  0  0
   23.3820   15.6430    9.1150 S   0  0  0  0  0  6  0  0  0  0  0  0
   24.3130   16.7440    8.9460 O   0  0  0  0  0  0  0  0  0  0  0  0
   23.6920   14.3050    8.6390 O   0  0  0  0  0  0  0  0  0  0  0  0
   22.8600   15.5590   10.8120 C   0  0  0  0  0  0  0  0  0  0  0  0
   23.4430   16.5050   11.5970 N   0  0  0  0  0  0  0  0  0  0  0  0
   23.1020   16.4790   12.9100 C   0  0  0  0  0  0  0  0  0  0  0  0
   23.7750   17.4950   13.7820 C   0  0  0  0  0  0  0  0  0  0  0  0
   23.2200   17.9680   14.7660 O   0  0  0  0  0  0  0  0  0  0  0  0
   25.0590   17.8180   13.3850 N   0  0  0  0  0  0  0  0  0  0  0  0
   25.9800   18.4600   14.3050 C   0  0  2  0  0  0  0  0  0  0  0  0
   25.7350   17.9910   15.7330 C   0  0  0  0  0  0  0  0  0  0  0  0
   26.7140   18.6840   16.6690 C   0  0  0  0  0  0  0  0  0  0  0  0
   26.6230   20.1860   16.5430 C   0  0  0  0  0  0  0  0  0  0  0  0
   26.7970   20.9380   17.4990 O   0  0  0  0  0  0  0  0  0  0  0  0
   26.3630   20.6850   15.2920 N   0  0  0  0  0  0  0  0  0  0  0  0
   25.8040   19.9860   14.2470 C   0  0  0  0  0  0  0  0  0  0  0  0
   25.2150   20.5790   13.3440 O   0  0  0  0  0  0  0  0  0  0  0  0
   22.2100   15.5650   13.4570 C   0  0  0  0  0  0  0  0  0  0  0  0
   21.6190   14.6130   12.6140 C   0  0  0  0  0  0  0  0  0  0  0  0
   21.9650   14.5930   11.2580 C   0  0  0  0  0  0  0  0  0  0  0  0
   21.4410   13.6980   10.3760 O   0  0  0  0  0  0  0  0  0  0  0  0
   20.8130   12.5500   10.9590 C   0  0  0  0  0  0  0  0  0  0  0  0
   19.8600   12.9390   12.0740 C   0  0  0  0  0  0  0  0  0  0  0  0
   20.6540   13.6120   13.1850 C   0  0  0  0  0  0  0  0  0  0  0  0
   21.8000   15.9090    6.9450 C   0  0  0  0  0  0  0  0  0  0  0  0
   20.6610   16.4530    6.5700 N   0  0  0  0  0  0  0  0  0  0  0  0
   18.9504   19.6134    8.5356 H   0  0  0  0  0  0  0  0  0  0  0  0
   19.8320   19.3891    6.9867 H   0  0  0  0  0  0  0  0  0  0  0  0
   18.0430   19.5504    6.9867 H   0  0  0  0  0  0  0  0  0  0  0  0
   18.2291   17.4248    8.6082 H   0  0  0  0  0  0  0  0  0  0  0  0
   18.2293   17.2722    6.7978 H   0  0  0  0  0  0  0  0  0  0  0  0
   20.7594   17.0389    9.8522 H   0  0  0  0  0  0  0  0  0  0  0  0
   25.3655   17.6008   12.4260 H   0  0  0  0  0  0  0  0  0  0  0  0
   27.0029   18.1875   14.0058 H   0  0  0  0  0  0  0  0  0  0  0  0
   24.7054   18.2402   16.0293 H   0  0  0  0  0  0  0  0  0  0  0  0
   25.8798   16.9021   15.7914 H   0  0  0  0  0  0  0  0  0  0  0  0
   26.4835   18.3966   17.7055 H   0  0  0  0  0  0  0  0  0  0  0  0
   27.7337   18.3737   16.3970 H   0  0  0  0  0  0  0  0  0  0  0  0
   26.6080   21.6705   15.1196 H   0  0  0  0  0  0  0  0  0  0  0  0
   21.9720   15.5877   14.5307 H   0  0  0  0  0  0  0  0  0  0  0  0
   20.2504   12.0164   10.1788 H   0  0  0  0  0  0  0  0  0  0  0  0
   21.5981   11.9088   11.3862 H   0  0  0  0  0  0  0  0  0  0  0  0
   19.1024   13.6360   11.6865 H   0  0  0  0  0  0  0  0  0  0  0  0
   19.3560   12.0428   12.4648 H   0  0  0  0  0  0  0  0  0  0  0  0
   19.9593   14.1268   13.8650 H   0  0  0  0  0  0  0  0  0  0  0  0
   21.2215   12.8438   13.7307 H   0  0  0  0  0  0  0  0  0  0  0  0
   22.5039   15.4010    6.2694 H   0  0  0  0  0  0  0  0  0  0  0  0
  1  2  1  0
  2  3  1  0
  3  4  2  0
  4  5  1  0
  5  6  1  0
  6  7  2  0
  6  8  2  0
  6  9  1  0
  9 10  2  0
 10 11  1  0
 11 12  1  0
 12 13  2  0
 12 14  1  0
 14 15  1  0
 15 16  1  0
 16 17  1  0
 17 18  1  0
 18 19  2  0
 18 20  1  0
 20 21  1  0
 21 22  2  0
 11 23  2  0
 23 24  1  0
 24 25  2  0
 25 26  1  0
 26 27  1  0
 27 28  1  0
 28 29  1  0
  5 30  1  0
 30 31  2  0
 31  3  1  0
 25  9  1  0
 21 15  1  0
 29 24  1  0
  1 32  1  0
  1 33  1  0
  1 34  1  0
  2 35  1  0
  2 36  1  0
  4 37  1  0
 14 38  1  0
 15 39  1  6
 16 40  1  0
 16 41  1  0
 17 42  1  0
 17 43  1  0
 20 44  1  0
 23 45  1  0
 27 46  1  0
 27 47  1  0
 28 48  1  0
 28 49  1  0
 29 50  1  0
 29 51  1  0
 30 52  1  0
M  END
>  <meeko>  (574) 
{"is_sidechain": [true], "free_energy": -10.69, "intermolecular_energy": 0.0, "internal_energy": -10.69, "cluster_size": 20, "cluster_id": 1, "rank_in_cluster": 1}

>  <_RMSD_MCS_to_ref>  (574) 
0.6560268456566561

$$$$
ligand
     RDKit          3D

 46 49  0  0  0  0  0  0  0  0999 V2000
   18.9090   19.1540    7.5370 C   0  0  0  0  0  0  0  0  0  0  0  0
   18.7730   17.6460    7.6780 C   0  0  0  0  0  0  0  0  0  0  0  0
   20.0920   16.9560    7.6350 C   0  0  0  0  0  0  0  0  0  0  0  0
   21.0240   16.8010    8.6420 C   0  0  0  0  0  0  0  0  0  0  0  0
   22.0240   16.0740    8.0630 N   0  0  0  0  0  0  0  0  0  0  0  0
   23.5070   15.6970    8.7620 S   0  0  0  0  0  6  0  0  0  0  0  0
   23.7980   14.3510    8.2970 O   0  0  0  0  0  0  0  0  0  0  0  0
   24.3690   16.8280    8.4670 O   0  0  0  0  0  0  0  0  0  0  0  0
   23.1690   15.6570   10.5090 C   0  0  0  0  0  0  0  0  0  0  0  0
   23.9560   16.4390   11.2630 N   0  0  0  0  0  0  0  0  0  0  0  0
   23.7340   16.4190   12.6050 C   0  0  0  0  0  0  0  0  0  0  0  0
   24.6200   17.2930   13.4310 C   0  0  0  0  0  0  0  0  0  0  0  0
   25.8310   17.3550   13.2700 O   0  0  0  0  0  0  0  0  0  0  0  0
   23.9620   18.0180   14.4010 N   0  0  0  0  0  0  0  0  0  0  0  0
   24.6680   18.8110   15.3930 C   0  0  1  0  0  0  0  0  0  0  0  0
   25.7070   17.9890   16.1460 C   0  0  0  0  0  0  0  0  0  0  0  0
   26.4270   18.8760   17.1490 C   0  0  0  0  0  0  0  0  0  0  0  0
   27.0440   20.0790   16.4750 C   0  0  0  0  0  0  0  0  0  0  0  0
   28.0920   20.5860   16.8640 O   0  0  0  0  0  0  0  0  0  0  0  0
   26.3560   20.6090   15.4130 N   0  0  0  0  0  0  0  0  0  0  0  0
   25.3660   19.9840   14.6950 C   0  0  0  0  0  0  0  0  0  0  0  0
   25.0610   20.3710   13.5680 O   0  0  0  0  0  0  0  0  0  0  0  0
   22.7260   15.6100   13.1290 C   0  0  0  0  0  0  0  0  0  0  0  0
   22.1850   15.3470   14.7440 S   0  0  0  0  0  0  0  0  0  0  0  0
   20.9830   14.2390   14.2550 C   0  0  0  0  0  0  0  0  0  0  0  0
   20.9790   14.0580   12.8930 C   0  0  0  0  0  0  0  0  0  0  0  0
   21.9740   14.8400   12.2370 C   0  0  0  0  0  0  0  0  0  0  0  0
   22.1810   14.8430   10.8980 N   0  0  0  0  0  0  0  0  0  0  0  0
   21.7120   15.8460    6.7610 C   0  0  0  0  0  0  0  0  0  0  0  0
   20.5370   16.3630    6.4700 N   0  0  0  0  0  0  0  0  0  0  0  0
   18.9504   19.6134    8.5356 H   0  0  0  0  0  0  0  0  0  0  0  0
   19.8320   19.3891    6.9867 H   0  0  0  0  0  0  0  0  0  0  0  0
   18.0430   19.5504    6.9867 H   0  0  0  0  0  0  0  0  0  0  0  0
   18.2874   17.4224    8.6393 H   0  0  0  0  0  0  0  0  0  0  0  0
   18.1728   17.2804    6.8318 H   0  0  0  0  0  0  0  0  0  0  0  0
   20.9725   17.1772    9.6744 H   0  0  0  0  0  0  0  0  0  0  0  0
   22.9325   17.9969   14.4236 H   0  0  0  0  0  0  0  0  0  0  0  0
   23.9296   19.1739   16.1231 H   0  0  0  0  0  0  0  0  0  0  0  0
   25.2077   17.1654   16.6774 H   0  0  0  0  0  0  0  0  0  0  0  0
   26.4356   17.5773   15.4321 H   0  0  0  0  0  0  0  0  0  0  0  0
   25.7061   19.2197   17.9055 H   0  0  0  0  0  0  0  0  0  0  0  0
   27.2317   18.2893   17.6161 H   0  0  0  0  0  0  0  0  0  0  0  0
   26.6056   21.5665   15.1270 H   0  0  0  0  0  0  0  0  0  0  0  0
   20.2946   13.7311   14.9465 H   0  0  0  0  0  0  0  0  0  0  0  0
   20.2855   13.3849   12.3676 H   0  0  0  0  0  0  0  0  0  0  0  0
   22.3521   15.3047    6.0488 H   0  0  0  0  0  0  0  0  0  0  0  0
  1  2  1  0
  2  3  1  0
  3  4  2  0
  4  5  1  0
  5  6  1  0
  6  7  2  0
  6  8  2  0
  6  9  1  0
  9 10  2  0
 10 11  1  0
 11 12  1  0
 12 13  2  0
 12 14  1  0
 14 15  1  0
 15 16  1  0
 16 17  1  0
 17 18  1  0
 18 19  2  0
 18 20  1  0
 20 21  1  0
 21 22  2  0
 11 23  2  0
 23 24  1  0
 24 25  1  0
 25 26  2  0
 26 27  1  0
 27 28  2  0
  5 29  1  0
 29 30  2  0
 30  3  1  0
 28  9  1  0
 21 15  1  0
 27 23  1  0
  1 31  1  0
  1 32  1  0
  1 33  1  0
  2 34  1  0
  2 35  1  0
  4 36  1  0
 14 37  1  0
 15 38  1  1
 16 39  1  0
 16 40  1  0
 17 41  1  0
 17 42  1  0
 20 43  1  0
 25 44  1  0
 26 45  1  0
 29 46  1  0
M  END
>  <meeko>  (575) 
{"is_sidechain": [true], "free_energy": -10.69, "intermolecular_energy": 0.0, "internal_energy": -10.69, "cluster_size": 19, "cluster_id": 1, "rank_in_cluster": 1}

>  <_RMSD_MCS_to_ref>  (575) 
0.6827113429391506

$$$$
ligand
     RDKit          3D

 50 53  0  0  0  0  0  0  0  0999 V2000
   18.9090   19.1540    7.5370 C   0  0  0  0  0  0  0  0  0  0  0  0
   18.7730   17.6460    7.6780 C   0  0  0  0  0  0  0  0  0  0  0  0
   20.0840   16.9500    7.5720 C   0  0  0  0  0  0  0  0  0  0  0  0
   21.0810   16.8250    8.5200 C   0  0  0  0  0  0  0  0  0  0  0  0
   22.0560   16.1050    7.8860 N   0  0  0  0  0  0  0  0  0  0  0  0
   23.4140   15.4510    8.6270 S   0  0  0  0  0  6  0  0  0  0  0  0
   23.5210   14.1280    8.0330 O   0  0  0  0  0  0  0  0  0  0  0  0
   24.5050   16.3970    8.5180 O   0  0  0  0  0  0  0  0  0  0  0  0
   23.0300   15.2210   10.3500 C   0  0  0  0  0  0  0  0  0  0  0  0
   23.9550   15.7550   11.2740 C   0  0  0  0  0  0  0  0  0  0  0  0
   23.7070   15.6970   12.6490 C   0  0  0  0  0  0  0  0  0  0  0  0
   24.6540   16.2530   13.6550 C   0  0  0  0  0  0  0  0  0  0  0  0
   25.2310   15.5060   14.4340 O   0  0  0  0  0  0  0  0  0  0  0  0
   24.8590   17.6140   13.6270 N   0  0  0  0  0  0  0  0  0  0  0  0
   25.8700   18.2370   14.4720 C   0  0  2  0  0  0  0  0  0  0  0  0
   25.6560   17.9290   15.9490 C   0  0  0  0  0  0  0  0  0  0  0  0
   26.7150   18.6430   16.7740 C   0  0  0  0  0  0  0  0  0  0  0  0
   26.7130   20.1300   16.5030 C   0  0  0  0  0  0  0  0  0  0  0  0
   26.9920   20.9570   17.3660 O   0  0  0  0  0  0  0  0  0  0  0  0
   26.4140   20.5220   15.2220 N   0  0  0  0  0  0  0  0  0  0  0  0
   25.8070   19.7530   14.2610 C   0  0  0  0  0  0  0  0  0  0  0  0
   25.2610   20.2630   13.2830 O   0  0  0  0  0  0  0  0  0  0  0  0
   22.5090   15.1440   13.1020 C   0  0  0  0  0  0  0  0  0  0  0  0
   21.5860   14.6260   12.1910 C   0  0  0  0  0  0  0  0  0  0  0  0
   20.4330   14.1210   12.7480 O   0  0  0  0  0  0  0  0  0  0  0  0
   19.4560   13.6720   11.9010 C   0  0  0  0  0  0  0  0  0  0  0  0
   19.5540   13.6000   10.5750 C   0  0  0  0  0  0  0  0  0  0  0  0
   20.8120   14.0230    9.9450 C   0  0  0  0  0  0  0  0  0  0  0  0
   20.9930   13.8180    8.7560 O   0  0  0  0  0  0  0  0  0  0  0  0
   21.8390   14.6410   10.8100 C   0  0  0  0  0  0  0  0  0  0  0  0
   21.6160   15.7560    6.6500 C   0  0  0  0  0  0  0  0  0  0  0  0
   20.4280   16.2800    6.4170 N   0  0  0  0  0  0  0  0  0  0  0  0
   18.9504   19.6134    8.5356 H   0  0  0  0  0  0  0  0  0  0  0  0
   19.8320   19.3891    6.9867 H   0  0  0  0  0  0  0  0  0  0  0  0
   18.0430   19.5504    6.9867 H   0  0  0  0  0  0  0  0  0  0  0  0
   18.3309   17.4206    8.6597 H   0  0  0  0  0  0  0  0  0  0  0  0
   18.1333   17.2870    6.8583 H   0  0  0  0  0  0  0  0  0  0  0  0
   21.0890   17.2149    9.5485 H   0  0  0  0  0  0  0  0  0  0  0  0
   24.8812   16.2219   10.9079 H   0  0  0  0  0  0  0  0  0  0  0  0
   24.2898   18.2004   13.0000 H   0  0  0  0  0  0  0  0  0  0  0  0
   26.8531   17.8326   14.1892 H   0  0  0  0  0  0  0  0  0  0  0  0
   24.6577   18.2752   16.2549 H   0  0  0  0  0  0  0  0  0  0  0  0
   25.7337   16.8440   16.1124 H   0  0  0  0  0  0  0  0  0  0  0  0
   26.5120   18.4732   17.8417 H   0  0  0  0  0  0  0  0  0  0  0  0
   27.7005   18.2411   16.4962 H   0  0  0  0  0  0  0  0  0  0  0  0
   26.6693   21.4840   14.9570 H   0  0  0  0  0  0  0  0  0  0  0  0
   22.2908   15.1159   14.1798 H   0  0  0  0  0  0  0  0  0  0  0  0
   18.5094   13.3426   12.3543 H   0  0  0  0  0  0  0  0  0  0  0  0
   18.7142   13.2331    9.9666 H   0  0  0  0  0  0  0  0  0  0  0  0
   22.1724   15.1245    5.9417 H   0  0  0  0  0  0  0  0  0  0  0  0
  1  2  1  0
  2  3  1  0
  3  4  2  0
  4  5  1  0
  5  6  1  0
  6  7  2  0
  6  8  2  0
  6  9  1  0
  9 10  2  0
 10 11  1  0
 11 12  1  0
 12 13  2  0
 12 14  1  0
 14 15  1  0
 15 16  1  0
 16 17  1  0
 17 18  1  0
 18 19  2  0
 18 20  1  0
 20 21  1  0
 21 22  2  0
 11 23  2  0
 23 24  1  0
 24 25  1  0
 25 26  1  0
 26 27  2  0
 27 28  1  0
 28 29  2  0
 28 30  1  0
  5 31  1  0
 31 32  2  0
 32  3  1  0
 30  9  1  0
 21 15  1  0
 30 24  2  0
  1 33  1  0
  1 34  1  0
  1 35  1  0
  2 36  1  0
  2 37  1  0
  4 38  1  0
 10 39  1  0
 14 40  1  0
 15 41  1  6
 16 42  1  0
 16 43  1  0
 17 44  1  0
 17 45  1  0
 20 46  1  0
 23 47  1  0
 26 48  1  0
 27 49  1  0
 31 50  1  0
M  END
>  <meeko>  (576) 
{"is_sidechain": [true], "free_energy": -10.69, "intermolecular_energy": 0.0, "internal_energy": -10.69, "cluster_size": 15, "cluster_id": 1, "rank_in_cluster": 1}

>  <_RMSD_MCS_to_ref>  (576) 
0.5733349806177886

$$$$
ligand
     RDKit          3D

 45 48  0  0  0  0  0  0  0  0999 V2000
   18.9090   19.1540    7.5370 C   0  0  0  0  0  0  0  0  0  0  0  0
   18.7730   17.6460    7.6780 C   0  0  0  0  0  0  0  0  0  0  0  0
   20.0330   17.0130    8.1530 C   0  0  0  0  0  0  0  0  0  0  0  0
   21.2690   16.9740    7.5370 C   0  0  0  0  0  0  0  0  0  0  0  0
   22.0630   16.3100    8.4290 N   0  0  0  0  0  0  0  0  0  0  0  0
   23.6330   15.7770    8.1320 S   0  0  0  0  0  6  0  0  0  0  0  0
   23.5210   14.6790    7.1880 O   0  0  0  0  0  0  0  0  0  0  0  0
   24.3290   16.9940    7.7470 O   0  0  0  0  0  0  0  0  0  0  0  0
   24.2970   15.2680    9.5380 O   0  0  0  0  0  0  0  0  0  0  0  0
   24.9850   16.1470   10.3510 C   0  0  0  0  0  0  0  0  0  0  0  0
   26.1930   16.6520    9.8600 C   0  0  0  0  0  0  0  0  0  0  0  0
   26.9390   17.5630   10.6120 C   0  0  0  0  0  0  0  0  0  0  0  0
   26.4990   18.0040   11.8670 C   0  0  0  0  0  0  0  0  0  0  0  0
   25.2740   17.5070   12.3320 C   0  0  0  0  0  0  0  0  0  0  0  0
   24.5110   16.6010   11.5950 C   0  0  0  0  0  0  0  0  0  0  0  0
   23.3460   16.2960   12.2480 N   0  0  0  0  0  0  0  0  0  0  0  0
   23.3820   16.9790   13.3670 C   0  0  0  0  0  0  0  0  0  0  0  0
   24.5330   17.7150   13.4740 N   0  0  0  0  0  0  0  0  0  0  0  0
   24.8870   18.5120   14.6430 C   0  0  1  0  0  0  0  0  0  0  0  0
   26.0000   17.8480   15.4590 C   0  0  0  0  0  0  0  0  0  0  0  0
   26.3290   18.7030   16.6720 C   0  0  0  0  0  0  0  0  0  0  0  0
   26.7130   20.1040   16.2620 C   0  0  0  0  0  0  0  0  0  0  0  0
   27.4080   20.8280   16.9660 O   0  0  0  0  0  0  0  0  0  0  0  0
   26.1760   20.5650   15.0860 N   0  0  0  0  0  0  0  0  0  0  0  0
   25.2420   19.9470   14.2840 C   0  0  0  0  0  0  0  0  0  0  0  0
   24.6990   20.5780   13.3800 O   0  0  0  0  0  0  0  0  0  0  0  0
   21.3040   15.8920    9.4740 C   0  0  0  0  0  0  0  0  0  0  0  0
   20.0660   16.3280    9.3530 N   0  0  0  0  0  0  0  0  0  0  0  0
   18.9504   19.6134    8.5356 H   0  0  0  0  0  0  0  0  0  0  0  0
   19.8320   19.3891    6.9867 H   0  0  0  0  0  0  0  0  0  0  0  0
   18.0430   19.5504    6.9867 H   0  0  0  0  0  0  0  0  0  0  0  0
   17.9723   17.4279    8.4000 H   0  0  0  0  0  0  0  0  0  0  0  0
   18.5389   17.2325    6.6859 H   0  0  0  0  0  0  0  0  0  0  0  0
   21.5492   17.3831    6.5551 H   0  0  0  0  0  0  0  0  0  0  0  0
   26.5588   16.3295    8.8740 H   0  0  0  0  0  0  0  0  0  0  0  0
   27.8907   17.9416   10.2108 H   0  0  0  0  0  0  0  0  0  0  0  0
   27.0919   18.7126   12.4639 H   0  0  0  0  0  0  0  0  0  0  0  0
   22.5862   16.9630   14.1263 H   0  0  0  0  0  0  0  0  0  0  0  0
   23.9881   18.5580   15.2754 H   0  0  0  0  0  0  0  0  0  0  0  0
   25.6655   16.8545   15.7923 H   0  0  0  0  0  0  0  0  0  0  0  0
   26.8982   17.7456   14.8323 H   0  0  0  0  0  0  0  0  0  0  0  0
   25.4474   18.7497   17.3282 H   0  0  0  0  0  0  0  0  0  0  0  0
   27.1803   18.2479   17.1994 H   0  0  0  0  0  0  0  0  0  0  0  0
   26.5120   21.4840   14.7643 H   0  0  0  0  0  0  0  0  0  0  0  0
   21.6715   15.2746   10.3069 H   0  0  0  0  0  0  0  0  0  0  0  0
  1  2  1  0
  2  3  1  0
  3  4  2  0
  4  5  1  0
  5  6  1  0
  6  7  2  0
  6  8  2  0
  6  9  1  0
  9 10  1  0
 10 11  2  0
 11 12  1  0
 12 13  2  0
 13 14  1  0
 14 15  2  0
 15 16  1  0
 16 17  2  0
 17 18  1  0
 18 19  1  0
 19 20  1  0
 20 21  1  0
 21 22  1  0
 22 23  2  0
 22 24  1  0
 24 25  1  0
 25 26  2  0
  5 27  1  0
 27 28  2  0
 28  3  1  0
 15 10  1  0
 25 19  1  0
 18 14  1  0
  1 29  1  0
  1 30  1  0
  1 31  1  0
  2 32  1  0
  2 33  1  0
  4 34  1  0
 11 35  1  0
 12 36  1  0
 13 37  1  0
 17 38  1  0
 19 39  1  1
 20 40  1  0
 20 41  1  0
 21 42  1  0
 21 43  1  0
 24 44  1  0
 27 45  1  0
M  END
>  <meeko>  (577) 
{"is_sidechain": [true], "free_energy": -10.69, "intermolecular_energy": 0.0, "internal_energy": -10.69, "cluster_size": 19, "cluster_id": 1, "rank_in_cluster": 1}

>  <_RMSD_MCS_to_ref>  (577) 
0.2599991452977402

$$$$
ligand
     RDKit          3D

 55 59  0  0  0  0  0  0  0  0999 V2000
   18.9090   19.1540    7.5370 C   0  0  0  0  0  0  0  0  0  0  0  0
   18.7730   17.6460    7.6780 C   0  0  0  0  0  0  0  0  0  0  0  0
   20.0710   16.9440    7.4880 C   0  0  0  0  0  0  0  0  0  0  0  0
   20.8850   16.3550    8.4370 C   0  0  0  0  0  0  0  0  0  0  0  0
   21.9180   15.8320    7.7120 N   0  0  0  0  0  0  0  0  0  0  0  0
   23.3210   15.1580    8.3380 S   0  0  0  0  0  6  0  0  0  0  0  0
   23.2180   13.7200    8.1860 O   0  0  0  0  0  0  0  0  0  0  0  0
   24.3900   15.8990    7.6890 O   0  0  0  0  0  0  0  0  0  0  0  0
   23.3660   15.5480   10.0790 C   0  0  0  0  0  0  0  0  0  0  0  0
   24.2520   16.5710   10.4830 C   0  0  0  0  0  0  0  0  0  0  0  0
   24.3670   16.8490   11.8320 C   0  0  0  0  0  0  0  0  0  0  0  0
   23.6260   16.1230   12.7560 C   0  0  0  0  0  0  0  0  0  0  0  0
   22.7530   15.1150   12.3920 C   0  0  0  0  0  0  0  0  0  0  0  0
   22.6110   14.8010   11.0240 C   0  0  0  0  0  0  0  0  0  0  0  0
   21.6620   13.7510   10.6470 C   0  0  0  0  0  0  0  0  0  0  0  0
   22.0240   12.4110   10.5370 C   0  0  0  0  0  0  0  0  0  0  0  0
   21.0460   11.4800   10.1980 C   0  0  0  0  0  0  0  0  0  0  0  0
   19.7410   11.9070    9.9880 C   0  0  0  0  0  0  0  0  0  0  0  0
   19.4660   13.2550   10.1250 C   0  0  0  0  0  0  0  0  0  0  0  0
   20.3970   14.1820   10.4470 N   0  0  0  0  0  0  0  0  0  0  0  0
   23.9420   16.6300   14.0950 C   0  0  0  0  0  0  0  0  0  0  0  0
   23.4240   16.2490   15.1260 O   0  0  0  0  0  0  0  0  0  0  0  0
   24.9220   17.5990   13.9350 N   0  0  0  0  0  0  0  0  0  0  0  0
   25.2910   18.5040   15.0180 C   0  0  1  0  0  0  0  0  0  0  0  0
   26.3580   17.9140   15.9350 C   0  0  0  0  0  0  0  0  0  0  0  0
   26.6250   18.8770   17.0820 C   0  0  0  0  0  0  0  0  0  0  0  0
   27.0110   20.2440   16.5700 C   0  0  0  0  0  0  0  0  0  0  0  0
   27.8370   20.9510   17.1390 O   0  0  0  0  0  0  0  0  0  0  0  0
   26.3760   20.6750   15.4330 N   0  0  0  0  0  0  0  0  0  0  0  0
   25.7800   19.8650   14.4940 C   0  0  0  0  0  0  0  0  0  0  0  0
   25.6770   20.2370   13.3260 O   0  0  0  0  0  0  0  0  0  0  0  0
   25.1990   17.8730   12.5300 C   0  0  0  0  0  0  0  0  0  0  0  0
   21.7680   16.1890    6.4090 C   0  0  0  0  0  0  0  0  0  0  0  0
   20.6330   16.8340    6.2320 N   0  0  0  0  0  0  0  0  0  0  0  0
   18.9504   19.6134    8.5356 H   0  0  0  0  0  0  0  0  0  0  0  0
   19.8320   19.3891    6.9867 H   0  0  0  0  0  0  0  0  0  0  0  0
   18.0430   19.5504    6.9867 H   0  0  0  0  0  0  0  0  0  0  0  0
   18.3906   17.4174    8.6837 H   0  0  0  0  0  0  0  0  0  0  0  0
   18.0820   17.2950    6.8974 H   0  0  0  0  0  0  0  0  0  0  0  0
   20.7354   16.3162    9.5261 H   0  0  0  0  0  0  0  0  0  0  0  0
   24.8373   17.1337    9.7409 H   0  0  0  0  0  0  0  0  0  0  0  0
   22.1797   14.5679   13.1548 H   0  0  0  0  0  0  0  0  0  0  0  0
   23.0623   12.0942   10.7145 H   0  0  0  0  0  0  0  0  0  0  0  0
   21.3044   10.4155   10.0973 H   0  0  0  0  0  0  0  0  0  0  0  0
   18.9485   11.1927    9.7202 H   0  0  0  0  0  0  0  0  0  0  0  0
   18.4317   13.5927    9.9630 H   0  0  0  0  0  0  0  0  0  0  0  0
   24.3689   18.6515   15.5994 H   0  0  0  0  0  0  0  0  0  0  0  0
   26.0059   16.9525   16.3371 H   0  0  0  0  0  0  0  0  0  0  0  0
   27.2853   17.7539   15.3654 H   0  0  0  0  0  0  0  0  0  0  0  0
   25.7153   18.9669   17.6939 H   0  0  0  0  0  0  0  0  0  0  0  0
   27.4586   18.4818   17.6811 H   0  0  0  0  0  0  0  0  0  0  0  0
   26.3425   21.6912   15.2683 H   0  0  0  0  0  0  0  0  0  0  0  0
   24.8891   18.8920   12.2549 H   0  0  0  0  0  0  0  0  0  0  0  0
   26.2676   17.8186   12.2746 H   0  0  0  0  0  0  0  0  0  0  0  0
   22.4941   15.9696    5.6123 H   0  0  0  0  0  0  0  0  0  0  0  0
  1  2  1  0
  2  3  1  0
  3  4  2  0
  4  5  1  0
  5  6  1  0
  6  7  2  0
  6  8  2  0
  6  9  1  0
  9 10  2  0
 10 11  1  0
 11 12  2  0
 12 13  1  0
 13 14  2  0
 14 15  1  0
 15 16  2  0
 16 17  1  0
 17 18  2  0
 18 19  1  0
 19 20  2  0
 12 21  1  0
 21 22  2  0
 21 23  1  0
 23 24  1  0
 24 25  1  0
 25 26  1  0
 26 27  1  0
 27 28  2  0
 27 29  1  0
 29 30  1  0
 30 31  2  0
 23 32  1  0
  5 33  1  0
 33 34  2  0
 34  3  1  0
 14  9  1  0
 20 15  1  0
 30 24  1  0
 32 11  1  0
  1 35  1  0
  1 36  1  0
  1 37  1  0
  2 38  1  0
  2 39  1  0
  4 40  1  0
 10 41  1  0
 13 42  1  0
 16 43  1  0
 17 44  1  0
 18 45  1  0
 19 46  1  0
 24 47  1  1
 25 48  1  0
 25 49  1  0
 26 50  1  0
 26 51  1  0
 29 52  1  0
 32 53  1  0
 32 54  1  0
 33 55  1  0
M  END
>  <meeko>  (578) 
{"is_sidechain": [true], "free_energy": -10.69, "intermolecular_energy": 0.0, "internal_energy": -10.69, "cluster_size": 8, "cluster_id": 2, "rank_in_cluster": 1}

>  <_RMSD_MCS_to_ref>  (578) 
0.9600636552969927

$$$$
ligand
     RDKit          3D

 55 59  0  0  0  0  0  0  0  0999 V2000
   18.9090   19.1540    7.5370 C   0  0  0  0  0  0  0  0  0  0  0  0
   18.7730   17.6460    7.6780 C   0  0  0  0  0  0  0  0  0  0  0  0
   19.8680   16.9160    6.9850 C   0  0  0  0  0  0  0  0  0  0  0  0
   21.2340   17.0470    7.1400 C   0  0  0  0  0  0  0  0  0  0  0  0
   21.7590   16.1340    6.2710 N   0  0  0  0  0  0  0  0  0  0  0  0
   23.3880   15.9020    5.9370 S   0  0  0  0  0  6  0  0  0  0  0  0
   23.4570   14.6940    5.1330 O   0  0  0  0  0  0  0  0  0  0  0  0
   23.8760   17.1800    5.4540 O   0  0  0  0  0  0  0  0  0  0  0  0
   24.1590   15.5690    7.4950 C   0  0  0  0  0  0  0  0  0  0  0  0
   23.3940   15.6030    8.6500 C   0  0  0  0  0  0  0  0  0  0  0  0
   24.0320   15.3400    9.8640 C   0  0  0  0  0  0  0  0  0  0  0  0
   23.2880   15.3620   11.1240 C   0  0  0  0  0  0  0  0  0  0  0  0
   22.1290   14.5790   11.2940 C   0  0  0  0  0  0  0  0  0  0  0  0
   21.4070   14.5750   12.5040 C   0  0  0  0  0  0  0  0  0  0  0  0
   21.8230   15.3580   13.5780 C   0  0  0  0  0  0  0  0  0  0  0  0
   22.9540   16.1290   13.3960 C   0  0  0  0  0  0  0  0  0  0  0  0
   23.6820   16.1450   12.2040 C   0  0  0  0  0  0  0  0  0  0  0  0
   24.8420   17.0790   12.3390 C   0  0  0  0  0  0  0  0  0  0  0  0
   24.6580   17.6350   13.6720 N   0  0  0  0  0  0  0  0  0  0  0  0
   25.6790   18.4090   14.3680 C   0  0  2  0  0  0  0  0  0  0  0  0
   25.8530   17.9740   15.8210 C   0  0  0  0  0  0  0  0  0  0  0  0
   26.9900   18.7640   16.4520 C   0  0  0  0  0  0  0  0  0  0  0  0
   26.7550   20.2510   16.3280 C   0  0  0  0  0  0  0  0  0  0  0  0
   27.0710   21.0430   17.2110 O   0  0  0  0  0  0  0  0  0  0  0  0
   26.1760   20.6860   15.1630 N   0  0  0  0  0  0  0  0  0  0  0  0
   25.3890   19.9200   14.3340 C   0  0  0  0  0  0  0  0  0  0  0  0
   24.5160   20.4460   13.6460 O   0  0  0  0  0  0  0  0  0  0  0  0
   23.6050   17.0370   14.3470 C   0  0  0  0  0  0  0  0  0  0  0  0
   23.2620   17.2070   15.5000 O   0  0  0  0  0  0  0  0  0  0  0  0
   25.4030   15.0500    9.8440 C   0  0  0  0  0  0  0  0  0  0  0  0
   26.0770   15.0380    8.6310 C   0  0  0  0  0  0  0  0  0  0  0  0
   25.4860   15.2970    7.4480 N   0  0  0  0  0  0  0  0  0  0  0  0
   20.7470   15.5200    5.6040 C   0  0  0  0  0  0  0  0  0  0  0  0
   19.5790   15.9610    6.0280 N   0  0  0  0  0  0  0  0  0  0  0  0
   18.9504   19.6134    8.5356 H   0  0  0  0  0  0  0  0  0  0  0  0
   19.8320   19.3891    6.9867 H   0  0  0  0  0  0  0  0  0  0  0  0
   18.0430   19.5504    6.9867 H   0  0  0  0  0  0  0  0  0  0  0  0
   18.7953   17.3867    8.7468 H   0  0  0  0  0  0  0  0  0  0  0  0
   17.8215   17.3478    7.2135 H   0  0  0  0  0  0  0  0  0  0  0  0
   21.7754   17.7307    7.8104 H   0  0  0  0  0  0  0  0  0  0  0  0
   22.3183   15.8300    8.6117 H   0  0  0  0  0  0  0  0  0  0  0  0
   21.7783   13.9539   10.4595 H   0  0  0  0  0  0  0  0  0  0  0  0
   20.5079   13.9487   12.6011 H   0  0  0  0  0  0  0  0  0  0  0  0
   21.2738   15.3621   14.5311 H   0  0  0  0  0  0  0  0  0  0  0  0
   25.7967   16.5378   12.2642 H   0  0  0  0  0  0  0  0  0  0  0  0
   24.8776   17.8446   11.5499 H   0  0  0  0  0  0  0  0  0  0  0  0
   26.6131   18.2088   13.8226 H   0  0  0  0  0  0  0  0  0  0  0  0
   24.9220   18.1643   16.3751 H   0  0  0  0  0  0  0  0  0  0  0  0
   26.0872   16.8998   15.8576 H   0  0  0  0  0  0  0  0  0  0  0  0
   27.0629   18.4996   17.5173 H   0  0  0  0  0  0  0  0  0  0  0  0
   27.9230   18.5132   15.9260 H   0  0  0  0  0  0  0  0  0  0  0  0
   26.3437   21.6640   14.8868 H   0  0  0  0  0  0  0  0  0  0  0  0
   25.9392   14.8342   10.7799 H   0  0  0  0  0  0  0  0  0  0  0  0
   27.1519   14.8044    8.6354 H   0  0  0  0  0  0  0  0  0  0  0  0
   20.8831   14.7609    4.8197 H   0  0  0  0  0  0  0  0  0  0  0  0
  1  2  1  0
  2  3  1  0
  3  4  2  0
  4  5  1  0
  5  6  1  0
  6  7  2  0
  6  8  2  0
  6  9  1  0
  9 10  2  0
 10 11  1  0
 11 12  1  0
 12 13  2  0
 13 14  1  0
 14 15  2  0
 15 16  1  0
 16 17  2  0
 17 18  1  0
 18 19  1  0
 19 20  1  0
 20 21  1  0
 21 22  1  0
 22 23  1  0
 23 24  2  0
 23 25  1  0
 25 26  1  0
 26 27  2  0
 19 28  1  0
 28 29  2  0
 11 30  2  0
 30 31  1  0
 31 32  2  0
  5 33  1  0
 33 34  2  0
 34  3  1  0
 32  9  1  0
 17 12  1  0
 26 20  1  0
 28 16  1  0
  1 35  1  0
  1 36  1  0
  1 37  1  0
  2 38  1  0
  2 39  1  0
  4 40  1  0
 10 41  1  0
 13 42  1  0
 14 43  1  0
 15 44  1  0
 18 45  1  0
 18 46  1  0
 20 47  1  6
 21 48  1  0
 21 49  1  0
 22 50  1  0
 22 51  1  0
 25 52  1  0
 30 53  1  0
 31 54  1  0
 33 55  1  0
M  END
>  <meeko>  (579) 
{"is_sidechain": [true], "free_energy": -10.69, "intermolecular_energy": 0.0, "internal_energy": -10.69, "cluster_size": 15, "cluster_id": 1, "rank_in_cluster": 1}

>  <_RMSD_MCS_to_ref>  (579) 
1.688771545631123

$$$$
ligand
     RDKit          3D

 53 57  0  0  0  0  0  0  0  0999 V2000
   18.7970   18.8160    7.7190 C   0  0  0  0  0  0  0  0  0  0  0  0
   18.5280   17.3300    7.8810 C   0  0  0  0  0  0  0  0  0  0  0  0
   19.7150   16.5010    7.5350 C   0  0  0  0  0  0  0  0  0  0  0  0
   20.9830   16.5370    8.0800 C   0  0  0  0  0  0  0  0  0  0  0  0
   21.6610   15.5570    7.4170 N   0  0  0  0  0  0  0  0  0  0  0  0
   23.2160   15.0220    7.7320 S   0  0  0  0  0  6  0  0  0  0  0  0
   23.7980   14.7510    6.4310 O   0  0  0  0  0  0  0  0  0  0  0  0
   23.8010   15.9430    8.6850 O   0  0  0  0  0  0  0  0  0  0  0  0
   23.2080   13.4910    8.5430 C   0  0  0  0  0  0  0  0  0  0  0  0
   23.1090   12.2510    7.8360 C   0  0  0  0  0  0  0  0  0  0  0  0
   23.1200   11.1680    8.6850 C   0  0  0  0  0  0  0  0  0  0  0  0
   23.2560   11.6400   10.3200 S   0  0  0  0  0  0  0  0  0  0  0  0
   23.3100   13.3070    9.9100 C   0  0  0  0  0  0  0  0  0  0  0  0
   23.4510   14.2810   10.9890 C   0  0  0  0  0  0  0  0  0  0  0  0
   22.3090   14.7050   11.7060 C   0  0  0  0  0  0  0  0  0  0  0  0
   22.4300   15.5740   12.7950 C   0  0  0  0  0  0  0  0  0  0  0  0
   23.7010   15.9860   13.1400 C   0  0  0  0  0  0  0  0  0  0  0  0
   24.8380   15.5940   12.4380 C   0  0  0  0  0  0  0  0  0  0  0  0
   24.7290   14.7470   11.3490 C   0  0  0  0  0  0  0  0  0  0  0  0
   26.0540   16.1980   13.0530 C   0  0  0  0  0  0  0  0  0  0  0  0
   25.5150   16.8610   14.2340 N   0  0  0  0  0  0  0  0  0  0  0  0
   26.3390   17.7540   15.0410 C   0  0  2  0  0  0  0  0  0  0  0  0
   25.9620   17.7640   16.5220 C   0  0  0  0  0  0  0  0  0  0  0  0
   26.9160   18.6770   17.2770 C   0  0  0  0  0  0  0  0  0  0  0  0
   26.9100   20.0730   16.7000 C   0  0  0  0  0  0  0  0  0  0  0  0
   27.2460   21.0540   17.3580 O   0  0  0  0  0  0  0  0  0  0  0  0
   26.5900   20.1900   15.3700 N   0  0  0  0  0  0  0  0  0  0  0  0
   26.3320   19.1800   14.4720 C   0  0  0  0  0  0  0  0  0  0  0  0
   26.2140   19.4330   13.2720 O   0  0  0  0  0  0  0  0  0  0  0  0
   24.1290   16.8400   14.2530 C   0  0  0  0  0  0  0  0  0  0  0  0
   23.3730   17.4040   15.0200 O   0  0  0  0  0  0  0  0  0  0  0  0
   20.8380   14.9870    6.5000 C   0  0  0  0  0  0  0  0  0  0  0  0
   19.6360   15.5220    6.5620 N   0  0  0  0  0  0  0  0  0  0  0  0
   18.8816   19.2836    8.7111 H   0  0  0  0  0  0  0  0  0  0  0  0
   19.7359   18.9603    7.1643 H   0  0  0  0  0  0  0  0  0  0  0  0
   17.9683   19.2803    7.1643 H   0  0  0  0  0  0  0  0  0  0  0  0
   18.2511   17.1324    8.9271 H   0  0  0  0  0  0  0  0  0  0  0  0
   17.7146   17.0578    7.1924 H   0  0  0  0  0  0  0  0  0  0  0  0
   21.3603   17.2041    8.8691 H   0  0  0  0  0  0  0  0  0  0  0  0
   23.0330   12.1725    6.7414 H   0  0  0  0  0  0  0  0  0  0  0  0
   23.0495   10.1226    8.3500 H   0  0  0  0  0  0  0  0  0  0  0  0
   21.3136   14.3473   11.4039 H   0  0  0  0  0  0  0  0  0  0  0  0
   21.5467   15.9157   13.3546 H   0  0  0  0  0  0  0  0  0  0  0  0
   25.6199   14.4453   10.7786 H   0  0  0  0  0  0  0  0  0  0  0  0
   26.7851   15.4243   13.3305 H   0  0  0  0  0  0  0  0  0  0  0  0
   26.5952   16.8772   12.3779 H   0  0  0  0  0  0  0  0  0  0  0  0
   27.3604   17.3496   14.9844 H   0  0  0  0  0  0  0  0  0  0  0  0
   24.9321   18.1331   16.6366 H   0  0  0  0  0  0  0  0  0  0  0  0
   26.0305   16.7435   16.9268 H   0  0  0  0  0  0  0  0  0  0  0  0
   26.6080   18.7238   18.3320 H   0  0  0  0  0  0  0  0  0  0  0  0
   27.9331   18.2679   17.1869 H   0  0  0  0  0  0  0  0  0  0  0  0
   26.5366   21.1497   14.9998 H   0  0  0  0  0  0  0  0  0  0  0  0
   21.1338   14.1895    5.8025 H   0  0  0  0  0  0  0  0  0  0  0  0
  1  2  1  0
  2  3  1  0
  3  4  2  0
  4  5  1  0
  5  6  1  0
  6  7  2  0
  6  8  2  0
  6  9  1  0
  9 10  1  0
 10 11  2  0
 11 12  1  0
 12 13  1  0
 13 14  1  0
 14 15  2  0
 15 16  1  0
 16 17  2  0
 17 18  1  0
 18 19  2  0
 18 20  1  0
 20 21  1  0
 21 22  1  0
 22 23  1  0
 23 24  1  0
 24 25  1  0
 25 26  2  0
 25 27  1  0
 27 28  1  0
 28 29  2  0
 21 30  1  0
 30 31  2  0
  5 32  1  0
 32 33  2  0
 33  3  1  0
 13  9  2  0
 19 14  1  0
 28 22  1  0
 30 17  1  0
  1 34  1  0
  1 35  1  0
  1 36  1  0
  2 37  1  0
  2 38  1  0
  4 39  1  0
 10 40  1  0
 11 41  1  0
 15 42  1  0
 16 43  1  0
 19 44  1  0
 20 45  1  0
 20 46  1  0
 22 47  1  1
 23 48  1  0
 23 49  1  0
 24 50  1  0
 24 51  1  0
 27 52  1  0
 32 53  1  0
M  END
>  <meeko>  (580) 
{"is_sidechain": [true], "free_energy": -10.68, "intermolecular_energy": 0.0, "internal_energy": -10.68, "cluster_size": 17, "cluster_id": 1, "rank_in_cluster": 1}

>  <_RMSD_MCS_to_ref>  (580) 
1.0758250064227193

$$$$
ligand
     RDKit          3D

 58 62  0  0  0  0  0  0  0  0999 V2000
   18.7970   18.8170    7.7190 C   0  0  0  0  0  0  0  0  0  0  0  0
   18.5280   17.3290    7.8810 C   0  0  0  0  0  0  0  0  0  0  0  0
   19.6550   16.4960    7.3810 C   0  0  0  0  0  0  0  0  0  0  0  0
   20.7900   16.0790    8.0460 C   0  0  0  0  0  0  0  0  0  0  0  0
   21.4610   15.3250    7.1270 N   0  0  0  0  0  0  0  0  0  0  0  0
   23.0240   14.7320    7.2910 S   0  0  0  0  0  6  0  0  0  0  0  0
   23.8990   15.8790    7.1500 O   0  0  0  0  0  0  0  0  0  0  0  0
   23.1060   13.5780    6.4150 O   0  0  0  0  0  0  0  0  0  0  0  0
   23.0800   14.1730    8.9710 C   0  0  0  0  0  0  0  0  0  0  0  0
   22.3060   13.0790    9.3640 C   0  0  0  0  0  0  0  0  0  0  0  0
   22.3530   12.6310   10.6910 C   0  0  0  0  0  0  0  0  0  0  0  0
   23.1550   13.3110   11.6280 C   0  0  0  0  0  0  0  0  0  0  0  0
   23.9160   14.4180   11.2240 C   0  0  0  0  0  0  0  0  0  0  0  0
   23.8790   14.8520    9.8950 C   0  0  0  0  0  0  0  0  0  0  0  0
   24.7440   15.1160   12.2020 C   0  0  0  0  0  0  0  0  0  0  0  0
   24.7680   14.7410   13.4930 C   0  0  0  0  0  0  0  0  0  0  0  0
   25.6480   15.5380   14.4050 C   0  0  0  0  0  0  0  0  0  0  0  0
   26.3550   15.0000   15.2560 O   0  0  0  0  0  0  0  0  0  0  0  0
   25.6250   16.8950   14.2380 N   0  0  0  0  0  0  0  0  0  0  0  0
   26.4650   17.7920   15.0130 C   0  0  2  0  0  0  0  0  0  0  0  0
   26.1460   17.7090   16.5020 C   0  0  0  0  0  0  0  0  0  0  0  0
   27.0460   18.6640   17.2700 C   0  0  0  0  0  0  0  0  0  0  0  0
   26.9170   20.0760   16.7490 C   0  0  0  0  0  0  0  0  0  0  0  0
   27.0360   21.0580   17.4760 O   0  0  0  0  0  0  0  0  0  0  0  0
   26.6940   20.2150   15.4030 N   0  0  0  0  0  0  0  0  0  0  0  0
   26.2740   19.2360   14.5350 C   0  0  0  0  0  0  0  0  0  0  0  0
   25.8030   19.5310   13.4390 O   0  0  0  0  0  0  0  0  0  0  0  0
   23.9380   13.5850   13.9470 C   0  0  0  0  0  0  0  0  0  0  0  0
   23.9240   13.2710   15.1400 O   0  0  0  0  0  0  0  0  0  0  0  0
   23.2070   12.8940   12.9840 N   0  0  0  0  0  0  0  0  0  0  0  0
   22.3470   11.7980   13.4210 C   0  0  0  0  0  0  0  0  0  0  0  0
   22.0960   10.7720   12.3280 C   0  0  0  0  0  0  0  0  0  0  0  0
   21.5070   11.4560   11.1060 C   0  0  0  0  0  0  0  0  0  0  0  0
   20.7750   15.3390    5.9550 C   0  0  0  0  0  0  0  0  0  0  0  0
   19.6650   16.0370    6.0780 N   0  0  0  0  0  0  0  0  0  0  0  0
   18.8815   19.2845    8.7111 H   0  0  0  0  0  0  0  0  0  0  0  0
   19.7359   18.9616    7.1643 H   0  0  0  0  0  0  0  0  0  0  0  0
   17.9682   19.2812    7.1643 H   0  0  0  0  0  0  0  0  0  0  0  0
   18.3728   17.1112    8.9480 H   0  0  0  0  0  0  0  0  0  0  0  0
   17.6356   17.0808    7.2876 H   0  0  0  0  0  0  0  0  0  0  0  0
   21.0866   16.3032    9.0813 H   0  0  0  0  0  0  0  0  0  0  0  0
   21.6606   12.5698    8.6332 H   0  0  0  0  0  0  0  0  0  0  0  0
   24.4744   15.7214    9.5793 H   0  0  0  0  0  0  0  0  0  0  0  0
   25.3612   15.9664   11.8764 H   0  0  0  0  0  0  0  0  0  0  0  0
   24.9876   17.2967   13.5357 H   0  0  0  0  0  0  0  0  0  0  0  0
   27.5098   17.4825   14.8628 H   0  0  0  0  0  0  0  0  0  0  0  0
   25.0940   17.9847   16.6670 H   0  0  0  0  0  0  0  0  0  0  0  0
   26.3170   16.6815   16.8557 H   0  0  0  0  0  0  0  0  0  0  0  0
   26.7632   18.6467   18.3329 H   0  0  0  0  0  0  0  0  0  0  0  0
   28.0889   18.3393   17.1403 H   0  0  0  0  0  0  0  0  0  0  0  0
   26.8582   21.1492   15.0015 H   0  0  0  0  0  0  0  0  0  0  0  0
   22.8267   11.2935   14.2727 H   0  0  0  0  0  0  0  0  0  0  0  0
   21.3743   12.2312   13.6971 H   0  0  0  0  0  0  0  0  0  0  0  0
   23.0462   10.2900   12.0543 H   0  0  0  0  0  0  0  0  0  0  0  0
   21.3888   10.0143   12.6964 H   0  0  0  0  0  0  0  0  0  0  0  0
   21.4598   10.7348   10.2767 H   0  0  0  0  0  0  0  0  0  0  0  0
   20.4990   11.8182   11.3563 H   0  0  0  0  0  0  0  0  0  0  0  0
   21.1010   14.8374    5.0319 H   0  0  0  0  0  0  0  0  0  0  0  0
  1  2  1  0
  2  3  1  0
  3  4  2  0
  4  5  1  0
  5  6  1  0
  6  7  2  0
  6  8  2  0
  6  9  1  0
  9 10  2  0
 10 11  1  0
 11 12  2  0
 12 13  1  0
 13 14  2  0
 13 15  1  0
 15 16  2  0
 16 17  1  0
 17 18  2  0
 17 19  1  0
 19 20  1  0
 20 21  1  0
 21 22  1  0
 22 23  1  0
 23 24  2  0
 23 25  1  0
 25 26  1  0
 26 27  2  0
 16 28  1  0
 28 29  2  0
 28 30  1  0
 30 31  1  0
 31 32  1  0
 32 33  1  0
  5 34  1  0
 34 35  2  0
 35  3  1  0
 14  9  1  0
 26 20  1  0
 33 11  1  0
 30 12  1  0
  1 36  1  0
  1 37  1  0
  1 38  1  0
  2 39  1  0
  2 40  1  0
  4 41  1  0
 10 42  1  0
 14 43  1  0
 15 44  1  0
 19 45  1  0
 20 46  1  1
 21 47  1  0
 21 48  1  0
 22 49  1  0
 22 50  1  0
 25 51  1  0
 31 52  1  0
 31 53  1  0
 32 54  1  0
 32 55  1  0
 33 56  1  0
 33 57  1  0
 34 58  1  0
M  END
>  <meeko>  (581) 
{"is_sidechain": [true], "free_energy": -10.68, "intermolecular_energy": 0.0, "internal_energy": -10.68, "cluster_size": 12, "cluster_id": 1, "rank_in_cluster": 1}

>  <_RMSD_MCS_to_ref>  (581) 
0.8869143764259944

$$$$
ligand
     RDKit          3D

 47 50  0  0  0  0  0  0  0  0999 V2000
   18.9090   19.1540    7.5370 C   0  0  0  0  0  0  0  0  0  0  0  0
   18.7730   17.6460    7.6780 C   0  0  0  0  0  0  0  0  0  0  0  0
   19.9310   16.9200    7.0910 C   0  0  0  0  0  0  0  0  0  0  0  0
   21.0220   16.3630    7.7290 C   0  0  0  0  0  0  0  0  0  0  0  0
   21.7550   15.8100    6.7180 N   0  0  0  0  0  0  0  0  0  0  0  0
   23.2600   15.0950    6.8640 S   0  0  0  0  0  6  0  0  0  0  0  0
   23.0310   13.7100    7.2320 O   0  0  0  0  0  0  0  0  0  0  0  0
   24.0190   15.4780    5.6890 O   0  0  0  0  0  0  0  0  0  0  0  0
   24.1150   15.7880    8.2040 C   0  0  0  0  0  0  0  0  0  0  0  0
   25.2980   16.4200    8.0890 N   0  0  0  0  0  0  0  0  0  0  0  0
   25.5880   16.7790    9.3550 N   0  0  0  0  0  0  0  0  0  0  0  0
   24.6400   16.3990   10.2660 C   0  0  0  0  0  0  0  0  0  0  0  0
   24.5670   16.5720   11.6380 C   0  0  0  0  0  0  0  0  0  0  0  0
   25.6280   17.2790   12.3980 C   0  0  0  0  0  0  0  0  0  0  0  0
   26.6220   17.7170   11.8250 O   0  0  0  0  0  0  0  0  0  0  0  0
   25.3950   17.4000   13.7460 N   0  0  0  0  0  0  0  0  0  0  0  0
   26.2410   18.1870   14.6250 C   0  0  2  0  0  0  0  0  0  0  0  0
   26.0130   17.8450   16.0930 C   0  0  0  0  0  0  0  0  0  0  0  0
   26.9110   18.7110   16.9630 C   0  0  0  0  0  0  0  0  0  0  0  0
   26.6910   20.1800   16.6870 C   0  0  0  0  0  0  0  0  0  0  0  0
   26.7960   21.0360   17.5600 O   0  0  0  0  0  0  0  0  0  0  0  0
   26.3960   20.5250   15.3930 N   0  0  0  0  0  0  0  0  0  0  0  0
   25.9550   19.6770   14.4060 C   0  0  0  0  0  0  0  0  0  0  0  0
   25.3840   20.1140   13.4070 O   0  0  0  0  0  0  0  0  0  0  0  0
   23.4880   16.0840   12.3120 N   0  0  0  0  0  0  0  0  0  0  0  0
   22.5230   15.4450   11.6120 C   0  0  0  0  0  0  0  0  0  0  0  0
   22.5410   15.2380   10.2370 C   0  0  0  0  0  0  0  0  0  0  0  0
   23.6520   15.7420    9.5450 C   0  0  0  0  0  0  0  0  0  0  0  0
   21.1540   16.0830    5.5320 C   0  0  0  0  0  0  0  0  0  0  0  0
   20.0270   16.7360    5.7250 N   0  0  0  0  0  0  0  0  0  0  0  0
   18.9504   19.6134    8.5356 H   0  0  0  0  0  0  0  0  0  0  0  0
   19.8320   19.3891    6.9867 H   0  0  0  0  0  0  0  0  0  0  0  0
   18.0430   19.5504    6.9867 H   0  0  0  0  0  0  0  0  0  0  0  0
   18.7024   17.3951    8.7467 H   0  0  0  0  0  0  0  0  0  0  0  0
   17.8689   17.3361    7.1334 H   0  0  0  0  0  0  0  0  0  0  0  0
   21.2487   16.3645    8.8054 H   0  0  0  0  0  0  0  0  0  0  0  0
   26.4433   17.2916    9.6130 H   0  0  0  0  0  0  0  0  0  0  0  0
   24.5842   16.9108   14.1513 H   0  0  0  0  0  0  0  0  0  0  0  0
   27.2876   17.9528   14.3805 H   0  0  0  0  0  0  0  0  0  0  0  0
   24.9606   18.0314   16.3533 H   0  0  0  0  0  0  0  0  0  0  0  0
   26.2516   16.7847   16.2628 H   0  0  0  0  0  0  0  0  0  0  0  0
   26.6888   18.5079   18.0210 H   0  0  0  0  0  0  0  0  0  0  0  0
   27.9584   18.4672   16.7317 H   0  0  0  0  0  0  0  0  0  0  0  0
   26.5166   21.5152   15.1363 H   0  0  0  0  0  0  0  0  0  0  0  0
   21.6586   15.0599   12.1728 H   0  0  0  0  0  0  0  0  0  0  0  0
   21.7278   14.7076    9.7200 H   0  0  0  0  0  0  0  0  0  0  0  0
   21.5528   15.7985    4.5471 H   0  0  0  0  0  0  0  0  0  0  0  0
  1  2  1  0
  2  3  1  0
  3  4  2  0
  4  5  1  0
  5  6  1  0
  6  7  2  0
  6  8  2  0
  6  9  1  0
  9 10  2  0
 10 11  1  0
 11 12  1  0
 12 13  2  0
 13 14  1  0
 14 15  2  0
 14 16  1  0
 16 17  1  0
 17 18  1  0
 18 19  1  0
 19 20  1  0
 20 21  2  0
 20 22  1  0
 22 23  1  0
 23 24  2  0
 13 25  1  0
 25 26  2  0
 26 27  1  0
 27 28  2  0
  5 29  1  0
 29 30  2  0
 30  3  1  0
 28  9  1  0
 28 12  1  0
 23 17  1  0
  1 31  1  0
  1 32  1  0
  1 33  1  0
  2 34  1  0
  2 35  1  0
  4 36  1  0
 11 37  1  0
 16 38  1  0
 17 39  1  6
 18 40  1  0
 18 41  1  0
 19 42  1  0
 19 43  1  0
 22 44  1  0
 26 45  1  0
 27 46  1  0
 29 47  1  0
M  END
>  <meeko>  (582) 
{"is_sidechain": [true], "free_energy": -10.68, "intermolecular_energy": 0.0, "internal_energy": -10.68, "cluster_size": 18, "cluster_id": 1, "rank_in_cluster": 1}

>  <_RMSD_MCS_to_ref>  (582) 
0.7686795315488906

$$$$
ligand
     RDKit          3D

 47 50  0  0  0  0  0  0  0  0999 V2000
   18.9090   19.1540    7.5370 C   0  0  0  0  0  0  0  0  0  0  0  0
   18.7730   17.6460    7.6780 C   0  0  0  0  0  0  0  0  0  0  0  0
   20.0570   16.9400    7.4170 C   0  0  0  0  0  0  0  0  0  0  0  0
   20.5900   15.8420    8.0610 C   0  0  0  0  0  0  0  0  0  0  0  0
   21.7680   15.6110    7.4110 N   0  0  0  0  0  0  0  0  0  0  0  0
   22.9290   14.4790    7.8320 S   0  0  0  0  0  6  0  0  0  0  0  0
   23.6380   14.1660    6.6000 O   0  0  0  0  0  0  0  0  0  0  0  0
   22.2600   13.4530    8.6070 O   0  0  0  0  0  0  0  0  0  0  0  0
   24.0620   15.3490    8.8680 C   0  0  0  0  0  0  0  0  0  0  0  0
   25.0190   16.0700    8.2250 N   0  0  0  0  0  0  0  0  0  0  0  0
   25.9210   16.7560    8.9650 C   0  0  0  0  0  0  0  0  0  0  0  0
   25.9570   16.7720   10.3530 C   0  0  0  0  0  0  0  0  0  0  0  0
   24.9830   16.0110   11.0150 C   0  0  0  0  0  0  0  0  0  0  0  0
   24.6370   15.7210   12.3670 C   0  0  0  0  0  0  0  0  0  0  0  0
   25.2990   16.2180   13.5830 C   0  0  0  0  0  0  0  0  0  0  0  0
   25.6100   15.4950   14.5260 O   0  0  0  0  0  0  0  0  0  0  0  0
   25.5500   17.5710   13.5600 N   0  0  0  0  0  0  0  0  0  0  0  0
   26.3410   18.2390   14.5740 C   0  0  2  0  0  0  0  0  0  0  0  0
   25.8590   17.9070   15.9830 C   0  0  0  0  0  0  0  0  0  0  0  0
   26.7110   18.6510   16.9990 C   0  0  0  0  0  0  0  0  0  0  0  0
   26.6990   20.1380   16.7410 C   0  0  0  0  0  0  0  0  0  0  0  0
   26.7750   20.9640   17.6450 O   0  0  0  0  0  0  0  0  0  0  0  0
   26.6360   20.5330   15.4290 N   0  0  0  0  0  0  0  0  0  0  0  0
   26.2590   19.7550   14.3620 C   0  0  0  0  0  0  0  0  0  0  0  0
   25.9050   20.2680   13.3000 O   0  0  0  0  0  0  0  0  0  0  0  0
   23.5730   14.8890   12.4330 N   0  0  0  0  0  0  0  0  0  0  0  0
   23.2530   14.6600   11.1480 N   0  0  0  0  0  0  0  0  0  0  0  0
   24.0560   15.3130   10.2540 C   0  0  0  0  0  0  0  0  0  0  0  0
   21.9400   16.5570    6.4520 C   0  0  0  0  0  0  0  0  0  0  0  0
   20.9090   17.3750    6.4190 N   0  0  0  0  0  0  0  0  0  0  0  0
   18.9504   19.6134    8.5356 H   0  0  0  0  0  0  0  0  0  0  0  0
   19.8320   19.3891    6.9867 H   0  0  0  0  0  0  0  0  0  0  0  0
   18.0430   19.5504    6.9867 H   0  0  0  0  0  0  0  0  0  0  0  0
   18.4426   17.4140    8.7012 H   0  0  0  0  0  0  0  0  0  0  0  0
   18.0402   17.3014    6.9335 H   0  0  0  0  0  0  0  0  0  0  0  0
   20.1631   15.2810    8.9054 H   0  0  0  0  0  0  0  0  0  0  0  0
   26.6805   17.3433    8.4281 H   0  0  0  0  0  0  0  0  0  0  0  0
   26.7111   17.3521   10.9050 H   0  0  0  0  0  0  0  0  0  0  0  0
   25.1593   18.1323   12.7898 H   0  0  0  0  0  0  0  0  0  0  0  0
   27.3787   17.8871   14.4771 H   0  0  0  0  0  0  0  0  0  0  0  0
   24.8079   18.2123   16.0923 H   0  0  0  0  0  0  0  0  0  0  0  0
   25.9462   16.8240   16.1545 H   0  0  0  0  0  0  0  0  0  0  0  0
   26.3155   18.4591   18.0073 H   0  0  0  0  0  0  0  0  0  0  0  0
   27.7472   18.2920   16.9124 H   0  0  0  0  0  0  0  0  0  0  0  0
   26.8969   21.5081   15.2241 H   0  0  0  0  0  0  0  0  0  0  0  0
   22.4745   14.0489   10.8627 H   0  0  0  0  0  0  0  0  0  0  0  0
   22.8186   16.6297    5.7942 H   0  0  0  0  0  0  0  0  0  0  0  0
  1  2  1  0
  2  3  1  0
  3  4  2  0
  4  5  1  0
  5  6  1  0
  6  7  2  0
  6  8  2  0
  6  9  1  0
  9 10  2  0
 10 11  1  0
 11 12  2  0
 12 13  1  0
 13 14  1  0
 14 15  1  0
 15 16  2  0
 15 17  1  0
 17 18  1  0
 18 19  1  0
 19 20  1  0
 20 21  1  0
 21 22  2  0
 21 23  1  0
 23 24  1  0
 24 25  2  0
 14 26  2  0
 26 27  1  0
 27 28  1  0
  5 29  1  0
 29 30  2  0
 30  3  1  0
 28  9  1  0
 28 13  2  0
 24 18  1  0
  1 31  1  0
  1 32  1  0
  1 33  1  0
  2 34  1  0
  2 35  1  0
  4 36  1  0
 11 37  1  0
 12 38  1  0
 17 39  1  0
 18 40  1  1
 19 41  1  0
 19 42  1  0
 20 43  1  0
 20 44  1  0
 23 45  1  0
 27 46  1  0
 29 47  1  0
M  END
>  <meeko>  (583) 
{"is_sidechain": [true], "free_energy": -10.68, "intermolecular_energy": 0.0, "internal_energy": -10.68, "cluster_size": 19, "cluster_id": 1, "rank_in_cluster": 1}

>  <_RMSD_MCS_to_ref>  (583) 
0.9097449581552454

$$$$
ligand
     RDKit          3D

 46 49  0  0  0  0  0  0  0  0999 V2000
   18.9090   19.1540    7.5370 C   0  0  0  0  0  0  0  0  0  0  0  0
   18.7730   17.6460    7.6780 C   0  0  0  0  0  0  0  0  0  0  0  0
   20.0800   16.9480    7.5350 C   0  0  0  0  0  0  0  0  0  0  0  0
   21.0150   16.6500    8.5070 C   0  0  0  0  0  0  0  0  0  0  0  0
   22.0160   16.0130    7.8290 N   0  0  0  0  0  0  0  0  0  0  0  0
   23.2450   15.0980    8.5420 S   0  0  0  0  0  6  0  0  0  0  0  0
   22.8280   13.7170    8.3790 O   0  0  0  0  0  0  0  0  0  0  0  0
   24.4720   15.5860    7.9330 O   0  0  0  0  0  0  0  0  0  0  0  0
   23.2390   15.5130   10.2610 C   0  0  0  0  0  0  0  0  0  0  0  0
   22.2250   15.0140   10.9980 C   0  0  0  0  0  0  0  0  0  0  0  0
   22.2110   15.2990   12.3500 N   0  0  0  0  0  0  0  0  0  0  0  0
   21.3820   14.9530   13.3730 C   0  0  0  0  0  0  0  0  0  0  0  0
   21.8390   15.4620   14.4980 N   0  0  0  0  0  0  0  0  0  0  0  0
   22.9950   16.1650   14.2120 N   0  0  0  0  0  0  0  0  0  0  0  0
   23.1920   16.0650   12.9190 C   0  0  0  0  0  0  0  0  0  0  0  0
   24.2270   16.5750   12.0740 C   0  0  0  0  0  0  0  0  0  0  0  0
   25.3470   17.4260   12.6600 C   0  0  0  0  0  0  0  0  0  0  0  0
   26.2560   17.8650   11.9790 O   0  0  0  0  0  0  0  0  0  0  0  0
   25.2370   17.5930   14.0230 N   0  0  0  0  0  0  0  0  0  0  0  0
   26.1860   18.3660   14.8020 C   0  0  2  0  0  0  0  0  0  0  0  0
   26.0850   18.0600   16.2910 C   0  0  0  0  0  0  0  0  0  0  0  0
   27.0810   18.9200   17.0550 C   0  0  0  0  0  0  0  0  0  0  0  0
   26.8760   20.3880   16.7640 C   0  0  0  0  0  0  0  0  0  0  0  0
   27.0850   21.2610   17.6020 O   0  0  0  0  0  0  0  0  0  0  0  0
   26.4720   20.7140   15.4940 N   0  0  0  0  0  0  0  0  0  0  0  0
   25.9110   19.8580   14.5780 C   0  0  0  0  0  0  0  0  0  0  0  0
   25.2410   20.2850   13.6380 O   0  0  0  0  0  0  0  0  0  0  0  0
   24.2580   16.3070   10.7900 N   0  0  0  0  0  0  0  0  0  0  0  0
   21.6590   15.8970    6.5230 C   0  0  0  0  0  0  0  0  0  0  0  0
   20.4910   16.4670    6.3070 N   0  0  0  0  0  0  0  0  0  0  0  0
   18.9504   19.6134    8.5356 H   0  0  0  0  0  0  0  0  0  0  0  0
   19.8320   19.3891    6.9867 H   0  0  0  0  0  0  0  0  0  0  0  0
   18.0430   19.5504    6.9867 H   0  0  0  0  0  0  0  0  0  0  0  0
   18.3569   17.4191    8.6707 H   0  0  0  0  0  0  0  0  0  0  0  0
   18.1104   17.2901    6.8754 H   0  0  0  0  0  0  0  0  0  0  0  0
   20.9652   16.8745    9.5827 H   0  0  0  0  0  0  0  0  0  0  0  0
   21.4360   14.4009   10.5380 H   0  0  0  0  0  0  0  0  0  0  0  0
   20.4719   14.3430   13.2749 H   0  0  0  0  0  0  0  0  0  0  0  0
   24.4458   17.1493   14.5108 H   0  0  0  0  0  0  0  0  0  0  0  0
   27.1996   18.0965   14.4704 H   0  0  0  0  0  0  0  0  0  0  0  0
   25.0660   18.2798   16.6421 H   0  0  0  0  0  0  0  0  0  0  0  0
   26.3111   16.9973   16.4628 H   0  0  0  0  0  0  0  0  0  0  0  0
   26.9504   18.7469   18.1334 H   0  0  0  0  0  0  0  0  0  0  0  0
   28.0962   18.6415   16.7360 H   0  0  0  0  0  0  0  0  0  0  0  0
   26.6016   21.6926   15.1999 H   0  0  0  0  0  0  0  0  0  0  0  0
   22.2625   15.3959    5.7518 H   0  0  0  0  0  0  0  0  0  0  0  0
  1  2  1  0
  2  3  1  0
  3  4  2  0
  4  5  1  0
  5  6  1  0
  6  7  2  0
  6  8  2  0
  6  9  1  0
  9 10  2  0
 10 11  1  0
 11 12  1  0
 12 13  2  0
 13 14  1  0
 14 15  2  0
 15 16  1  0
 16 17  1  0
 17 18  2  0
 17 19  1  0
 19 20  1  0
 20 21  1  0
 21 22  1  0
 22 23  1  0
 23 24  2  0
 23 25  1  0
 25 26  1  0
 26 27  2  0
 16 28  2  0
  5 29  1  0
 29 30  2  0
 30  3  1  0
 28  9  1  0
 15 11  1  0
 26 20  1  0
  1 31  1  0
  1 32  1  0
  1 33  1  0
  2 34  1  0
  2 35  1  0
  4 36  1  0
 10 37  1  0
 12 38  1  0
 19 39  1  0
 20 40  1  6
 21 41  1  0
 21 42  1  0
 22 43  1  0
 22 44  1  0
 25 45  1  0
 29 46  1  0
M  END
>  <meeko>  (584) 
{"is_sidechain": [true], "free_energy": -10.68, "intermolecular_energy": 0.0, "internal_energy": -10.68, "cluster_size": 20, "cluster_id": 1, "rank_in_cluster": 1}

>  <_RMSD_MCS_to_ref>  (584) 
0.8225157208899481

$$$$
ligand
     RDKit          3D

 50 53  0  0  0  0  0  0  0  0999 V2000
   18.9090   19.1540    7.5370 C   0  0  0  0  0  0  0  0  0  0  0  0
   18.7730   17.6460    7.6780 C   0  0  0  0  0  0  0  0  0  0  0  0
   20.0670   16.9430    7.4660 C   0  0  0  0  0  0  0  0  0  0  0  0
   20.7040   16.0300    8.2820 C   0  0  0  0  0  0  0  0  0  0  0  0
   21.8350   15.6960    7.5940 N   0  0  0  0  0  0  0  0  0  0  0  0
   23.1060   14.7680    8.1790 S   0  0  0  0  0  6  0  0  0  0  0  0
   24.0810   14.7190    7.1090 O   0  0  0  0  0  0  0  0  0  0  0  0
   22.4830   13.5770    8.7240 O   0  0  0  0  0  0  0  0  0  0  0  0
   23.8360   15.6550    9.5250 C   0  0  0  0  0  0  0  0  0  0  0  0
   25.0220   16.3870    9.3970 C   0  0  0  0  0  0  0  0  0  0  0  0
   25.5380   17.0900   10.5020 C   0  0  0  0  0  0  0  0  0  0  0  0
   24.8890   17.0730   11.7480 C   0  0  0  0  0  0  0  0  0  0  0  0
   25.4900   17.8440   12.8730 C   0  0  0  0  0  0  0  0  0  0  0  0
   26.6970   18.0650   12.8950 O   0  0  0  0  0  0  0  0  0  0  0  0
   24.6450   18.2770   13.8650 N   0  0  0  0  0  0  0  0  0  0  0  0
   25.1310   18.9240   15.0720 C   0  0  1  0  0  0  0  0  0  0  0  0
   26.1910   18.0870   15.7800 C   0  0  0  0  0  0  0  0  0  0  0  0
   26.6720   18.8220   17.0220 C   0  0  0  0  0  0  0  0  0  0  0  0
   27.1830   20.2000   16.6780 C   0  0  0  0  0  0  0  0  0  0  0  0
   28.1110   20.7290   17.2830 O   0  0  0  0  0  0  0  0  0  0  0  0
   26.5360   20.8610   15.6640 N   0  0  0  0  0  0  0  0  0  0  0  0
   25.7330   20.2860   14.7090 C   0  0  0  0  0  0  0  0  0  0  0  0
   25.5130   20.8600   13.6420 O   0  0  0  0  0  0  0  0  0  0  0  0
   23.7220   16.3240   11.8480 C   0  0  0  0  0  0  0  0  0  0  0  0
   23.2010   15.6250   10.7620 C   0  0  0  0  0  0  0  0  0  0  0  0
   21.9230   14.9850   11.1630 C   0  0  0  0  0  0  0  0  0  0  0  0
   22.0560   15.1010   12.6790 C   0  0  0  0  0  0  0  0  0  0  0  0
   22.9510   16.1960   12.9790 O   0  0  0  0  0  0  0  0  0  0  0  0
   21.8790   16.4050    6.4360 C   0  0  0  0  0  0  0  0  0  0  0  0
   20.8190   17.1790    6.3310 N   0  0  0  0  0  0  0  0  0  0  0  0
   18.9504   19.6134    8.5356 H   0  0  0  0  0  0  0  0  0  0  0  0
   19.8320   19.3891    6.9867 H   0  0  0  0  0  0  0  0  0  0  0  0
   18.0430   19.5504    6.9867 H   0  0  0  0  0  0  0  0  0  0  0  0
   18.4066   17.4163    8.6894 H   0  0  0  0  0  0  0  0  0  0  0  0
   18.0689   17.2969    6.9084 H   0  0  0  0  0  0  0  0  0  0  0  0
   20.3753   15.6566    9.2631 H   0  0  0  0  0  0  0  0  0  0  0  0
   25.5509   16.4130    8.4329 H   0  0  0  0  0  0  0  0  0  0  0  0
   26.4689   17.6647   10.3876 H   0  0  0  0  0  0  0  0  0  0  0  0
   23.6309   18.1383   13.7495 H   0  0  0  0  0  0  0  0  0  0  0  0
   24.2774   19.0435   15.7554 H   0  0  0  0  0  0  0  0  0  0  0  0
   25.7588   17.1184   16.0716 H   0  0  0  0  0  0  0  0  0  0  0  0
   27.0402   17.9203   15.1009 H   0  0  0  0  0  0  0  0  0  0  0  0
   25.8352   18.9161   17.7297 H   0  0  0  0  0  0  0  0  0  0  0  0
   27.4960   18.2469   17.4695 H   0  0  0  0  0  0  0  0  0  0  0  0
   26.6642   21.8818   15.6145 H   0  0  0  0  0  0  0  0  0  0  0  0
   21.0500   15.5360   10.7832 H   0  0  0  0  0  0  0  0  0  0  0  0
   21.7668   13.9654   10.7808 H   0  0  0  0  0  0  0  0  0  0  0  0
   21.0691   15.2959   13.1241 H   0  0  0  0  0  0  0  0  0  0  0  0
   22.4546   14.1639   13.0950 H   0  0  0  0  0  0  0  0  0  0  0  0
   22.6861   16.3414    5.6913 H   0  0  0  0  0  0  0  0  0  0  0  0
  1  2  1  0
  2  3  1  0
  3  4  2  0
  4  5  1  0
  5  6  1  0
  6  7  2  0
  6  8  2  0
  6  9  1  0
  9 10  2  0
 10 11  1  0
 11 12  2  0
 12 13  1  0
 13 14  2  0
 13 15  1  0
 15 16  1  0
 16 17  1  0
 17 18  1  0
 18 19  1  0
 19 20  2  0
 19 21  1  0
 21 22  1  0
 22 23  2  0
 12 24  1  0
 24 25  2  0
 25 26  1  0
 26 27  1  0
 27 28  1  0
  5 29  1  0
 29 30  2  0
 30  3  1  0
 25  9  1  0
 22 16  1  0
 28 24  1  0
  1 31  1  0
  1 32  1  0
  1 33  1  0
  2 34  1  0
  2 35  1  0
  4 36  1  0
 10 37  1  0
 11 38  1  0
 15 39  1  0
 16 40  1  1
 17 41  1  0
 17 42  1  0
 18 43  1  0
 18 44  1  0
 21 45  1  0
 26 46  1  0
 26 47  1  0
 27 48  1  0
 27 49  1  0
 29 50  1  0
M  END
>  <meeko>  (585) 
{"is_sidechain": [true], "free_energy": -10.68, "intermolecular_energy": 0.0, "internal_energy": -10.68, "cluster_size": 13, "cluster_id": 1, "rank_in_cluster": 1}

>  <_RMSD_MCS_to_ref>  (585) 
0.7734311001418728

$$$$
ligand
     RDKit          3D

 53 56  0  0  0  0  0  0  0  0999 V2000
   18.9090   19.1540    7.5370 C   0  0  0  0  0  0  0  0  0  0  0  0
   18.7730   17.6460    7.6780 C   0  0  0  0  0  0  0  0  0  0  0  0
   20.0600   16.9420    7.4280 C   0  0  0  0  0  0  0  0  0  0  0  0
   20.8320   16.2070    8.3060 C   0  0  0  0  0  0  0  0  0  0  0  0
   21.8910   15.7910    7.5510 N   0  0  0  0  0  0  0  0  0  0  0  0
   23.1370   14.7940    8.0760 S   0  0  0  0  0  6  0  0  0  0  0  0
   24.2390   15.1020    7.1820 O   0  0  0  0  0  0  0  0  0  0  0  0
   22.5940   13.4550    8.1860 O   0  0  0  0  0  0  0  0  0  0  0  0
   23.5770   15.3650    9.6970 C   0  0  0  0  0  0  0  0  0  0  0  0
   24.7070   16.1800    9.8220 C   0  0  0  0  0  0  0  0  0  0  0  0
   25.0830   16.6520   11.0780 C   0  0  0  0  0  0  0  0  0  0  0  0
   24.3250   16.3230   12.2110 C   0  0  0  0  0  0  0  0  0  0  0  0
   24.7770   16.8380   13.5350 C   0  0  0  0  0  0  0  0  0  0  0  0
   24.9250   16.0870   14.4900 O   0  0  0  0  0  0  0  0  0  0  0  0
   24.9890   18.1960   13.6010 N   0  0  0  0  0  0  0  0  0  0  0  0
   25.2760   18.8530   14.8690 C   0  0  1  0  0  0  0  0  0  0  0  0
   26.3490   18.1220   15.6680 C   0  0  0  0  0  0  0  0  0  0  0  0
   26.6280   18.8820   16.9570 C   0  0  0  0  0  0  0  0  0  0  0  0
   27.0120   20.3150   16.6760 C   0  0  0  0  0  0  0  0  0  0  0  0
   27.8170   20.9300   17.3700 O   0  0  0  0  0  0  0  0  0  0  0  0
   26.3940   20.9210   15.6110 N   0  0  0  0  0  0  0  0  0  0  0  0
   25.7540   20.2790   14.5800 C   0  0  0  0  0  0  0  0  0  0  0  0
   25.5720   20.8350   13.4970 O   0  0  0  0  0  0  0  0  0  0  0  0
   23.1830   15.5010   12.0930 C   0  0  0  0  0  0  0  0  0  0  0  0
   22.8310   15.0010   10.8240 C   0  0  0  0  0  0  0  0  0  0  0  0
   21.7550   14.1820   10.6260 O   0  0  0  0  0  0  0  0  0  0  0  0
   21.2160   13.5620   11.7970 C   0  0  0  0  0  0  0  0  0  0  0  0
   20.9980   14.5780   12.8970 C   0  0  0  0  0  0  0  0  0  0  0  0
   22.3500   15.1450   13.3000 C   0  0  0  0  0  0  0  0  0  0  0  0
   21.7510   16.2620    6.2860 C   0  0  0  0  0  0  0  0  0  0  0  0
   20.6420   16.9660    6.1760 N   0  0  0  0  0  0  0  0  0  0  0  0
   18.9504   19.6134    8.5356 H   0  0  0  0  0  0  0  0  0  0  0  0
   19.8320   19.3891    6.9867 H   0  0  0  0  0  0  0  0  0  0  0  0
   18.0430   19.5504    6.9867 H   0  0  0  0  0  0  0  0  0  0  0  0
   18.4344   17.4143    8.6986 H   0  0  0  0  0  0  0  0  0  0  0  0
   18.0464   17.2999    6.9282 H   0  0  0  0  0  0  0  0  0  0  0  0
   20.6383   16.0034    9.3695 H   0  0  0  0  0  0  0  0  0  0  0  0
   25.2963   16.4472    8.9325 H   0  0  0  0  0  0  0  0  0  0  0  0
   25.9770   17.2845   11.1811 H   0  0  0  0  0  0  0  0  0  0  0  0
   24.9440   18.7577   12.7388 H   0  0  0  0  0  0  0  0  0  0  0  0
   24.3551   18.8523   15.4707 H   0  0  0  0  0  0  0  0  0  0  0  0
   25.9992   17.1073   15.9090 H   0  0  0  0  0  0  0  0  0  0  0  0
   27.2714   18.0600   15.0720 H   0  0  0  0  0  0  0  0  0  0  0  0
   25.7239   18.8694   17.5834 H   0  0  0  0  0  0  0  0  0  0  0  0
   27.4663   18.3927   17.4744 H   0  0  0  0  0  0  0  0  0  0  0  0
   26.4120   21.9505   15.5826 H   0  0  0  0  0  0  0  0  0  0  0  0
   20.2536   13.0926   11.5449 H   0  0  0  0  0  0  0  0  0  0  0  0
   21.9313   12.8066   12.1544 H   0  0  0  0  0  0  0  0  0  0  0  0
   20.3493   15.3878   12.5318 H   0  0  0  0  0  0  0  0  0  0  0  0
   20.5146   14.1010   13.7623 H   0  0  0  0  0  0  0  0  0  0  0  0
   22.1920   16.0502   13.9047 H   0  0  0  0  0  0  0  0  0  0  0  0
   22.8879   14.3778   13.8762 H   0  0  0  0  0  0  0  0  0  0  0  0
   22.4631   16.0816    5.4672 H   0  0  0  0  0  0  0  0  0  0  0  0
  1  2  1  0
  2  3  1  0
  3  4  2  0
  4  5  1  0
  5  6  1  0
  6  7  2  0
  6  8  2  0
  6  9  1  0
  9 10  2  0
 10 11  1  0
 11 12  2  0
 12 13  1  0
 13 14  2  0
 13 15  1  0
 15 16  1  0
 16 17  1  0
 17 18  1  0
 18 19  1  0
 19 20  2  0
 19 21  1  0
 21 22  1  0
 22 23  2  0
 12 24  1  0
 24 25  2  0
 25 26  1  0
 26 27  1  0
 27 28  1  0
 28 29  1  0
  5 30  1  0
 30 31  2  0
 31  3  1  0
 25  9  1  0
 22 16  1  0
 29 24  1  0
  1 32  1  0
  1 33  1  0
  1 34  1  0
  2 35  1  0
  2 36  1  0
  4 37  1  0
 10 38  1  0
 11 39  1  0
 15 40  1  0
 16 41  1  1
 17 42  1  0
 17 43  1  0
 18 44  1  0
 18 45  1  0
 21 46  1  0
 27 47  1  0
 27 48  1  0
 28 49  1  0
 28 50  1  0
 29 51  1  0
 29 52  1  0
 30 53  1  0
M  END
>  <meeko>  (586) 
{"is_sidechain": [true], "free_energy": -10.68, "intermolecular_energy": 0.0, "internal_energy": -10.68, "cluster_size": 12, "cluster_id": 1, "rank_in_cluster": 1}

>  <_RMSD_MCS_to_ref>  (586) 
0.7286183271553547

$$$$
ligand
     RDKit          3D

 46 49  0  0  0  0  0  0  0  0999 V2000
   18.9090   19.1540    7.5370 C   0  0  0  0  0  0  0  0  0  0  0  0
   18.7730   17.6460    7.6780 C   0  0  0  0  0  0  0  0  0  0  0  0
   20.0880   16.9530    7.5960 C   0  0  0  0  0  0  0  0  0  0  0  0
   20.9270   16.5590    8.6190 C   0  0  0  0  0  0  0  0  0  0  0  0
   21.9730   15.9570    7.9790 N   0  0  0  0  0  0  0  0  0  0  0  0
   23.3400   15.3240    8.7210 S   0  0  0  0  0  6  0  0  0  0  0  0
   24.4550   16.1720    8.3510 O   0  0  0  0  0  0  0  0  0  0  0  0
   23.3060   13.9090    8.4010 O   0  0  0  0  0  0  0  0  0  0  0  0
   23.0970   15.4750   10.4540 C   0  0  0  0  0  0  0  0  0  0  0  0
   23.9050   16.3590   11.1790 C   0  0  0  0  0  0  0  0  0  0  0  0
   23.6970   16.4680   12.5460 C   0  0  0  0  0  0  0  0  0  0  0  0
   24.5560   17.4040   13.3440 C   0  0  0  0  0  0  0  0  0  0  0  0
   25.7030   17.6680   13.0040 O   0  0  0  0  0  0  0  0  0  0  0  0
   23.9590   17.9180   14.4730 N   0  0  0  0  0  0  0  0  0  0  0  0
   24.6850   18.7190   15.4440 C   0  0  1  0  0  0  0  0  0  0  0  0
   25.7840   17.9200   16.1350 C   0  0  0  0  0  0  0  0  0  0  0  0
   26.5210   18.8150   17.1200 C   0  0  0  0  0  0  0  0  0  0  0  0
   27.0680   20.0470   16.4370 C   0  0  0  0  0  0  0  0  0  0  0  0
   28.1180   20.5800   16.7820 O   0  0  0  0  0  0  0  0  0  0  0  0
   26.3110   20.5720   15.4200 N   0  0  0  0  0  0  0  0  0  0  0  0
   25.3130   19.9240   14.7330 C   0  0  0  0  0  0  0  0  0  0  0  0
   24.9500   20.3160   13.6260 O   0  0  0  0  0  0  0  0  0  0  0  0
   22.7630   15.7830   13.2580 N   0  0  0  0  0  0  0  0  0  0  0  0
   22.0120   14.9580   12.5020 C   0  0  0  0  0  0  0  0  0  0  0  0
   20.7710   13.9950   13.1640 S   0  0  0  0  0  0  0  0  0  0  0  0
   20.4460   13.3800   11.5970 C   0  0  0  0  0  0  0  0  0  0  0  0
   21.1970   13.8440   10.6200 N   0  0  0  0  0  0  0  0  0  0  0  0
   22.1080   14.7490   11.1280 C   0  0  0  0  0  0  0  0  0  0  0  0
   21.7690   16.0140    6.6380 C   0  0  0  0  0  0  0  0  0  0  0  0
   20.6260   16.6120    6.3700 N   0  0  0  0  0  0  0  0  0  0  0  0
   18.9504   19.6134    8.5356 H   0  0  0  0  0  0  0  0  0  0  0  0
   19.8320   19.3891    6.9867 H   0  0  0  0  0  0  0  0  0  0  0  0
   18.0430   19.5504    6.9867 H   0  0  0  0  0  0  0  0  0  0  0  0
   18.3142   17.4212    8.6521 H   0  0  0  0  0  0  0  0  0  0  0  0
   18.1481   17.2841    6.8482 H   0  0  0  0  0  0  0  0  0  0  0  0
   20.7857   16.6979    9.7010 H   0  0  0  0  0  0  0  0  0  0  0  0
   24.6844   16.9516   10.6777 H   0  0  0  0  0  0  0  0  0  0  0  0
   22.9599   17.7276   14.6356 H   0  0  0  0  0  0  0  0  0  0  0  0
   23.9701   19.0472   16.2129 H   0  0  0  0  0  0  0  0  0  0  0  0
   25.3366   17.0721   16.6743 H   0  0  0  0  0  0  0  0  0  0  0  0
   26.4919   17.5440   15.3817 H   0  0  0  0  0  0  0  0  0  0  0  0
   25.8250   19.1242   17.9137 H   0  0  0  0  0  0  0  0  0  0  0  0
   27.3639   18.2479   17.5418 H   0  0  0  0  0  0  0  0  0  0  0  0
   26.5099   21.5446   15.1454 H   0  0  0  0  0  0  0  0  0  0  0  0
   19.6536   12.6385   11.4176 H   0  0  0  0  0  0  0  0  0  0  0  0
   22.4612   15.6165    5.8811 H   0  0  0  0  0  0  0  0  0  0  0  0
  1  2  1  0
  2  3  1  0
  3  4  2  0
  4  5  1  0
  5  6  1  0
  6  7  2  0
  6  8  2  0
  6  9  1  0
  9 10  2  0
 10 11  1  0
 11 12  1  0
 12 13  2  0
 12 14  1  0
 14 15  1  0
 15 16  1  0
 16 17  1  0
 17 18  1  0
 18 19  2  0
 18 20  1  0
 20 21  1  0
 21 22  2  0
 11 23  2  0
 23 24  1  0
 24 25  1  0
 25 26  1  0
 26 27  2  0
 27 28  1  0
  5 29  1  0
 29 30  2  0
 30  3  1  0
 28  9  1  0
 21 15  1  0
 28 24  2  0
  1 31  1  0
  1 32  1  0
  1 33  1  0
  2 34  1  0
  2 35  1  0
  4 36  1  0
 10 37  1  0
 14 38  1  0
 15 39  1  1
 16 40  1  0
 16 41  1  0
 17 42  1  0
 17 43  1  0
 20 44  1  0
 26 45  1  0
 29 46  1  0
M  END
>  <meeko>  (587) 
{"is_sidechain": [true], "free_energy": -10.68, "intermolecular_energy": 0.0, "internal_energy": -10.68, "cluster_size": 19, "cluster_id": 1, "rank_in_cluster": 1}

>  <_RMSD_MCS_to_ref>  (587) 
0.6748345476238361

$$$$
ligand
     RDKit          3D

 49 52  0  0  0  0  0  0  0  0999 V2000
   18.9090   19.1540    7.5370 C   0  0  0  0  0  0  0  0  0  0  0  0
   18.7730   17.6460    7.6780 C   0  0  0  0  0  0  0  0  0  0  0  0
   20.0950   16.9660    7.7290 C   0  0  0  0  0  0  0  0  0  0  0  0
   20.9140   16.7400    8.8180 C   0  0  0  0  0  0  0  0  0  0  0  0
   21.9880   16.0750    8.2970 N   0  0  0  0  0  0  0  0  0  0  0  0
   23.3630   15.6250    9.1480 S   0  0  0  0  0  6  0  0  0  0  0  0
   24.3260   16.7000    8.9950 O   0  0  0  0  0  0  0  0  0  0  0  0
   23.6460   14.2800    8.6730 O   0  0  0  0  0  0  0  0  0  0  0  0
   22.8410   15.5400   10.8430 C   0  0  0  0  0  0  0  0  0  0  0  0
   23.4270   16.4870   11.6300 N   0  0  0  0  0  0  0  0  0  0  0  0
   23.0820   16.4850   12.9440 C   0  0  0  0  0  0  0  0  0  0  0  0
   23.7640   17.5070   13.8000 C   0  0  0  0  0  0  0  0  0  0  0  0
   23.2140   17.9890   14.7820 O   0  0  0  0  0  0  0  0  0  0  0  0
   25.0460   17.8230   13.3940 N   0  0  0  0  0  0  0  0  0  0  0  0
   25.9740   18.4620   14.3120 C   0  0  2  0  0  0  0  0  0  0  0  0
   25.7340   17.9940   15.7410 C   0  0  0  0  0  0  0  0  0  0  0  0
   26.7160   18.6870   16.6720 C   0  0  0  0  0  0  0  0  0  0  0  0
   26.6260   20.1910   16.5450 C   0  0  0  0  0  0  0  0  0  0  0  0
   26.7960   20.9420   17.5000 O   0  0  0  0  0  0  0  0  0  0  0  0
   26.3660   20.6870   15.2930 N   0  0  0  0  0  0  0  0  0  0  0  0
   25.7990   19.9890   14.2530 C   0  0  0  0  0  0  0  0  0  0  0  0
   25.1990   20.5800   13.3570 O   0  0  0  0  0  0  0  0  0  0  0  0
   22.1870   15.5900   13.4950 C   0  0  0  0  0  0  0  0  0  0  0  0
   21.6200   14.6430   12.6390 C   0  0  0  0  0  0  0  0  0  0  0  0
   20.6630   13.6500   13.1600 C   0  0  0  0  0  0  0  0  0  0  0  0
   20.3290   13.6280   14.3360 O   0  0  0  0  0  0  0  0  0  0  0  0
   20.1770   12.7570   12.2410 N   0  0  0  0  0  0  0  0  0  0  0  0
   20.5380   12.7770   10.9270 C   0  0  0  0  0  0  0  0  0  0  0  0
   21.3660   13.6280   10.4240 N   0  0  0  0  0  0  0  0  0  0  0  0
   21.9320   14.5870   11.2780 C   0  0  0  0  0  0  0  0  0  0  0  0
   21.8120   15.9230    6.9600 C   0  0  0  0  0  0  0  0  0  0  0  0
   20.6710   16.4610    6.5800 N   0  0  0  0  0  0  0  0  0  0  0  0
   18.9504   19.6134    8.5356 H   0  0  0  0  0  0  0  0  0  0  0  0
   19.8320   19.3891    6.9867 H   0  0  0  0  0  0  0  0  0  0  0  0
   18.0430   19.5504    6.9867 H   0  0  0  0  0  0  0  0  0  0  0  0
   18.2246   17.4248    8.6055 H   0  0  0  0  0  0  0  0  0  0  0  0
   18.2337   17.2711    6.7956 H   0  0  0  0  0  0  0  0  0  0  0  0
   20.7412   17.0292    9.8651 H   0  0  0  0  0  0  0  0  0  0  0  0
   25.3465   17.6041   12.4334 H   0  0  0  0  0  0  0  0  0  0  0  0
   26.9953   18.1862   14.0107 H   0  0  0  0  0  0  0  0  0  0  0  0
   24.7056   18.2437   16.0409 H   0  0  0  0  0  0  0  0  0  0  0  0
   25.8785   16.9051   15.7997 H   0  0  0  0  0  0  0  0  0  0  0  0
   26.4889   18.4008   17.7096 H   0  0  0  0  0  0  0  0  0  0  0  0
   27.7344   18.3757   16.3963 H   0  0  0  0  0  0  0  0  0  0  0  0
   26.6180   21.6699   15.1161 H   0  0  0  0  0  0  0  0  0  0  0  0
   21.9309   15.6213   14.5643 H   0  0  0  0  0  0  0  0  0  0  0  0
   19.5095   12.0391   12.5573 H   0  0  0  0  0  0  0  0  0  0  0  0
   20.0977   12.0239   10.2570 H   0  0  0  0  0  0  0  0  0  0  0  0
   22.5228   15.4207    6.2874 H   0  0  0  0  0  0  0  0  0  0  0  0
  1  2  1  0
  2  3  1  0
  3  4  2  0
  4  5  1  0
  5  6  1  0
  6  7  2  0
  6  8  2  0
  6  9  1  0
  9 10  2  0
 10 11  1  0
 11 12  1  0
 12 13  2  0
 12 14  1  0
 14 15  1  0
 15 16  1  0
 16 17  1  0
 17 18  1  0
 18 19  2  0
 18 20  1  0
 20 21  1  0
 21 22  2  0
 11 23  2  0
 23 24  1  0
 24 25  1  0
 25 26  2  0
 25 27  1  0
 27 28  1  0
 28 29  2  0
 29 30  1  0
  5 31  1  0
 31 32  2  0
 32  3  1  0
 30  9  1  0
 21 15  1  0
 30 24  2  0
  1 33  1  0
  1 34  1  0
  1 35  1  0
  2 36  1  0
  2 37  1  0
  4 38  1  0
 14 39  1  0
 15 40  1  6
 16 41  1  0
 16 42  1  0
 17 43  1  0
 17 44  1  0
 20 45  1  0
 23 46  1  0
 27 47  1  0
 28 48  1  0
 31 49  1  0
M  END
>  <meeko>  (588) 
{"is_sidechain": [true], "free_energy": -10.68, "intermolecular_energy": 0.0, "internal_energy": -10.68, "cluster_size": 18, "cluster_id": 1, "rank_in_cluster": 1}

>  <_RMSD_MCS_to_ref>  (588) 
0.6526216361721395

$$$$
ligand
     RDKit          3D

 56 60  0  0  0  0  0  0  0  0999 V2000
   18.8250   19.0180    7.5350 C   0  0  0  0  0  0  0  0  0  0  0  0
   18.5200   17.5410    7.7330 C   0  0  0  0  0  0  0  0  0  0  0  0
   19.7550   16.7430    7.9590 C   0  0  0  0  0  0  0  0  0  0  0  0
   20.5690   16.6980    9.0750 C   0  0  0  0  0  0  0  0  0  0  0  0
   21.5640   15.8310    8.7250 N   0  0  0  0  0  0  0  0  0  0  0  0
   22.8180   15.3340    9.7220 S   0  0  0  0  0  6  0  0  0  0  0  0
   23.0760   13.9710    9.2970 O   0  0  0  0  0  0  0  0  0  0  0  0
   23.8530   16.3450    9.6570 O   0  0  0  0  0  0  0  0  0  0  0  0
   22.1720   15.2980   11.3790 C   0  0  0  0  0  0  0  0  0  0  0  0
   21.0440   14.5160   11.7340 C   0  0  0  0  0  0  0  0  0  0  0  0
   20.2790   13.6840   10.7960 C   0  0  0  0  0  0  0  0  0  0  0  0
   20.7780   12.4410   10.3740 C   0  0  0  0  0  0  0  0  0  0  0  0
   20.0530   11.6440    9.4870 C   0  0  0  0  0  0  0  0  0  0  0  0
   18.8120   12.0700    9.0200 C   0  0  0  0  0  0  0  0  0  0  0  0
   18.2920   13.2900    9.4470 C   0  0  0  0  0  0  0  0  0  0  0  0
   19.0180   14.0880   10.3340 C   0  0  0  0  0  0  0  0  0  0  0  0
   20.5940   14.5370   13.0830 C   0  0  0  0  0  0  0  0  0  0  0  0
   21.2190   15.3100   14.0610 C   0  0  0  0  0  0  0  0  0  0  0  0
   22.3000   16.0680   13.6660 C   0  0  0  0  0  0  0  0  0  0  0  0
   22.7880   16.0790   12.3590 C   0  0  0  0  0  0  0  0  0  0  0  0
   23.9760   16.9920   12.2920 C   0  0  0  0  0  0  0  0  0  0  0  0
   24.0370   17.5550   13.6340 N   0  0  0  0  0  0  0  0  0  0  0  0
   25.1990   18.2760   14.1420 C   0  0  2  0  0  0  0  0  0  0  0  0
   25.5430   17.8950   15.5780 C   0  0  0  0  0  0  0  0  0  0  0  0
   26.8080   18.6230   16.0040 C   0  0  0  0  0  0  0  0  0  0  0  0
   26.6630   20.1180   15.8360 C   0  0  0  0  0  0  0  0  0  0  0  0
   27.1940   20.9190   16.5990 O   0  0  0  0  0  0  0  0  0  0  0  0
   25.9230   20.5470   14.7640 N   0  0  0  0  0  0  0  0  0  0  0  0
   25.0060   19.8000   14.0600 C   0  0  0  0  0  0  0  0  0  0  0  0
   24.1090   20.3530   13.4250 O   0  0  0  0  0  0  0  0  0  0  0  0
   23.1200   16.9650   14.4870 C   0  0  0  0  0  0  0  0  0  0  0  0
   22.9920   17.1280   15.6840 O   0  0  0  0  0  0  0  0  0  0  0  0
   21.3200   15.3470    7.4810 C   0  0  0  0  0  0  0  0  0  0  0  0
   20.2330   15.8960    6.9800 N   0  0  0  0  0  0  0  0  0  0  0  0
   18.9258   19.5062    8.5155 H   0  0  0  0  0  0  0  0  0  0  0  0
   19.7645   19.1263    6.9731 H   0  0  0  0  0  0  0  0  0  0  0  0
   18.0053   19.4896    6.9731 H   0  0  0  0  0  0  0  0  0  0  0  0
   17.8597   17.4285    8.6055 H   0  0  0  0  0  0  0  0  0  0  0  0
   18.0368   17.1679    6.8180 H   0  0  0  0  0  0  0  0  0  0  0  0
   20.4441   17.2365   10.0260 H   0  0  0  0  0  0  0  0  0  0  0  0
   21.7520   12.0914   10.7471 H   0  0  0  0  0  0  0  0  0  0  0  0
   20.4623   10.6780    9.1563 H   0  0  0  0  0  0  0  0  0  0  0  0
   18.2437   11.4447    8.3157 H   0  0  0  0  0  0  0  0  0  0  0  0
   17.3087   13.6250    9.0852 H   0  0  0  0  0  0  0  0  0  0  0  0
   18.5956   15.0450   10.6743 H   0  0  0  0  0  0  0  0  0  0  0  0
   19.7251   13.9238   13.3639 H   0  0  0  0  0  0  0  0  0  0  0  0
   20.8646   15.3145   15.1023 H   0  0  0  0  0  0  0  0  0  0  0  0
   24.8925   16.4307   12.0574 H   0  0  0  0  0  0  0  0  0  0  0  0
   23.8894   17.7568   11.5061 H   0  0  0  0  0  0  0  0  0  0  0  0
   26.0361   17.9796   13.4928 H   0  0  0  0  0  0  0  0  0  0  0  0
   24.7139   18.1804   16.2422 H   0  0  0  0  0  0  0  0  0  0  0  0
   25.7049   16.8088   15.6414 H   0  0  0  0  0  0  0  0  0  0  0  0
   27.0116   18.3991   17.0616 H   0  0  0  0  0  0  0  0  0  0  0  0
   27.6373   18.2805   15.3676 H   0  0  0  0  0  0  0  0  0  0  0  0
   26.0670   21.5195   14.4569 H   0  0  0  0  0  0  0  0  0  0  0  0
   21.9422   14.6015    6.9642 H   0  0  0  0  0  0  0  0  0  0  0  0
  1  2  1  0
  2  3  1  0
  3  4  2  0
  4  5  1  0
  5  6  1  0
  6  7  2  0
  6  8  2  0
  6  9  1  0
  9 10  1  0
 10 11  1  0
 11 12  2  0
 12 13  1  0
 13 14  2  0
 14 15  1  0
 15 16  2  0
 10 17  2  0
 17 18  1  0
 18 19  2  0
 19 20  1  0
 20 21  1  0
 21 22  1  0
 22 23  1  0
 23 24  1  0
 24 25  1  0
 25 26  1  0
 26 27  2  0
 26 28  1  0
 28 29  1  0
 29 30  2  0
 22 31  1  0
 31 32  2  0
  5 33  1  0
 33 34  2  0
 34  3  1  0
 20  9  2  0
 29 23  1  0
 16 11  1  0
 31 19  1  0
  1 35  1  0
  1 36  1  0
  1 37  1  0
  2 38  1  0
  2 39  1  0
  4 40  1  0
 12 41  1  0
 13 42  1  0
 14 43  1  0
 15 44  1  0
 16 45  1  0
 17 46  1  0
 18 47  1  0
 21 48  1  0
 21 49  1  0
 23 50  1  6
 24 51  1  0
 24 52  1  0
 25 53  1  0
 25 54  1  0
 28 55  1  0
 33 56  1  0
M  END
>  <meeko>  (589) 
{"is_sidechain": [true], "free_energy": -10.67, "intermolecular_energy": 0.0, "internal_energy": -10.67, "cluster_size": 12, "cluster_id": 1, "rank_in_cluster": 1}

>  <_RMSD_MCS_to_ref>  (589) 
1.591611604632236

$$$$
ligand
     RDKit          3D

 56 60  0  0  0  0  0  0  0  0999 V2000
   18.8250   19.0170    7.5350 C   0  0  0  0  0  0  0  0  0  0  0  0
   18.5200   17.5420    7.7330 C   0  0  0  0  0  0  0  0  0  0  0  0
   19.7540   16.7120    7.7770 C   0  0  0  0  0  0  0  0  0  0  0  0
   20.2530   15.9520    8.8180 C   0  0  0  0  0  0  0  0  0  0  0  0
   21.3980   15.4050    8.3120 N   0  0  0  0  0  0  0  0  0  0  0  0
   22.4170   14.3510    9.1250 S   0  0  0  0  0  6  0  0  0  0  0  0
   21.5460   13.2570    9.5170 O   0  0  0  0  0  0  0  0  0  0  0  0
   23.5760   14.1310    8.2840 O   0  0  0  0  0  0  0  0  0  0  0  0
   22.9380   15.2040   10.6040 C   0  0  0  0  0  0  0  0  0  0  0  0
   21.9620   15.3410   11.6280 C   0  0  0  0  0  0  0  0  0  0  0  0
   22.2620   15.9980   12.8200 C   0  0  0  0  0  0  0  0  0  0  0  0
   23.5400   16.4930   12.9620 C   0  0  0  0  0  0  0  0  0  0  0  0
   24.5160   16.3620   11.9720 C   0  0  0  0  0  0  0  0  0  0  0  0
   24.2480   15.7140   10.7620 C   0  0  0  0  0  0  0  0  0  0  0  0
   25.3200   15.5980    9.7700 C   0  0  0  0  0  0  0  0  0  0  0  0
   25.3330   16.4220    8.6330 C   0  0  0  0  0  0  0  0  0  0  0  0
   26.3620   16.3290    7.6950 C   0  0  0  0  0  0  0  0  0  0  0  0
   27.3990   15.4190    7.8870 C   0  0  0  0  0  0  0  0  0  0  0  0
   27.4110   14.6060    9.0180 C   0  0  0  0  0  0  0  0  0  0  0  0
   26.3790   14.6990    9.9560 C   0  0  0  0  0  0  0  0  0  0  0  0
   25.7860   17.0060   12.4420 C   0  0  0  0  0  0  0  0  0  0  0  0
   25.4540   17.4350   13.7930 N   0  0  0  0  0  0  0  0  0  0  0  0
   26.2740   18.3630   14.5630 C   0  0  1  0  0  0  0  0  0  0  0  0
   25.7140   19.7810   14.5620 C   0  0  0  0  0  0  0  0  0  0  0  0
   26.6660   20.7010   15.3120 C   0  0  0  0  0  0  0  0  0  0  0  0
   26.9230   20.1950   16.7130 C   0  0  0  0  0  0  0  0  0  0  0  0
   27.0760   20.9520   17.6670 O   0  0  0  0  0  0  0  0  0  0  0  0
   26.9960   18.8340   16.8700 N   0  0  0  0  0  0  0  0  0  0  0  0
   26.4550   17.8990   16.0190 C   0  0  0  0  0  0  0  0  0  0  0  0
   26.1430   16.7850   16.4360 O   0  0  0  0  0  0  0  0  0  0  0  0
   24.1200   17.2180   14.0960 C   0  0  0  0  0  0  0  0  0  0  0  0
   23.5110   17.5540   15.0930 O   0  0  0  0  0  0  0  0  0  0  0  0
   21.5520   15.8010    7.0230 C   0  0  0  0  0  0  0  0  0  0  0  0
   20.5760   16.6130    6.6720 N   0  0  0  0  0  0  0  0  0  0  0  0
   18.9260   19.5054    8.5155 H   0  0  0  0  0  0  0  0  0  0  0  0
   19.7645   19.1250    6.9731 H   0  0  0  0  0  0  0  0  0  0  0  0
   18.0054   19.4887    6.9731 H   0  0  0  0  0  0  0  0  0  0  0  0
   17.9756   17.4173    8.6807 H   0  0  0  0  0  0  0  0  0  0  0  0
   17.9175   17.2047    6.8767 H   0  0  0  0  0  0  0  0  0  0  0  0
   19.8262   15.8183    9.8230 H   0  0  0  0  0  0  0  0  0  0  0  0
   20.9558   14.9227   11.4777 H   0  0  0  0  0  0  0  0  0  0  0  0
   21.5101   16.1164   13.6141 H   0  0  0  0  0  0  0  0  0  0  0  0
   24.5223   17.1495    8.4799 H   0  0  0  0  0  0  0  0  0  0  0  0
   26.3542   16.9742    6.8041 H   0  0  0  0  0  0  0  0  0  0  0  0
   28.2081   15.3424    7.1457 H   0  0  0  0  0  0  0  0  0  0  0  0
   28.2324   13.8910    9.1729 H   0  0  0  0  0  0  0  0  0  0  0  0
   26.3982   14.0592   10.8506 H   0  0  0  0  0  0  0  0  0  0  0  0
   26.6163   16.2845   12.4489 H   0  0  0  0  0  0  0  0  0  0  0  0
   26.1198   17.8304   11.7947 H   0  0  0  0  0  0  0  0  0  0  0  0
   27.2522   18.3724   14.0600 H   0  0  0  0  0  0  0  0  0  0  0  0
   25.6052   20.1319   13.5251 H   0  0  0  0  0  0  0  0  0  0  0  0
   24.7310   19.7881   15.0557 H   0  0  0  0  0  0  0  0  0  0  0  0
   27.6205   20.7509   14.7676 H   0  0  0  0  0  0  0  0  0  0  0  0
   26.2064   21.6981   15.3800 H   0  0  0  0  0  0  0  0  0  0  0  0
   27.4996   18.4821   17.6967 H   0  0  0  0  0  0  0  0  0  0  0  0
   22.3756   15.4880    6.3644 H   0  0  0  0  0  0  0  0  0  0  0  0
  1  2  1  0
  2  3  1  0
  3  4  2  0
  4  5  1  0
  5  6  1  0
  6  7  2  0
  6  8  2  0
  6  9  1  0
  9 10  2  0
 10 11  1  0
 11 12  2  0
 12 13  1  0
 13 14  2  0
 14 15  1  0
 15 16  2  0
 16 17  1  0
 17 18  2  0
 18 19  1  0
 19 20  2  0
 13 21  1  0
 21 22  1  0
 22 23  1  0
 23 24  1  0
 24 25  1  0
 25 26  1  0
 26 27  2  0
 26 28  1  0
 28 29  1  0
 29 30  2  0
 22 31  1  0
 31 32  2  0
  5 33  1  0
 33 34  2  0
 34  3  1  0
 14  9  1  0
 20 15  1  0
 29 23  1  0
 31 12  1  0
  1 35  1  0
  1 36  1  0
  1 37  1  0
  2 38  1  0
  2 39  1  0
  4 40  1  0
 10 41  1  0
 11 42  1  0
 16 43  1  0
 17 44  1  0
 18 45  1  0
 19 46  1  0
 20 47  1  0
 21 48  1  0
 21 49  1  0
 23 50  1  6
 24 51  1  0
 24 52  1  0
 25 53  1  0
 25 54  1  0
 28 55  1  0
 33 56  1  0
M  END
>  <meeko>  (590) 
{"is_sidechain": [true], "free_energy": -10.67, "intermolecular_energy": 0.0, "internal_energy": -10.67, "cluster_size": 15, "cluster_id": 1, "rank_in_cluster": 1}

>  <_RMSD_MCS_to_ref>  (590) 
1.8491307417270422

$$$$
ligand
     RDKit          3D

 46 49  0  0  0  0  0  0  0  0999 V2000
   18.9090   19.1540    7.5370 C   0  0  0  0  0  0  0  0  0  0  0  0
   18.7730   17.6460    7.6780 C   0  0  0  0  0  0  0  0  0  0  0  0
   20.0720   16.9440    7.4980 C   0  0  0  0  0  0  0  0  0  0  0  0
   20.6230   15.9370    8.2650 C   0  0  0  0  0  0  0  0  0  0  0  0
   21.7950   15.6360    7.6340 N   0  0  0  0  0  0  0  0  0  0  0  0
   22.8550   14.3730    7.9860 S   0  0  0  0  0  6  0  0  0  0  0  0
   22.1280   13.1890    7.5550 O   0  0  0  0  0  0  0  0  0  0  0  0
   24.1230   14.7110    7.3640 O   0  0  0  0  0  0  0  0  0  0  0  0
   23.0330   14.2530    9.6010 O   0  0  0  0  0  0  0  0  0  0  0  0
   23.7860   15.1670   10.2930 C   0  0  0  0  0  0  0  0  0  0  0  0
   25.0470   15.4710    9.7670 C   0  0  0  0  0  0  0  0  0  0  0  0
   25.8780   16.3690   10.4440 C   0  0  0  0  0  0  0  0  0  0  0  0
   25.3990   16.9150   11.6160 C   0  0  0  0  0  0  0  0  0  0  0  0
   24.1410   16.5380   12.0490 C   0  0  0  0  0  0  0  0  0  0  0  0
   23.3090   15.6770   11.4390 N   0  0  0  0  0  0  0  0  0  0  0  0
   23.8560   17.2400   13.3140 C   0  0  0  0  0  0  0  0  0  0  0  0
   22.8760   17.0820   14.0160 O   0  0  0  0  0  0  0  0  0  0  0  0
   24.9390   18.0860   13.5460 N   0  0  0  0  0  0  0  0  0  0  0  0
   25.1870   18.7670   14.8140 C   0  0  1  0  0  0  0  0  0  0  0  0
   26.2110   18.0660   15.7070 C   0  0  0  0  0  0  0  0  0  0  0  0
   26.3450   18.8300   17.0140 C   0  0  0  0  0  0  0  0  0  0  0  0
   26.7240   20.2730   16.7710 C   0  0  0  0  0  0  0  0  0  0  0  0
   27.2800   20.9560   17.6270 O   0  0  0  0  0  0  0  0  0  0  0  0
   26.3400   20.8180   15.5720 N   0  0  0  0  0  0  0  0  0  0  0  0
   25.5880   20.2320   14.5800 C   0  0  0  0  0  0  0  0  0  0  0  0
   25.1860   20.8960   13.6250 O   0  0  0  0  0  0  0  0  0  0  0  0
   26.0110   17.8650   12.5830 C   0  0  0  0  0  0  0  0  0  0  0  0
   21.9310   16.4370    6.5450 C   0  0  0  0  0  0  0  0  0  0  0  0
   20.9050   17.2560    6.4390 N   0  0  0  0  0  0  0  0  0  0  0  0
   18.9504   19.6134    8.5356 H   0  0  0  0  0  0  0  0  0  0  0  0
   19.8320   19.3891    6.9867 H   0  0  0  0  0  0  0  0  0  0  0  0
   18.0430   19.5504    6.9867 H   0  0  0  0  0  0  0  0  0  0  0  0
   18.3834   17.4180    8.6811 H   0  0  0  0  0  0  0  0  0  0  0  0
   18.0881   17.2944    6.8923 H   0  0  0  0  0  0  0  0  0  0  0  0
   20.2110   15.4810    9.1773 H   0  0  0  0  0  0  0  0  0  0  0  0
   25.3819   15.0068    8.8277 H   0  0  0  0  0  0  0  0  0  0  0  0
   26.8742   16.6295   10.0570 H   0  0  0  0  0  0  0  0  0  0  0  0
   24.2333   18.7313   15.3609 H   0  0  0  0  0  0  0  0  0  0  0  0
   25.8756   17.0391   15.9145 H   0  0  0  0  0  0  0  0  0  0  0  0
   27.1850   18.0356   15.1967 H   0  0  0  0  0  0  0  0  0  0  0  0
   25.3840   18.7971   17.5483 H   0  0  0  0  0  0  0  0  0  0  0  0
   27.1392   18.3586   17.6116 H   0  0  0  0  0  0  0  0  0  0  0  0
   26.6526   21.7829   15.3927 H   0  0  0  0  0  0  0  0  0  0  0  0
   26.2975   18.8043   12.0874 H   0  0  0  0  0  0  0  0  0  0  0  0
   26.9348   17.4827   13.0418 H   0  0  0  0  0  0  0  0  0  0  0  0
   22.7812   16.4058    5.8477 H   0  0  0  0  0  0  0  0  0  0  0  0
  1  2  1  0
  2  3  1  0
  3  4  2  0
  4  5  1  0
  5  6  1  0
  6  7  2  0
  6  8  2  0
  6  9  1  0
  9 10  1  0
 10 11  2  0
 11 12  1  0
 12 13  2  0
 13 14  1  0
 14 15  2  0
 14 16  1  0
 16 17  2  0
 16 18  1  0
 18 19  1  0
 19 20  1  0
 20 21  1  0
 21 22  1  0
 22 23  2  0
 22 24  1  0
 24 25  1  0
 25 26  2  0
 18 27  1  0
  5 28  1  0
 28 29  2  0
 29  3  1  0
 15 10  1  0
 25 19  1  0
 27 13  1  0
  1 30  1  0
  1 31  1  0
  1 32  1  0
  2 33  1  0
  2 34  1  0
  4 35  1  0
 11 36  1  0
 12 37  1  0
 19 38  1  1
 20 39  1  0
 20 40  1  0
 21 41  1  0
 21 42  1  0
 24 43  1  0
 27 44  1  0
 27 45  1  0
 28 46  1  0
M  END
>  <meeko>  (591) 
{"is_sidechain": [true], "free_energy": -10.67, "intermolecular_energy": 0.0, "internal_energy": -10.67, "cluster_size": 20, "cluster_id": 1, "rank_in_cluster": 1}

>  <_RMSD_MCS_to_ref>  (591) 
1.6188855514122755

$$$$
ligand
     RDKit          3D

 48 51  0  0  0  0  0  0  0  0999 V2000
   18.9090   19.1540    7.5370 C   0  0  0  0  0  0  0  0  0  0  0  0
   18.7730   17.6460    7.6780 C   0  0  0  0  0  0  0  0  0  0  0  0
   20.0890   16.9550    7.6180 C   0  0  0  0  0  0  0  0  0  0  0  0
   20.9890   16.7100    8.6360 C   0  0  0  0  0  0  0  0  0  0  0  0
   22.0070   16.0340    8.0270 N   0  0  0  0  0  0  0  0  0  0  0  0
   23.4340   15.5440    8.7620 S   0  0  0  0  0  6  0  0  0  0  0  0
   24.3790   16.6330    8.6170 O   0  0  0  0  0  0  0  0  0  0  0  0
   23.6920   14.2220    8.2200 O   0  0  0  0  0  0  0  0  0  0  0  0
   23.0740   15.3540   10.4720 C   0  0  0  0  0  0  0  0  0  0  0  0
   23.9720   15.8730   11.4220 C   0  0  0  0  0  0  0  0  0  0  0  0
   23.7270   15.7390   12.7960 C   0  0  0  0  0  0  0  0  0  0  0  0
   24.6650   16.2860   13.8170 C   0  0  0  0  0  0  0  0  0  0  0  0
   25.2100   15.5370   14.6190 O   0  0  0  0  0  0  0  0  0  0  0  0
   24.8990   17.6420   13.7800 N   0  0  0  0  0  0  0  0  0  0  0  0
   25.9060   18.2510   14.6400 C   0  0  2  0  0  0  0  0  0  0  0  0
   25.6570   17.9560   16.1160 C   0  0  0  0  0  0  0  0  0  0  0  0
   26.7150   18.6520   16.9570 C   0  0  0  0  0  0  0  0  0  0  0  0
   26.7510   20.1370   16.6780 C   0  0  0  0  0  0  0  0  0  0  0  0
   27.0300   20.9620   17.5420 O   0  0  0  0  0  0  0  0  0  0  0  0
   26.4860   20.5270   15.3900 N   0  0  0  0  0  0  0  0  0  0  0  0
   25.8800   19.7670   14.4210 C   0  0  0  0  0  0  0  0  0  0  0  0
   25.3660   20.2850   13.4300 O   0  0  0  0  0  0  0  0  0  0  0  0
   22.5600   15.1010   13.2540 C   0  0  0  0  0  0  0  0  0  0  0  0
   21.6520   14.5810   12.3160 C   0  0  0  0  0  0  0  0  0  0  0  0
   20.4110   13.8940   12.3840 C   0  0  0  0  0  0  0  0  0  0  0  0
   20.0220   13.6630   11.0850 C   0  0  0  0  0  0  0  0  0  0  0  0
   20.9370   14.1680   10.2200 O   0  0  0  0  0  0  0  0  0  0  0  0
   21.9350   14.7230   10.9610 C   0  0  0  0  0  0  0  0  0  0  0  0
   21.7300   15.9060    6.7040 C   0  0  0  0  0  0  0  0  0  0  0  0
   20.5650   16.4530    6.4220 N   0  0  0  0  0  0  0  0  0  0  0  0
   18.9504   19.6134    8.5356 H   0  0  0  0  0  0  0  0  0  0  0  0
   19.8320   19.3891    6.9867 H   0  0  0  0  0  0  0  0  0  0  0  0
   18.0430   19.5504    6.9867 H   0  0  0  0  0  0  0  0  0  0  0  0
   18.2990   17.4220    8.6450 H   0  0  0  0  0  0  0  0  0  0  0  0
   18.1620   17.2821    6.8388 H   0  0  0  0  0  0  0  0  0  0  0  0
   20.9051   16.9944    9.6953 H   0  0  0  0  0  0  0  0  0  0  0  0
   24.8803   16.3919   11.0818 H   0  0  0  0  0  0  0  0  0  0  0  0
   24.3553   18.2341   13.1361 H   0  0  0  0  0  0  0  0  0  0  0  0
   26.8855   17.8255   14.3763 H   0  0  0  0  0  0  0  0  0  0  0  0
   24.6607   18.3253   16.4008 H   0  0  0  0  0  0  0  0  0  0  0  0
   25.7082   16.8706   16.2868 H   0  0  0  0  0  0  0  0  0  0  0  0
   26.4879   18.4931   18.0215 H   0  0  0  0  0  0  0  0  0  0  0  0
   27.6966   18.2272   16.7001 H   0  0  0  0  0  0  0  0  0  0  0  0
   26.7687   21.4812   15.1246 H   0  0  0  0  0  0  0  0  0  0  0  0
   22.3608   15.0103   14.3320 H   0  0  0  0  0  0  0  0  0  0  0  0
   19.8680   13.6038   13.2956 H   0  0  0  0  0  0  0  0  0  0  0  0
   19.0993   13.1423   10.7893 H   0  0  0  0  0  0  0  0  0  0  0  0
   22.3861   15.4146    5.9705 H   0  0  0  0  0  0  0  0  0  0  0  0
  1  2  1  0
  2  3  1  0
  3  4  2  0
  4  5  1  0
  5  6  1  0
  6  7  2  0
  6  8  2  0
  6  9  1  0
  9 10  2  0
 10 11  1  0
 11 12  1  0
 12 13  2  0
 12 14  1  0
 14 15  1  0
 15 16  1  0
 16 17  1  0
 17 18  1  0
 18 19  2  0
 18 20  1  0
 20 21  1  0
 21 22  2  0
 11 23  2  0
 23 24  1  0
 24 25  1  0
 25 26  2  0
 26 27  1  0
 27 28  1  0
  5 29  1  0
 29 30  2  0
 30  3  1  0
 28  9  1  0
 21 15  1  0
 28 24  2  0
  1 31  1  0
  1 32  1  0
  1 33  1  0
  2 34  1  0
  2 35  1  0
  4 36  1  0
 10 37  1  0
 14 38  1  0
 15 39  1  6
 16 40  1  0
 16 41  1  0
 17 42  1  0
 17 43  1  0
 20 44  1  0
 23 45  1  0
 25 46  1  0
 26 47  1  0
 29 48  1  0
M  END
>  <meeko>  (592) 
{"is_sidechain": [true], "free_energy": -10.67, "intermolecular_energy": 0.0, "internal_energy": -10.67, "cluster_size": 20, "cluster_id": 1, "rank_in_cluster": 1}

>  <_RMSD_MCS_to_ref>  (592) 
0.6343449815010402

$$$$
ligand
     RDKit          3D

 48 51  0  0  0  0  0  0  0  0999 V2000
   18.9090   19.1540    7.5370 C   0  0  0  0  0  0  0  0  0  0  0  0
   18.7730   17.6460    7.6780 C   0  0  0  0  0  0  0  0  0  0  0  0
   20.0310   16.9340    7.3260 C   0  0  0  0  0  0  0  0  0  0  0  0
   20.9550   16.3380    8.1630 C   0  0  0  0  0  0  0  0  0  0  0  0
   21.8940   15.8270    7.3130 N   0  0  0  0  0  0  0  0  0  0  0  0
   23.3390   15.1080    7.7560 S   0  0  0  0  0  6  0  0  0  0  0  0
   24.3490   15.6250    6.8530 O   0  0  0  0  0  0  0  0  0  0  0  0
   23.0690   13.6880    7.8830 O   0  0  0  0  0  0  0  0  0  0  0  0
   23.7930   15.6620    9.3560 C   0  0  0  0  0  0  0  0  0  0  0  0
   24.8190   16.4560    9.6210 N   0  0  0  0  0  0  0  0  0  0  0  0
   24.8050   16.6350   10.9790 C   0  0  0  0  0  0  0  0  0  0  0  0
   23.7710   15.9340   11.5550 C   0  0  0  0  0  0  0  0  0  0  0  0
   23.2750   15.7310   12.8810 C   0  0  0  0  0  0  0  0  0  0  0  0
   23.9240   16.4090   14.0500 C   0  0  0  0  0  0  0  0  0  0  0  0
   24.0900   15.8360   15.1210 O   0  0  0  0  0  0  0  0  0  0  0  0
   24.2580   17.7260   13.8490 N   0  0  0  0  0  0  0  0  0  0  0  0
   24.7180   18.5650   14.9480 C   0  0  1  0  0  0  0  0  0  0  0  0
   25.8440   17.9130   15.7430 C   0  0  0  0  0  0  0  0  0  0  0  0
   26.3020   18.8590   16.8430 C   0  0  0  0  0  0  0  0  0  0  0  0
   26.7140   20.1980   16.2770 C   0  0  0  0  0  0  0  0  0  0  0  0
   27.6240   20.8650   16.7570 O   0  0  0  0  0  0  0  0  0  0  0  0
   25.9950   20.6570   15.2010 N   0  0  0  0  0  0  0  0  0  0  0  0
   25.2220   19.8890   14.3680 C   0  0  0  0  0  0  0  0  0  0  0  0
   24.9490   20.2610   13.2260 O   0  0  0  0  0  0  0  0  0  0  0  0
   22.1720   14.9670   13.0510 C   0  0  0  0  0  0  0  0  0  0  0  0
   21.5070   14.3190   11.9320 C   0  0  0  0  0  0  0  0  0  0  0  0
   21.9870   14.5040   10.6920 C   0  0  0  0  0  0  0  0  0  0  0  0
   23.1120   15.3110   10.5020 N   0  0  0  0  0  0  0  0  0  0  0  0
   21.5710   16.1640    6.0380 C   0  0  0  0  0  0  0  0  0  0  0  0
   20.4250   16.8110    6.0080 N   0  0  0  0  0  0  0  0  0  0  0  0
   18.9504   19.6134    8.5356 H   0  0  0  0  0  0  0  0  0  0  0  0
   19.8320   19.3891    6.9867 H   0  0  0  0  0  0  0  0  0  0  0  0
   18.0430   19.5504    6.9867 H   0  0  0  0  0  0  0  0  0  0  0  0
   18.5116   17.4096    8.7200 H   0  0  0  0  0  0  0  0  0  0  0  0
   17.9889   17.3107    6.9832 H   0  0  0  0  0  0  0  0  0  0  0  0
   20.9381   16.2869    9.2617 H   0  0  0  0  0  0  0  0  0  0  0  0
   25.5238   17.2557   11.5341 H   0  0  0  0  0  0  0  0  0  0  0  0
   24.1819   18.1281   12.9038 H   0  0  0  0  0  0  0  0  0  0  0  0
   23.8732   18.7206   15.6352 H   0  0  0  0  0  0  0  0  0  0  0  0
   25.4812   16.9767   16.1921 H   0  0  0  0  0  0  0  0  0  0  0  0
   26.6880   17.6950   15.0720 H   0  0  0  0  0  0  0  0  0  0  0  0
   25.4761   19.0090   17.5539 H   0  0  0  0  0  0  0  0  0  0  0  0
   27.1716   18.4118   17.3467 H   0  0  0  0  0  0  0  0  0  0  0  0
   26.0401   21.6666   15.0020 H   0  0  0  0  0  0  0  0  0  0  0  0
   21.7665   14.8320   14.0646 H   0  0  0  0  0  0  0  0  0  0  0  0
   20.6230   13.6861   12.0992 H   0  0  0  0  0  0  0  0  0  0  0  0
   21.4982   14.0237    9.8315 H   0  0  0  0  0  0  0  0  0  0  0  0
   22.1816   15.9292    5.1537 H   0  0  0  0  0  0  0  0  0  0  0  0
  1  2  1  0
  2  3  1  0
  3  4  2  0
  4  5  1  0
  5  6  1  0
  6  7  2  0
  6  8  2  0
  6  9  1  0
  9 10  2  0
 10 11  1  0
 11 12  2  0
 12 13  1  0
 13 14  1  0
 14 15  2  0
 14 16  1  0
 16 17  1  0
 17 18  1  0
 18 19  1  0
 19 20  1  0
 20 21  2  0
 20 22  1  0
 22 23  1  0
 23 24  2  0
 13 25  2  0
 25 26  1  0
 26 27  2  0
 27 28  1  0
  5 29  1  0
 29 30  2  0
 30  3  1  0
 28  9  1  0
 28 12  1  0
 23 17  1  0
  1 31  1  0
  1 32  1  0
  1 33  1  0
  2 34  1  0
  2 35  1  0
  4 36  1  0
 11 37  1  0
 16 38  1  0
 17 39  1  1
 18 40  1  0
 18 41  1  0
 19 42  1  0
 19 43  1  0
 22 44  1  0
 25 45  1  0
 26 46  1  0
 27 47  1  0
 29 48  1  0
M  END
>  <meeko>  (593) 
{"is_sidechain": [true], "free_energy": -10.67, "intermolecular_energy": 0.0, "internal_energy": -10.67, "cluster_size": 11, "cluster_id": 1, "rank_in_cluster": 1}

>  <_RMSD_MCS_to_ref>  (593) 
0.35108751678811456

$$$$
ligand
     RDKit          3D

 48 51  0  0  0  0  0  0  0  0999 V2000
   18.9090   19.1540    7.5370 C   0  0  0  0  0  0  0  0  0  0  0  0
   18.7730   17.6460    7.6780 C   0  0  0  0  0  0  0  0  0  0  0  0
   20.0920   16.9570    7.6370 C   0  0  0  0  0  0  0  0  0  0  0  0
   21.0030   16.7610    8.6550 C   0  0  0  0  0  0  0  0  0  0  0  0
   22.0150   16.0560    8.0690 N   0  0  0  0  0  0  0  0  0  0  0  0
   23.5180   15.7380    8.7430 S   0  0  0  0  0  6  0  0  0  0  0  0
   23.7840   14.3350    8.4960 O   0  0  0  0  0  0  0  0  0  0  0  0
   24.3900   16.7900    8.2590 O   0  0  0  0  0  0  0  0  0  0  0  0
   23.3530   15.9520   10.4880 C   0  0  0  0  0  0  0  0  0  0  0  0
   24.0660   16.8250   11.1920 N   0  0  0  0  0  0  0  0  0  0  0  0
   23.6150   16.7350   12.4980 C   0  0  0  0  0  0  0  0  0  0  0  0
   24.1760   17.5440   13.5800 C   0  0  0  0  0  0  0  0  0  0  0  0
   23.5320   17.9280   14.5520 O   0  0  0  0  0  0  0  0  0  0  0  0
   25.5100   17.8250   13.4040 N   0  0  0  0  0  0  0  0  0  0  0  0
   26.3090   18.4740   14.4250 C   0  0  2  0  0  0  0  0  0  0  0  0
   25.9540   17.9840   15.8250 C   0  0  0  0  0  0  0  0  0  0  0  0
   26.8090   18.7120   16.8510 C   0  0  0  0  0  0  0  0  0  0  0  0
   26.6580   20.2090   16.7270 C   0  0  0  0  0  0  0  0  0  0  0  0
   26.7300   20.9600   17.6950 O   0  0  0  0  0  0  0  0  0  0  0  0
   26.4720   20.7050   15.4610 N   0  0  0  0  0  0  0  0  0  0  0  0
   26.0880   19.9890   14.3540 C   0  0  0  0  0  0  0  0  0  0  0  0
   25.6180   20.5540   13.3690 O   0  0  0  0  0  0  0  0  0  0  0  0
   22.5980   15.8070   12.5760 C   0  0  0  0  0  0  0  0  0  0  0  0
   21.7570   15.3060   13.6100 C   0  0  0  0  0  0  0  0  0  0  0  0
   20.8290   14.3750   13.3200 C   0  0  0  0  0  0  0  0  0  0  0  0
   20.6690   13.8630   11.9720 C   0  0  0  0  0  0  0  0  0  0  0  0
   21.4640   14.3300   10.9950 C   0  0  0  0  0  0  0  0  0  0  0  0
   22.4310   15.3010   11.2870 N   0  0  0  0  0  0  0  0  0  0  0  0
   21.7400   15.8980    6.7480 C   0  0  0  0  0  0  0  0  0  0  0  0
   20.5690   16.4230    6.4560 N   0  0  0  0  0  0  0  0  0  0  0  0
   18.9504   19.6134    8.5356 H   0  0  0  0  0  0  0  0  0  0  0  0
   19.8320   19.3891    6.9867 H   0  0  0  0  0  0  0  0  0  0  0  0
   18.0430   19.5504    6.9867 H   0  0  0  0  0  0  0  0  0  0  0  0
   18.2860   17.4224    8.6387 H   0  0  0  0  0  0  0  0  0  0  0  0
   18.1739   17.2799    6.8312 H   0  0  0  0  0  0  0  0  0  0  0  0
   20.9304   17.0963    9.7001 H   0  0  0  0  0  0  0  0  0  0  0  0
   25.9585   17.5649   12.5140 H   0  0  0  0  0  0  0  0  0  0  0  0
   27.3633   18.2246   14.2348 H   0  0  0  0  0  0  0  0  0  0  0  0
   24.8912   18.1850   16.0249 H   0  0  0  0  0  0  0  0  0  0  0  0
   26.1426   16.9024   15.8929 H   0  0  0  0  0  0  0  0  0  0  0  0
   26.4990   18.4028   17.8601 H   0  0  0  0  0  0  0  0  0  0  0  0
   27.8629   18.4531   16.6716 H   0  0  0  0  0  0  0  0  0  0  0  0
   26.6366   21.7131   15.3282 H   0  0  0  0  0  0  0  0  0  0  0  0
   21.8650   15.6775   14.6397 H   0  0  0  0  0  0  0  0  0  0  0  0
   20.1787   13.9946   14.1215 H   0  0  0  0  0  0  0  0  0  0  0  0
   19.9060   13.1016   11.7526 H   0  0  0  0  0  0  0  0  0  0  0  0
   21.3560   13.9509    9.9680 H   0  0  0  0  0  0  0  0  0  0  0  0
   22.4028   15.4012    6.0243 H   0  0  0  0  0  0  0  0  0  0  0  0
  1  2  1  0
  2  3  1  0
  3  4  2  0
  4  5  1  0
  5  6  1  0
  6  7  2  0
  6  8  2  0
  6  9  1  0
  9 10  2  0
 10 11  1  0
 11 12  1  0
 12 13  2  0
 12 14  1  0
 14 15  1  0
 15 16  1  0
 16 17  1  0
 17 18  1  0
 18 19  2  0
 18 20  1  0
 20 21  1  0
 21 22  2  0
 11 23  2  0
 23 24  1  0
 24 25  2  0
 25 26  1  0
 26 27  2  0
 27 28  1  0
  5 29  1  0
 29 30  2  0
 30  3  1  0
 28  9  1  0
 21 15  1  0
 28 23  1  0
  1 31  1  0
  1 32  1  0
  1 33  1  0
  2 34  1  0
  2 35  1  0
  4 36  1  0
 14 37  1  0
 15 38  1  6
 16 39  1  0
 16 40  1  0
 17 41  1  0
 17 42  1  0
 20 43  1  0
 24 44  1  0
 25 45  1  0
 26 46  1  0
 27 47  1  0
 29 48  1  0
M  END
>  <meeko>  (594) 
{"is_sidechain": [true], "free_energy": -10.67, "intermolecular_energy": 0.0, "internal_energy": -10.67, "cluster_size": 20, "cluster_id": 1, "rank_in_cluster": 1}

>  <_RMSD_MCS_to_ref>  (594) 
0.8653507959203601

$$$$
ligand
     RDKit          3D

 48 51  0  0  0  0  0  0  0  0999 V2000
   18.9090   19.1540    7.5370 C   0  0  0  0  0  0  0  0  0  0  0  0
   18.7730   17.6460    7.6780 C   0  0  0  0  0  0  0  0  0  0  0  0
   20.0830   16.9500    7.5600 C   0  0  0  0  0  0  0  0  0  0  0  0
   21.0920   16.8360    8.4960 C   0  0  0  0  0  0  0  0  0  0  0  0
   22.0570   16.1090    7.8600 N   0  0  0  0  0  0  0  0  0  0  0  0
   23.4290   15.4500    8.5730 S   0  0  0  0  0  6  0  0  0  0  0  0
   23.5620   14.1220    8.0050 O   0  0  0  0  0  0  0  0  0  0  0  0
   24.4690   16.4540    8.4600 O   0  0  0  0  0  0  0  0  0  0  0  0
   22.9820   15.2970   10.2920 C   0  0  0  0  0  0  0  0  0  0  0  0
   23.9080   15.7950   11.2680 C   0  0  0  0  0  0  0  0  0  0  0  0
   23.6650   15.7350   12.6650 C   0  0  0  0  0  0  0  0  0  0  0  0
   24.6320   16.2760   13.6360 C   0  0  0  0  0  0  0  0  0  0  0  0
   25.2010   15.5170   14.4130 O   0  0  0  0  0  0  0  0  0  0  0  0
   24.8530   17.6310   13.6110 N   0  0  0  0  0  0  0  0  0  0  0  0
   25.8560   18.2690   14.4440 C   0  0  2  0  0  0  0  0  0  0  0  0
   25.6440   17.9590   15.9230 C   0  0  0  0  0  0  0  0  0  0  0  0
   26.7150   18.6530   16.7480 C   0  0  0  0  0  0  0  0  0  0  0  0
   26.7300   20.1400   16.4850 C   0  0  0  0  0  0  0  0  0  0  0  0
   27.0160   20.9590   17.3530 O   0  0  0  0  0  0  0  0  0  0  0  0
   26.4380   20.5410   15.2060 N   0  0  0  0  0  0  0  0  0  0  0  0
   25.8110   19.7900   14.2410 C   0  0  0  0  0  0  0  0  0  0  0  0
   25.2750   20.3320   13.2770 O   0  0  0  0  0  0  0  0  0  0  0  0
   22.4400   15.1300   13.0130 C   0  0  0  0  0  0  0  0  0  0  0  0
   21.8710   14.8930   14.2120 N   0  0  0  0  0  0  0  0  0  0  0  0
   20.6940   14.2970   13.9340 N   0  0  0  0  0  0  0  0  0  0  0  0
   20.4580   14.1150   12.6020 C   0  0  0  0  0  0  0  0  0  0  0  0
   21.5550   14.6390   11.9790 C   0  0  0  0  0  0  0  0  0  0  0  0
   21.7500   14.6800   10.6040 C   0  0  0  0  0  0  0  0  0  0  0  0
   21.6190   15.7750    6.6180 C   0  0  0  0  0  0  0  0  0  0  0  0
   20.4230   16.2810    6.4010 N   0  0  0  0  0  0  0  0  0  0  0  0
   18.9504   19.6134    8.5356 H   0  0  0  0  0  0  0  0  0  0  0  0
   19.8320   19.3891    6.9867 H   0  0  0  0  0  0  0  0  0  0  0  0
   18.0430   19.5504    6.9867 H   0  0  0  0  0  0  0  0  0  0  0  0
   18.3393   17.4200    8.6633 H   0  0  0  0  0  0  0  0  0  0  0  0
   18.1257   17.2877    6.8640 H   0  0  0  0  0  0  0  0  0  0  0  0
   21.1134   17.2386    9.5194 H   0  0  0  0  0  0  0  0  0  0  0  0
   24.8492   16.2438   10.9177 H   0  0  0  0  0  0  0  0  0  0  0  0
   24.2872   18.2152   12.9790 H   0  0  0  0  0  0  0  0  0  0  0  0
   26.8368   17.8717   14.1437 H   0  0  0  0  0  0  0  0  0  0  0  0
   24.6520   18.3187   16.2339 H   0  0  0  0  0  0  0  0  0  0  0  0
   25.7080   16.8723   16.0813 H   0  0  0  0  0  0  0  0  0  0  0  0
   26.5140   18.4796   17.8155 H   0  0  0  0  0  0  0  0  0  0  0  0
   27.6944   18.2397   16.4652 H   0  0  0  0  0  0  0  0  0  0  0  0
   26.7156   21.4976   14.9436 H   0  0  0  0  0  0  0  0  0  0  0  0
   20.0296   14.0040   14.6645 H   0  0  0  0  0  0  0  0  0  0  0  0
   19.5785   13.6492   12.1335 H   0  0  0  0  0  0  0  0  0  0  0  0
   21.0420   14.2860    9.8601 H   0  0  0  0  0  0  0  0  0  0  0  0
   22.1839   15.1675    5.8956 H   0  0  0  0  0  0  0  0  0  0  0  0
  1  2  1  0
  2  3  1  0
  3  4  2  0
  4  5  1  0
  5  6  1  0
  6  7  2  0
  6  8  2  0
  6  9  1  0
  9 10  1  0
 10 11  2  0
 11 12  1  0
 12 13  2  0
 12 14  1  0
 14 15  1  0
 15 16  1  0
 16 17  1  0
 17 18  1  0
 18 19  2  0
 18 20  1  0
 20 21  1  0
 21 22  2  0
 11 23  1  0
 23 24  2  0
 24 25  1  0
 25 26  1  0
 26 27  2  0
 27 28  1  0
  5 29  1  0
 29 30  2  0
 30  3  1  0
 28  9  2  0
 21 15  1  0
 27 23  1  0
  1 31  1  0
  1 32  1  0
  1 33  1  0
  2 34  1  0
  2 35  1  0
  4 36  1  0
 10 37  1  0
 14 38  1  0
 15 39  1  6
 16 40  1  0
 16 41  1  0
 17 42  1  0
 17 43  1  0
 20 44  1  0
 25 45  1  0
 26 46  1  0
 28 47  1  0
 29 48  1  0
M  END
>  <meeko>  (595) 
{"is_sidechain": [true], "free_energy": -10.67, "intermolecular_energy": 0.0, "internal_energy": -10.67, "cluster_size": 20, "cluster_id": 1, "rank_in_cluster": 1}

>  <_RMSD_MCS_to_ref>  (595) 
0.5777970616440039

$$$$
ligand
     RDKit          3D

 47 50  0  0  0  0  0  0  0  0999 V2000
   18.9090   19.1540    7.5370 C   0  0  0  0  0  0  0  0  0  0  0  0
   18.7730   17.6460    7.6780 C   0  0  0  0  0  0  0  0  0  0  0  0
   19.9010   16.9180    7.0380 C   0  0  0  0  0  0  0  0  0  0  0  0
   21.0710   16.4550    7.6070 C   0  0  0  0  0  0  0  0  0  0  0  0
   21.7370   15.8680    6.5710 N   0  0  0  0  0  0  0  0  0  0  0  0
   23.3020   15.2720    6.6180 S   0  0  0  0  0  6  0  0  0  0  0  0
   23.2790   14.0100    5.8990 O   0  0  0  0  0  0  0  0  0  0  0  0
   24.1660   16.3690    6.2180 O   0  0  0  0  0  0  0  0  0  0  0  0
   23.7360   14.8820    8.2990 C   0  0  0  0  0  0  0  0  0  0  0  0
   23.8540   13.4290    8.6320 C   0  0  0  0  0  0  0  0  0  0  0  0
   24.1800   13.1140    9.8920 C   0  0  0  0  0  0  0  0  0  0  0  0
   24.3830   14.1630   10.8130 C   0  0  0  0  0  0  0  0  0  0  0  0
   24.7130   14.2510   12.1430 C   0  0  0  0  0  0  0  0  0  0  0  0
   24.7420   15.6430   12.4210 C   0  0  0  0  0  0  0  0  0  0  0  0
   25.0410   16.2790   13.7120 C   0  0  0  0  0  0  0  0  0  0  0  0
   25.1880   15.6430   14.7510 O   0  0  0  0  0  0  0  0  0  0  0  0
   25.1290   17.6480   13.6440 N   0  0  0  0  0  0  0  0  0  0  0  0
   25.2750   18.4840   14.8190 C   0  0  1  0  0  0  0  0  0  0  0  0
   26.2770   17.8980   15.8080 C   0  0  0  0  0  0  0  0  0  0  0  0
   26.4030   18.8190   17.0120 C   0  0  0  0  0  0  0  0  0  0  0  0
   26.7830   20.2190   16.5950 C   0  0  0  0  0  0  0  0  0  0  0  0
   27.4690   20.9520   17.3000 O   0  0  0  0  0  0  0  0  0  0  0  0
   26.2880   20.6570   15.3920 N   0  0  0  0  0  0  0  0  0  0  0  0
   25.7400   19.8820   14.3980 C   0  0  0  0  0  0  0  0  0  0  0  0
   25.6160   20.3190   13.2560 O   0  0  0  0  0  0  0  0  0  0  0  0
   24.4460   16.3680   11.3260 N   0  0  0  0  0  0  0  0  0  0  0  0
   24.2370   15.4560   10.3680 N   0  0  0  0  0  0  0  0  0  0  0  0
   23.9200   15.8670    9.1260 N   0  0  0  0  0  0  0  0  0  0  0  0
   21.0160   16.0240    5.4320 C   0  0  0  0  0  0  0  0  0  0  0  0
   19.8790   16.6350    5.6860 N   0  0  0  0  0  0  0  0  0  0  0  0
   18.9504   19.6134    8.5356 H   0  0  0  0  0  0  0  0  0  0  0  0
   19.8320   19.3891    6.9867 H   0  0  0  0  0  0  0  0  0  0  0  0
   18.0430   19.5504    6.9867 H   0  0  0  0  0  0  0  0  0  0  0  0
   18.7483   17.3910    8.7478 H   0  0  0  0  0  0  0  0  0  0  0  0
   17.8446   17.3419    7.1725 H   0  0  0  0  0  0  0  0  0  0  0  0
   21.3924   16.5400    8.6555 H   0  0  0  0  0  0  0  0  0  0  0  0
   23.6803   12.6514    7.8736 H   0  0  0  0  0  0  0  0  0  0  0  0
   24.2868   12.0637   10.2011 H   0  0  0  0  0  0  0  0  0  0  0  0
   24.9115   13.4239   12.8405 H   0  0  0  0  0  0  0  0  0  0  0  0
   25.0896   18.0995   12.7191 H   0  0  0  0  0  0  0  0  0  0  0  0
   24.2956   18.5395   15.3167 H   0  0  0  0  0  0  0  0  0  0  0  0
   25.9290   16.9083   16.1388 H   0  0  0  0  0  0  0  0  0  0  0  0
   27.2575   17.7988   15.3194 H   0  0  0  0  0  0  0  0  0  0  0  0
   25.4387   18.8519   17.5403 H   0  0  0  0  0  0  0  0  0  0  0  0
   27.1935   18.4259   17.6682 H   0  0  0  0  0  0  0  0  0  0  0  0
   26.3317   21.6709   15.2161 H   0  0  0  0  0  0  0  0  0  0  0  0
   21.3374   15.6867    4.4355 H   0  0  0  0  0  0  0  0  0  0  0  0
  1  2  1  0
  2  3  1  0
  3  4  2  0
  4  5  1  0
  5  6  1  0
  6  7  2  0
  6  8  2  0
  6  9  1  0
  9 10  1  0
 10 11  2  0
 11 12  1  0
 12 13  2  0
 13 14  1  0
 14 15  1  0
 15 16  2  0
 15 17  1  0
 17 18  1  0
 18 19  1  0
 19 20  1  0
 20 21  1  0
 21 22  2  0
 21 23  1  0
 23 24  1  0
 24 25  2  0
 14 26  2  0
 26 27  1  0
 27 28  1  0
  5 29  1  0
 29 30  2  0
 30  3  1  0
 28  9  2  0
 27 12  1  0
 24 18  1  0
  1 31  1  0
  1 32  1  0
  1 33  1  0
  2 34  1  0
  2 35  1  0
  4 36  1  0
 10 37  1  0
 11 38  1  0
 13 39  1  0
 17 40  1  0
 18 41  1  1
 19 42  1  0
 19 43  1  0
 20 44  1  0
 20 45  1  0
 23 46  1  0
 29 47  1  0
M  END
>  <meeko>  (596) 
{"is_sidechain": [true], "free_energy": -10.67, "intermolecular_energy": 0.0, "internal_energy": -10.67, "cluster_size": 19, "cluster_id": 1, "rank_in_cluster": 1}

>  <_RMSD_MCS_to_ref>  (596) 
0.5217177823732332

$$$$
ligand
     RDKit          3D

 47 50  0  0  0  0  0  0  0  0999 V2000
   18.9090   19.1530    7.5370 C   0  0  0  0  0  0  0  0  0  0  0  0
   18.7730   17.6470    7.6780 C   0  0  0  0  0  0  0  0  0  0  0  0
   20.0930   16.9590    7.7240 C   0  0  0  0  0  0  0  0  0  0  0  0
   20.9050   16.7170    8.8150 C   0  0  0  0  0  0  0  0  0  0  0  0
   21.9550   16.0090    8.3030 N   0  0  0  0  0  0  0  0  0  0  0  0
   23.3720   15.6090    9.1150 S   0  0  0  0  0  6  0  0  0  0  0  0
   23.8470   14.3850    8.4970 O   0  0  0  0  0  0  0  0  0  0  0  0
   24.1630   16.8260    9.1480 O   0  0  0  0  0  0  0  0  0  0  0  0
   22.8520   15.2370   10.7720 C   0  0  0  0  0  0  0  0  0  0  0  0
   21.7930   14.3590   10.9750 C   0  0  0  0  0  0  0  0  0  0  0  0
   21.4670   14.1280   12.3160 C   0  0  0  0  0  0  0  0  0  0  0  0
   20.5170   13.3580   13.0250 C   0  0  0  0  0  0  0  0  0  0  0  0
   20.6290   13.4920   14.3490 N   0  0  0  0  0  0  0  0  0  0  0  0
   21.6500   14.3560   14.4990 N   0  0  0  0  0  0  0  0  0  0  0  0
   22.1950   14.7660   13.3130 C   0  0  0  0  0  0  0  0  0  0  0  0
   23.2420   15.6310   13.0330 C   0  0  0  0  0  0  0  0  0  0  0  0
   24.0160   16.3210   14.0960 C   0  0  0  0  0  0  0  0  0  0  0  0
   24.3240   15.7320   15.1250 O   0  0  0  0  0  0  0  0  0  0  0  0
   24.3210   17.6380   13.8210 N   0  0  0  0  0  0  0  0  0  0  0  0
   24.7520   18.5380   14.8760 C   0  0  1  0  0  0  0  0  0  0  0  0
   25.8680   17.9050   15.6990 C   0  0  0  0  0  0  0  0  0  0  0  0
   26.3190   18.8760   16.7780 C   0  0  0  0  0  0  0  0  0  0  0  0
   26.7360   20.2010   16.1840 C   0  0  0  0  0  0  0  0  0  0  0  0
   27.6540   20.8710   16.6470 O   0  0  0  0  0  0  0  0  0  0  0  0
   26.0140   20.6430   15.1050 N   0  0  0  0  0  0  0  0  0  0  0  0
   25.2620   19.8540   14.2660 C   0  0  0  0  0  0  0  0  0  0  0  0
   25.0300   20.2130   13.1130 O   0  0  0  0  0  0  0  0  0  0  0  0
   23.5710   15.8680   11.7350 N   0  0  0  0  0  0  0  0  0  0  0  0
   21.7900   15.8830    6.9590 C   0  0  0  0  0  0  0  0  0  0  0  0
   20.6720   16.4620    6.5720 N   0  0  0  0  0  0  0  0  0  0  0  0
   18.9505   19.6125    8.5356 H   0  0  0  0  0  0  0  0  0  0  0  0
   19.8320   19.3879    6.9867 H   0  0  0  0  0  0  0  0  0  0  0  0
   18.0430   19.5494    6.9867 H   0  0  0  0  0  0  0  0  0  0  0  0
   18.2276   17.4272    8.6076 H   0  0  0  0  0  0  0  0  0  0  0  0
   18.2319   17.2753    6.7954 H   0  0  0  0  0  0  0  0  0  0  0  0
   20.7429   17.0245    9.8586 H   0  0  0  0  0  0  0  0  0  0  0  0
   21.2524   13.8821   10.1442 H   0  0  0  0  0  0  0  0  0  0  0  0
   19.7665   12.7175   12.5387 H   0  0  0  0  0  0  0  0  0  0  0  0
   21.9881   14.6773   15.4173 H   0  0  0  0  0  0  0  0  0  0  0  0
   24.2420   17.9873   12.8553 H   0  0  0  0  0  0  0  0  0  0  0  0
   23.8912   18.7390   15.5306 H   0  0  0  0  0  0  0  0  0  0  0  0
   25.4980   16.9817   16.1687 H   0  0  0  0  0  0  0  0  0  0  0  0
   26.7178   17.6686   15.0417 H   0  0  0  0  0  0  0  0  0  0  0  0
   25.4884   19.0433   17.4795 H   0  0  0  0  0  0  0  0  0  0  0  0
   27.1852   18.4402   17.2975 H   0  0  0  0  0  0  0  0  0  0  0  0
   26.0369   21.6533   14.9056 H   0  0  0  0  0  0  0  0  0  0  0  0
   22.4932   15.3685    6.2876 H   0  0  0  0  0  0  0  0  0  0  0  0
  1  2  1  0
  2  3  1  0
  3  4  2  0
  4  5  1  0
  5  6  1  0
  6  7  2  0
  6  8  2  0
  6  9  1  0
  9 10  2  0
 10 11  1  0
 11 12  1  0
 12 13  2  0
 13 14  1  0
 14 15  1  0
 15 16  1  0
 16 17  1  0
 17 18  2  0
 17 19  1  0
 19 20  1  0
 20 21  1  0
 21 22  1  0
 22 23  1  0
 23 24  2  0
 23 25  1  0
 25 26  1  0
 26 27  2  0
 16 28  2  0
  5 29  1  0
 29 30  2  0
 30  3  1  0
 28  9  1  0
 15 11  2  0
 26 20  1  0
  1 31  1  0
  1 32  1  0
  1 33  1  0
  2 34  1  0
  2 35  1  0
  4 36  1  0
 10 37  1  0
 12 38  1  0
 14 39  1  0
 19 40  1  0
 20 41  1  1
 21 42  1  0
 21 43  1  0
 22 44  1  0
 22 45  1  0
 25 46  1  0
 29 47  1  0
M  END
>  <meeko>  (597) 
{"is_sidechain": [true], "free_energy": -10.67, "intermolecular_energy": 0.0, "internal_energy": -10.67, "cluster_size": 20, "cluster_id": 1, "rank_in_cluster": 1}

>  <_RMSD_MCS_to_ref>  (597) 
0.37572108449398167

$$$$
ligand
     RDKit          3D

 47 50  0  0  0  0  0  0  0  0999 V2000
   18.9090   19.1530    7.5370 C   0  0  0  0  0  0  0  0  0  0  0  0
   18.7730   17.6470    7.6780 C   0  0  0  0  0  0  0  0  0  0  0  0
   20.0930   16.9600    7.7190 C   0  0  0  0  0  0  0  0  0  0  0  0
   20.8380   16.5790    8.8170 C   0  0  0  0  0  0  0  0  0  0  0  0
   21.9290   15.9510    8.2850 N   0  0  0  0  0  0  0  0  0  0  0  0
   23.3390   15.5430    9.1220 S   0  0  0  0  0  6  0  0  0  0  0  0
   23.7290   14.2530    8.5790 O   0  0  0  0  0  0  0  0  0  0  0  0
   24.1960   16.7070    8.9740 O   0  0  0  0  0  0  0  0  0  0  0  0
   22.8730   15.3690   10.8140 C   0  0  0  0  0  0  0  0  0  0  0  0
   21.7640   14.6510   11.0600 C   0  0  0  0  0  0  0  0  0  0  0  0
   21.3620   14.4720   12.3700 N   0  0  0  0  0  0  0  0  0  0  0  0
   20.2910   13.7920   12.8330 N   0  0  0  0  0  0  0  0  0  0  0  0
   20.3540   13.9250   14.1580 C   0  0  0  0  0  0  0  0  0  0  0  0
   21.4620   14.6830   14.5710 C   0  0  0  0  0  0  0  0  0  0  0  0
   22.0970   15.0220   13.4000 C   0  0  0  0  0  0  0  0  0  0  0  0
   23.2730   15.7750   13.0560 C   0  0  0  0  0  0  0  0  0  0  0  0
   24.1390   16.4200   14.1500 C   0  0  0  0  0  0  0  0  0  0  0  0
   24.5250   15.7980   15.1260 O   0  0  0  0  0  0  0  0  0  0  0  0
   24.4010   17.7580   13.9110 N   0  0  0  0  0  0  0  0  0  0  0  0
   24.8370   18.6250   14.9900 C   0  0  1  0  0  0  0  0  0  0  0  0
   25.9150   17.9490   15.8250 C   0  0  0  0  0  0  0  0  0  0  0  0
   26.3790   18.8930   16.9230 C   0  0  0  0  0  0  0  0  0  0  0  0
   26.8500   20.2090   16.3500 C   0  0  0  0  0  0  0  0  0  0  0  0
   27.7820   20.8440   16.8340 O   0  0  0  0  0  0  0  0  0  0  0  0
   26.1610   20.6860   15.2630 N   0  0  0  0  0  0  0  0  0  0  0  0
   25.4020   19.9290   14.4040 C   0  0  0  0  0  0  0  0  0  0  0  0
   25.2050   20.2990   13.2480 O   0  0  0  0  0  0  0  0  0  0  0  0
   23.6510   15.9410   11.8130 N   0  0  0  0  0  0  0  0  0  0  0  0
   21.8580   16.0210    6.9290 C   0  0  0  0  0  0  0  0  0  0  0  0
   20.7550   16.6330    6.5510 N   0  0  0  0  0  0  0  0  0  0  0  0
   18.9505   19.6125    8.5356 H   0  0  0  0  0  0  0  0  0  0  0  0
   19.8320   19.3879    6.9867 H   0  0  0  0  0  0  0  0  0  0  0  0
   18.0430   19.5494    6.9867 H   0  0  0  0  0  0  0  0  0  0  0  0
   18.2309   17.4268    8.6095 H   0  0  0  0  0  0  0  0  0  0  0  0
   18.2283   17.2753    6.7976 H   0  0  0  0  0  0  0  0  0  0  0  0
   20.6060   16.7436    9.8796 H   0  0  0  0  0  0  0  0  0  0  0  0
   21.1861   14.2132   10.2327 H   0  0  0  0  0  0  0  0  0  0  0  0
   19.6194   13.4893   14.8512 H   0  0  0  0  0  0  0  0  0  0  0  0
   21.7550   14.9457   15.5982 H   0  0  0  0  0  0  0  0  0  0  0  0
   24.2858   18.1406   12.9616 H   0  0  0  0  0  0  0  0  0  0  0  0
   23.9712   18.8409   15.6332 H   0  0  0  0  0  0  0  0  0  0  0  0
   25.5065   17.0337   16.2781 H   0  0  0  0  0  0  0  0  0  0  0  0
   26.7684   17.6924   15.1801 H   0  0  0  0  0  0  0  0  0  0  0  0
   25.5422   19.0807   17.6119 H   0  0  0  0  0  0  0  0  0  0  0  0
   27.2205   18.4232   17.4532 H   0  0  0  0  0  0  0  0  0  0  0  0
   26.2179   21.6972   15.0755 H   0  0  0  0  0  0  0  0  0  0  0  0
   22.6180   15.6211    6.2417 H   0  0  0  0  0  0  0  0  0  0  0  0
  1  2  1  0
  2  3  1  0
  3  4  2  0
  4  5  1  0
  5  6  1  0
  6  7  2  0
  6  8  2  0
  6  9  1  0
  9 10  2  0
 10 11  1  0
 11 12  1  0
 12 13  2  0
 13 14  1  0
 14 15  2  0
 15 16  1  0
 16 17  1  0
 17 18  2  0
 17 19  1  0
 19 20  1  0
 20 21  1  0
 21 22  1  0
 22 23  1  0
 23 24  2  0
 23 25  1  0
 25 26  1  0
 26 27  2  0
 16 28  2  0
  5 29  1  0
 29 30  2  0
 30  3  1  0
 28  9  1  0
 15 11  1  0
 26 20  1  0
  1 31  1  0
  1 32  1  0
  1 33  1  0
  2 34  1  0
  2 35  1  0
  4 36  1  0
 10 37  1  0
 13 38  1  0
 14 39  1  0
 19 40  1  0
 20 41  1  1
 21 42  1  0
 21 43  1  0
 22 44  1  0
 22 45  1  0
 25 46  1  0
 29 47  1  0
M  END
>  <meeko>  (598) 
{"is_sidechain": [true], "free_energy": -10.67, "intermolecular_energy": 0.0, "internal_energy": -10.67, "cluster_size": 20, "cluster_id": 1, "rank_in_cluster": 1}

>  <_RMSD_MCS_to_ref>  (598) 
0.4200551551086279

$$$$
ligand
     RDKit          3D

 46 49  0  0  0  0  0  0  0  0999 V2000
   18.9090   19.1540    7.5370 C   0  0  0  0  0  0  0  0  0  0  0  0
   18.7730   17.6460    7.6780 C   0  0  0  0  0  0  0  0  0  0  0  0
   20.0940   16.9620    7.6890 C   0  0  0  0  0  0  0  0  0  0  0  0
   20.9240   16.6890    8.7600 C   0  0  0  0  0  0  0  0  0  0  0  0
   22.0010   16.0660    8.1950 N   0  0  0  0  0  0  0  0  0  0  0  0
   23.3110   15.4260    9.0430 S   0  0  0  0  0  6  0  0  0  0  0  0
   24.3620   16.4090    8.8310 O   0  0  0  0  0  0  0  0  0  0  0  0
   23.4710   14.0740    8.5400 O   0  0  0  0  0  0  0  0  0  0  0  0
   22.9360   15.3680   10.7290 C   0  0  0  0  0  0  0  0  0  0  0  0
   23.8550   15.7950   11.6100 C   0  0  0  0  0  0  0  0  0  0  0  0
   23.5060   15.6840   13.0530 C   0  0  0  0  0  0  0  0  0  0  0  0
   24.5580   16.1890   14.0470 C   0  0  0  0  0  0  0  0  0  0  0  0
   25.2040   15.4050   14.7210 O   0  0  0  0  0  0  0  0  0  0  0  0
   24.6880   17.5550   14.0690 N   0  0  0  0  0  0  0  0  0  0  0  0
   25.7540   18.2210   14.7990 C   0  0  2  0  0  0  0  0  0  0  0  0
   25.6780   17.9550   16.2980 C   0  0  0  0  0  0  0  0  0  0  0  0
   26.7950   18.7070   17.0050 C   0  0  0  0  0  0  0  0  0  0  0  0
   26.7460   20.1840   16.6920 C   0  0  0  0  0  0  0  0  0  0  0  0
   27.0800   21.0410   17.5050 O   0  0  0  0  0  0  0  0  0  0  0  0
   26.3380   20.5320   15.4290 N   0  0  0  0  0  0  0  0  0  0  0  0
   25.6550   19.7300   14.5490 C   0  0  0  0  0  0  0  0  0  0  0  0
   25.0200   20.2080   13.6110 O   0  0  0  0  0  0  0  0  0  0  0  0
   22.3970   15.1950   13.5320 N   0  0  0  0  0  0  0  0  0  0  0  0
   21.5400   14.7770   12.5580 N   0  0  0  0  0  0  0  0  0  0  0  0
   20.3070   14.2200   12.7300 C   0  0  0  0  0  0  0  0  0  0  0  0
   19.7730   13.9440   11.5610 N   0  0  0  0  0  0  0  0  0  0  0  0
   20.6710   14.3240   10.5900 N   0  0  0  0  0  0  0  0  0  0  0  0
   21.7260   14.8260   11.1920 C   0  0  0  0  0  0  0  0  0  0  0  0
   21.7950   15.9360    6.8610 C   0  0  0  0  0  0  0  0  0  0  0  0
   20.6520   16.4960    6.5160 N   0  0  0  0  0  0  0  0  0  0  0  0
   18.9504   19.6134    8.5356 H   0  0  0  0  0  0  0  0  0  0  0  0
   19.8320   19.3891    6.9867 H   0  0  0  0  0  0  0  0  0  0  0  0
   18.0430   19.5504    6.9867 H   0  0  0  0  0  0  0  0  0  0  0  0
   18.2510   17.4238    8.6204 H   0  0  0  0  0  0  0  0  0  0  0  0
   18.2075   17.2750    6.8105 H   0  0  0  0  0  0  0  0  0  0  0  0
   20.7562   16.9200    9.8223 H   0  0  0  0  0  0  0  0  0  0  0  0
   24.8202   16.2074   11.2810 H   0  0  0  0  0  0  0  0  0  0  0  0
   24.0069   18.1279   13.5505 H   0  0  0  0  0  0  0  0  0  0  0  0
   26.7140   17.8227   14.4388 H   0  0  0  0  0  0  0  0  0  0  0  0
   24.7057   18.2972   16.6820 H   0  0  0  0  0  0  0  0  0  0  0  0
   25.7876   16.8765   16.4844 H   0  0  0  0  0  0  0  0  0  0  0  0
   26.6897   18.5672   18.0910 H   0  0  0  0  0  0  0  0  0  0  0  0
   27.7583   18.3093   16.6530 H   0  0  0  0  0  0  0  0  0  0  0  0
   26.5657   21.4849   15.1113 H   0  0  0  0  0  0  0  0  0  0  0  0
   19.8301   14.0299   13.7028 H   0  0  0  0  0  0  0  0  0  0  0  0
   22.4837   15.4345    6.1652 H   0  0  0  0  0  0  0  0  0  0  0  0
  1  2  1  0
  2  3  1  0
  3  4  2  0
  4  5  1  0
  5  6  1  0
  6  7  2  0
  6  8  2  0
  6  9  1  0
  9 10  2  0
 10 11  1  0
 11 12  1  0
 12 13  2  0
 12 14  1  0
 14 15  1  0
 15 16  1  0
 16 17  1  0
 17 18  1  0
 18 19  2  0
 18 20  1  0
 20 21  1  0
 21 22  2  0
 11 23  2  0
 23 24  1  0
 24 25  1  0
 25 26  2  0
 26 27  1  0
 27 28  2  0
  5 29  1  0
 29 30  2  0
 30  3  1  0
 28  9  1  0
 21 15  1  0
 28 24  1  0
  1 31  1  0
  1 32  1  0
  1 33  1  0
  2 34  1  0
  2 35  1  0
  4 36  1  0
 10 37  1  0
 14 38  1  0
 15 39  1  6
 16 40  1  0
 16 41  1  0
 17 42  1  0
 17 43  1  0
 20 44  1  0
 25 45  1  0
 29 46  1  0
M  END
>  <meeko>  (599) 
{"is_sidechain": [true], "free_energy": -10.67, "intermolecular_energy": 0.0, "internal_energy": -10.67, "cluster_size": 19, "cluster_id": 1, "rank_in_cluster": 1}

>  <_RMSD_MCS_to_ref>  (599) 
0.5839249380984972

$$$$
ligand
     RDKit          3D

 51 54  0  0  0  0  0  0  0  0999 V2000
   18.9090   19.1540    7.5370 C   0  0  0  0  0  0  0  0  0  0  0  0
   18.7730   17.6460    7.6780 C   0  0  0  0  0  0  0  0  0  0  0  0
   20.0310   16.9340    7.3260 C   0  0  0  0  0  0  0  0  0  0  0  0
   20.5230   15.7410    7.8200 C   0  0  0  0  0  0  0  0  0  0  0  0
   21.7080   15.5690    7.1630 N   0  0  0  0  0  0  0  0  0  0  0  0
   22.6700   14.1930    7.2060 S   0  0  0  0  0  6  0  0  0  0  0  0
   22.9450   13.8870    5.8140 O   0  0  0  0  0  0  0  0  0  0  0  0
   21.9700   13.2730    8.0810 O   0  0  0  0  0  0  0  0  0  0  0  0
   24.2130   14.6220    7.9850 C   0  0  0  0  0  0  0  0  0  0  0  0
   25.4240   14.4100    7.3090 C   0  0  0  0  0  0  0  0  0  0  0  0
   26.6270   14.7460    7.9190 C   0  0  0  0  0  0  0  0  0  0  0  0
   26.6290   15.2910    9.2000 C   0  0  0  0  0  0  0  0  0  0  0  0
   25.4310   15.5110    9.8960 C   0  0  0  0  0  0  0  0  0  0  0  0
   25.4770   16.0620   11.1880 C   0  0  0  0  0  0  0  0  0  0  0  0
   24.3090   16.2920   11.9220 C   0  0  0  0  0  0  0  0  0  0  0  0
   24.4340   16.8820   13.2840 C   0  0  0  0  0  0  0  0  0  0  0  0
   23.7890   16.4240   14.2210 O   0  0  0  0  0  0  0  0  0  0  0  0
   25.2700   17.9680   13.4140 N   0  0  0  0  0  0  0  0  0  0  0  0
   25.3450   18.7110   14.6660 C   0  0  1  0  0  0  0  0  0  0  0  0
   26.2270   18.0160   15.6980 C   0  0  0  0  0  0  0  0  0  0  0  0
   26.2910   18.8610   16.9610 C   0  0  0  0  0  0  0  0  0  0  0  0
   26.7720   20.2610   16.6610 C   0  0  0  0  0  0  0  0  0  0  0  0
   27.4500   20.9090   17.4520 O   0  0  0  0  0  0  0  0  0  0  0  0
   26.3870   20.8000   15.4590 N   0  0  0  0  0  0  0  0  0  0  0  0
   25.9200   20.1010   14.3730 C   0  0  0  0  0  0  0  0  0  0  0  0
   25.9550   20.5820   13.2410 O   0  0  0  0  0  0  0  0  0  0  0  0
   23.0760   15.9880   11.3490 C   0  0  0  0  0  0  0  0  0  0  0  0
   23.0200   15.4390   10.0630 C   0  0  0  0  0  0  0  0  0  0  0  0
   24.1880   15.1800    9.2990 C   0  0  0  0  0  0  0  0  0  0  0  0
   21.8940   16.6020    6.3010 C   0  0  0  0  0  0  0  0  0  0  0  0
   20.8880   17.4480    6.3710 N   0  0  0  0  0  0  0  0  0  0  0  0
   18.9504   19.6134    8.5356 H   0  0  0  0  0  0  0  0  0  0  0  0
   19.8320   19.3891    6.9867 H   0  0  0  0  0  0  0  0  0  0  0  0
   18.0430   19.5504    6.9867 H   0  0  0  0  0  0  0  0  0  0  0  0
   18.5116   17.4096    8.7200 H   0  0  0  0  0  0  0  0  0  0  0  0
   17.9889   17.3107    6.9832 H   0  0  0  0  0  0  0  0  0  0  0  0
   20.0649   15.0806    8.5710 H   0  0  0  0  0  0  0  0  0  0  0  0
   25.4215   13.9783    6.2973 H   0  0  0  0  0  0  0  0  0  0  0  0
   27.5771   14.5813    7.3897 H   0  0  0  0  0  0  0  0  0  0  0  0
   27.5861   15.5536    9.6744 H   0  0  0  0  0  0  0  0  0  0  0  0
   26.4510   16.3174   11.6308 H   0  0  0  0  0  0  0  0  0  0  0  0
   25.8509   18.2598   12.6151 H   0  0  0  0  0  0  0  0  0  0  0  0
   24.3304   18.7766   15.0859 H   0  0  0  0  0  0  0  0  0  0  0  0
   25.8033   17.0296   15.9378 H   0  0  0  0  0  0  0  0  0  0  0  0
   27.2404   17.8900   15.2892 H   0  0  0  0  0  0  0  0  0  0  0  0
   25.2870   18.9150   17.4072 H   0  0  0  0  0  0  0  0  0  0  0  0
   27.0016   18.3915   17.6571 H   0  0  0  0  0  0  0  0  0  0  0  0
   26.4545   21.8232   15.3625 H   0  0  0  0  0  0  0  0  0  0  0  0
   22.1475   16.1793   11.9069 H   0  0  0  0  0  0  0  0  0  0  0  0
   22.0377   15.2001    9.6295 H   0  0  0  0  0  0  0  0  0  0  0  0
   22.7637   16.7157    5.6372 H   0  0  0  0  0  0  0  0  0  0  0  0
  1  2  1  0
  2  3  1  0
  3  4  2  0
  4  5  1  0
  5  6  1  0
  6  7  2  0
  6  8  2  0
  6  9  1  0
  9 10  2  0
 10 11  1  0
 11 12  2  0
 12 13  1  0
 13 14  2  0
 14 15  1  0
 15 16  1  0
 16 17  2  0
 16 18  1  0
 18 19  1  0
 19 20  1  0
 20 21  1  0
 21 22  1  0
 22 23  2  0
 22 24  1  0
 24 25  1  0
 25 26  2  0
 15 27  2  0
 27 28  1  0
 28 29  2  0
  5 30  1  0
 30 31  2  0
 31  3  1  0
 29  9  1  0
 29 13  1  0
 25 19  1  0
  1 32  1  0
  1 33  1  0
  1 34  1  0
  2 35  1  0
  2 36  1  0
  4 37  1  0
 10 38  1  0
 11 39  1  0
 12 40  1  0
 14 41  1  0
 18 42  1  0
 19 43  1  1
 20 44  1  0
 20 45  1  0
 21 46  1  0
 21 47  1  0
 24 48  1  0
 27 49  1  0
 28 50  1  0
 30 51  1  0
M  END
>  <meeko>  (600) 
{"is_sidechain": [true], "free_energy": -10.67, "intermolecular_energy": 0.0, "internal_energy": -10.67, "cluster_size": 18, "cluster_id": 1, "rank_in_cluster": 1}

>  <_RMSD_MCS_to_ref>  (600) 
0.7068812567264113

$$$$
ligand
     RDKit          3D

 49 52  0  0  0  0  0  0  0  0999 V2000
   18.9090   19.1540    7.5370 C   0  0  0  0  0  0  0  0  0  0  0  0
   18.7730   17.6460    7.6780 C   0  0  0  0  0  0  0  0  0  0  0  0
   20.0950   16.9660    7.7270 C   0  0  0  0  0  0  0  0  0  0  0  0
   20.9640   16.8320    8.7910 C   0  0  0  0  0  0  0  0  0  0  0  0
   22.0170   16.1280    8.2780 N   0  0  0  0  0  0  0  0  0  0  0  0
   23.3660   15.6210    9.1380 S   0  0  0  0  0  6  0  0  0  0  0  0
   24.2140   16.8030    9.1800 O   0  0  0  0  0  0  0  0  0  0  0  0
   23.8250   14.3890    8.5230 O   0  0  0  0  0  0  0  0  0  0  0  0
   22.7820   15.2820   10.7760 C   0  0  0  0  0  0  0  0  0  0  0  0
   23.5500   15.8630   11.7480 N   0  0  0  0  0  0  0  0  0  0  0  0
   23.1520   15.6430   13.0210 C   0  0  0  0  0  0  0  0  0  0  0  0
   23.9670   16.3010   14.0900 C   0  0  0  0  0  0  0  0  0  0  0  0
   24.2560   15.7140   15.1260 O   0  0  0  0  0  0  0  0  0  0  0  0
   24.3280   17.6050   13.8090 N   0  0  0  0  0  0  0  0  0  0  0  0
   24.7630   18.4970   14.8680 C   0  0  1  0  0  0  0  0  0  0  0  0
   25.9080   17.8800   15.6610 C   0  0  0  0  0  0  0  0  0  0  0  0
   26.3400   18.8400   16.7580 C   0  0  0  0  0  0  0  0  0  0  0  0
   26.7090   20.1920   16.1920 C   0  0  0  0  0  0  0  0  0  0  0  0
   27.5930   20.8900   16.6790 O   0  0  0  0  0  0  0  0  0  0  0  0
   25.9830   20.6240   15.1110 N   0  0  0  0  0  0  0  0  0  0  0  0
   25.2360   19.8330   14.2700 C   0  0  0  0  0  0  0  0  0  0  0  0
   24.9770   20.2060   13.1260 O   0  0  0  0  0  0  0  0  0  0  0  0
   22.0440   14.8810   13.3510 C   0  0  0  0  0  0  0  0  0  0  0  0
   21.2890   14.3070   12.3140 C   0  0  0  0  0  0  0  0  0  0  0  0
   20.1540   13.5340   12.5930 C   0  0  0  0  0  0  0  0  0  0  0  0
   19.4170   12.9810   11.5520 C   0  0  0  0  0  0  0  0  0  0  0  0
   19.8410   13.2170   10.2620 C   0  0  0  0  0  0  0  0  0  0  0  0
   20.9330   13.9540    9.9590 N   0  0  0  0  0  0  0  0  0  0  0  0
   21.6530   14.4980   10.9660 C   0  0  0  0  0  0  0  0  0  0  0  0
   21.7750   15.8560    6.9690 C   0  0  0  0  0  0  0  0  0  0  0  0
   20.6120   16.3530    6.6010 N   0  0  0  0  0  0  0  0  0  0  0  0
   18.9504   19.6134    8.5356 H   0  0  0  0  0  0  0  0  0  0  0  0
   19.8320   19.3891    6.9867 H   0  0  0  0  0  0  0  0  0  0  0  0
   18.0430   19.5504    6.9867 H   0  0  0  0  0  0  0  0  0  0  0  0
   18.2259   17.4247    8.6063 H   0  0  0  0  0  0  0  0  0  0  0  0
   18.2323   17.2712    6.7964 H   0  0  0  0  0  0  0  0  0  0  0  0
   20.8378   17.2064    9.8176 H   0  0  0  0  0  0  0  0  0  0  0  0
   24.2880   17.9473   12.8384 H   0  0  0  0  0  0  0  0  0  0  0  0
   23.9091   18.6669   15.5403 H   0  0  0  0  0  0  0  0  0  0  0  0
   25.5736   16.9342   16.1122 H   0  0  0  0  0  0  0  0  0  0  0  0
   26.7567   17.6857   14.9887 H   0  0  0  0  0  0  0  0  0  0  0  0
   25.5122   18.9643   17.4716 H   0  0  0  0  0  0  0  0  0  0  0  0
   27.2254   18.4199   17.2576 H   0  0  0  0  0  0  0  0  0  0  0  0
   25.9989   21.6342   14.9109 H   0  0  0  0  0  0  0  0  0  0  0  0
   21.7607   14.7281   14.4028 H   0  0  0  0  0  0  0  0  0  0  0  0
   19.8463   13.3648   13.6354 H   0  0  0  0  0  0  0  0  0  0  0  0
   18.5222   12.3732   11.7519 H   0  0  0  0  0  0  0  0  0  0  0  0
   19.2600   12.7826    9.4351 H   0  0  0  0  0  0  0  0  0  0  0  0
   22.4555   15.2985    6.3086 H   0  0  0  0  0  0  0  0  0  0  0  0
  1  2  1  0
  2  3  1  0
  3  4  2  0
  4  5  1  0
  5  6  1  0
  6  7  2  0
  6  8  2  0
  6  9  1  0
  9 10  2  0
 10 11  1  0
 11 12  1  0
 12 13  2  0
 12 14  1  0
 14 15  1  0
 15 16  1  0
 16 17  1  0
 17 18  1  0
 18 19  2  0
 18 20  1  0
 20 21  1  0
 21 22  2  0
 11 23  2  0
 23 24  1  0
 24 25  2  0
 25 26  1  0
 26 27  2  0
 27 28  1  0
 28 29  2  0
  5 30  1  0
 30 31  2  0
 31  3  1  0
 29  9  1  0
 21 15  1  0
 29 24  1  0
  1 32  1  0
  1 33  1  0
  1 34  1  0
  2 35  1  0
  2 36  1  0
  4 37  1  0
 14 38  1  0
 15 39  1  1
 16 40  1  0
 16 41  1  0
 17 42  1  0
 17 43  1  0
 20 44  1  0
 23 45  1  0
 25 46  1  0
 26 47  1  0
 27 48  1  0
 30 49  1  0
M  END
>  <meeko>  (601) 
{"is_sidechain": [true], "free_energy": -10.67, "intermolecular_energy": 0.0, "internal_energy": -10.67, "cluster_size": 20, "cluster_id": 1, "rank_in_cluster": 1}

>  <_RMSD_MCS_to_ref>  (601) 
0.34458203345180083

$$$$
ligand
     RDKit          3D

 54 57  0  0  0  0  0  0  0  0999 V2000
   18.9090   19.1540    7.5370 C   0  0  0  0  0  0  0  0  0  0  0  0
   18.7730   17.6460    7.6780 C   0  0  0  0  0  0  0  0  0  0  0  0
   20.0930   16.9590    7.6700 C   0  0  0  0  0  0  0  0  0  0  0  0
   21.0090   16.8300    8.6950 C   0  0  0  0  0  0  0  0  0  0  0  0
   22.0400   16.1280    8.1370 N   0  0  0  0  0  0  0  0  0  0  0  0
   23.3740   15.5250    8.9620 S   0  0  0  0  0  6  0  0  0  0  0  0
   23.7000   14.2510    8.3420 O   0  0  0  0  0  0  0  0  0  0  0  0
   24.3330   16.6130    9.0030 O   0  0  0  0  0  0  0  0  0  0  0  0
   22.7560   15.2400   10.6010 C   0  0  0  0  0  0  0  0  0  0  0  0
   23.4340   15.8570   11.6640 C   0  0  0  0  0  0  0  0  0  0  0  0
   22.9720   15.7030   12.9710 C   0  0  0  0  0  0  0  0  0  0  0  0
   23.7090   16.3870   14.0690 C   0  0  0  0  0  0  0  0  0  0  0  0
   23.9980   15.7760   15.0910 O   0  0  0  0  0  0  0  0  0  0  0  0
   24.0060   17.7170   13.8780 N   0  0  0  0  0  0  0  0  0  0  0  0
   24.5750   18.5200   14.9520 C   0  0  1  0  0  0  0  0  0  0  0  0
   25.7220   17.8070   15.6630 C   0  0  0  0  0  0  0  0  0  0  0  0
   26.2950   18.7170   16.7380 C   0  0  0  0  0  0  0  0  0  0  0  0
   26.7280   20.0440   16.1600 C   0  0  0  0  0  0  0  0  0  0  0  0
   27.6970   20.6640   16.5880 O   0  0  0  0  0  0  0  0  0  0  0  0
   25.9640   20.5480   15.1390 N   0  0  0  0  0  0  0  0  0  0  0  0
   25.0980   19.8290   14.3530 C   0  0  0  0  0  0  0  0  0  0  0  0
   24.7620   20.2310   13.2400 O   0  0  0  0  0  0  0  0  0  0  0  0
   21.8140   14.9580   13.2040 C   0  0  0  0  0  0  0  0  0  0  0  0
   21.1320   14.3410   12.1390 C   0  0  0  0  0  0  0  0  0  0  0  0
   21.6280   14.4280   10.8190 C   0  0  0  0  0  0  0  0  0  0  0  0
   20.9150   13.8520    9.7540 N   0  0  0  0  0  0  0  0  0  0  0  0
   19.9330   12.8240   10.0830 C   0  0  0  0  0  0  0  0  0  0  0  0
   19.0390   13.3020   11.2110 C   0  0  0  0  0  0  0  0  0  0  0  0
   19.8870   13.5420   12.4510 C   0  0  0  0  0  0  0  0  0  0  0  0
   21.7170   15.8090    6.8570 C   0  0  0  0  0  0  0  0  0  0  0  0
   20.5460   16.3180    6.5350 N   0  0  0  0  0  0  0  0  0  0  0  0
   18.9504   19.6134    8.5356 H   0  0  0  0  0  0  0  0  0  0  0  0
   19.8320   19.3891    6.9867 H   0  0  0  0  0  0  0  0  0  0  0  0
   18.0430   19.5504    6.9867 H   0  0  0  0  0  0  0  0  0  0  0  0
   18.2637   17.4235    8.6273 H   0  0  0  0  0  0  0  0  0  0  0  0
   18.1954   17.2773    6.8175 H   0  0  0  0  0  0  0  0  0  0  0  0
   20.9274   17.2064    9.7254 H   0  0  0  0  0  0  0  0  0  0  0  0
   24.3307   16.4626   11.4660 H   0  0  0  0  0  0  0  0  0  0  0  0
   23.8233   18.1512   12.9620 H   0  0  0  0  0  0  0  0  0  0  0  0
   23.7861   18.7039   15.6962 H   0  0  0  0  0  0  0  0  0  0  0  0
   25.3479   16.8822   16.1265 H   0  0  0  0  0  0  0  0  0  0  0  0
   26.5081   17.5596   14.9344 H   0  0  0  0  0  0  0  0  0  0  0  0
   25.5265   18.8938   17.5049 H   0  0  0  0  0  0  0  0  0  0  0  0
   27.1759   18.2250   17.1762 H   0  0  0  0  0  0  0  0  0  0  0  0
   26.0473   21.5560   14.9444 H   0  0  0  0  0  0  0  0  0  0  0  0
   21.4314   14.8525   14.2299 H   0  0  0  0  0  0  0  0  0  0  0  0
   21.0790   14.1438    8.7799 H   0  0  0  0  0  0  0  0  0  0  0  0
   19.3180   12.6108    9.1963 H   0  0  0  0  0  0  0  0  0  0  0  0
   20.4586   11.9115   10.4010 H   0  0  0  0  0  0  0  0  0  0  0  0
   18.5437   14.2390   10.9165 H   0  0  0  0  0  0  0  0  0  0  0  0
   18.2750   12.5404   11.4263 H   0  0  0  0  0  0  0  0  0  0  0  0
   19.2872   14.0930   13.1903 H   0  0  0  0  0  0  0  0  0  0  0  0
   20.2005   12.5633   12.8432 H   0  0  0  0  0  0  0  0  0  0  0  0
   22.3460   15.2089    6.1830 H   0  0  0  0  0  0  0  0  0  0  0  0
  1  2  1  0
  2  3  1  0
  3  4  2  0
  4  5  1  0
  5  6  1  0
  6  7  2  0
  6  8  2  0
  6  9  1  0
  9 10  2  0
 10 11  1  0
 11 12  1  0
 12 13  2  0
 12 14  1  0
 14 15  1  0
 15 16  1  0
 16 17  1  0
 17 18  1  0
 18 19  2  0
 18 20  1  0
 20 21  1  0
 21 22  2  0
 11 23  2  0
 23 24  1  0
 24 25  2  0
 25 26  1  0
 26 27  1  0
 27 28  1  0
 28 29  1  0
  5 30  1  0
 30 31  2  0
 31  3  1  0
 25  9  1  0
 21 15  1  0
 29 24  1  0
  1 32  1  0
  1 33  1  0
  1 34  1  0
  2 35  1  0
  2 36  1  0
  4 37  1  0
 10 38  1  0
 14 39  1  0
 15 40  1  1
 16 41  1  0
 16 42  1  0
 17 43  1  0
 17 44  1  0
 20 45  1  0
 23 46  1  0
 26 47  1  0
 27 48  1  0
 27 49  1  0
 28 50  1  0
 28 51  1  0
 29 52  1  0
 29 53  1  0
 30 54  1  0
M  END
>  <meeko>  (602) 
{"is_sidechain": [true], "free_energy": -10.67, "intermolecular_energy": 0.0, "internal_energy": -10.67, "cluster_size": 20, "cluster_id": 1, "rank_in_cluster": 1}

>  <_RMSD_MCS_to_ref>  (602) 
0.40093224697779867

$$$$
ligand
     RDKit          3D

 55 58  0  0  0  0  0  0  0  0999 V2000
   18.9090   19.1540    7.5370 C   0  0  0  0  0  0  0  0  0  0  0  0
   18.7730   17.6460    7.6780 C   0  0  0  0  0  0  0  0  0  0  0  0
   20.0910   16.9580    7.6160 C   0  0  0  0  0  0  0  0  0  0  0  0
   20.9780   16.6890    8.6390 C   0  0  0  0  0  0  0  0  0  0  0  0
   22.0060   16.0320    8.0250 N   0  0  0  0  0  0  0  0  0  0  0  0
   23.3680   15.4140    8.7870 S   0  0  0  0  0  6  0  0  0  0  0  0
   24.4140   16.3730    8.4710 O   0  0  0  0  0  0  0  0  0  0  0  0
   23.4800   14.0190    8.4060 O   0  0  0  0  0  0  0  0  0  0  0  0
   23.0640   15.5040   10.5340 C   0  0  0  0  0  0  0  0  0  0  0  0
   23.8890   16.3650   11.2780 C   0  0  0  0  0  0  0  0  0  0  0  0
   23.7120   16.4780   12.6550 C   0  0  0  0  0  0  0  0  0  0  0  0
   24.5600   17.3690   13.4940 C   0  0  0  0  0  0  0  0  0  0  0  0
   25.7740   17.4000   13.3320 O   0  0  0  0  0  0  0  0  0  0  0  0
   23.9120   18.1070   14.4590 N   0  0  0  0  0  0  0  0  0  0  0  0
   24.6620   18.8950   15.4280 C   0  0  1  0  0  0  0  0  0  0  0  0
   25.7310   18.0690   16.1350 C   0  0  0  0  0  0  0  0  0  0  0  0
   26.5000   18.9580   17.1010 C   0  0  0  0  0  0  0  0  0  0  0  0
   27.0920   20.1550   16.3950 C   0  0  0  0  0  0  0  0  0  0  0  0
   28.1560   20.6600   16.7350 O   0  0  0  0  0  0  0  0  0  0  0  0
   26.3610   20.6810   15.3600 N   0  0  0  0  0  0  0  0  0  0  0  0
   25.3330   20.0600   14.6940 C   0  0  0  0  0  0  0  0  0  0  0  0
   24.9720   20.4400   13.5790 O   0  0  0  0  0  0  0  0  0  0  0  0
   22.7390   15.6960   13.2860 C   0  0  0  0  0  0  0  0  0  0  0  0
   21.9150   14.8210   12.5520 C   0  0  0  0  0  0  0  0  0  0  0  0
   22.0540   14.7410   11.1500 C   0  0  0  0  0  0  0  0  0  0  0  0
   21.2600   13.8640   10.3890 N   0  0  0  0  0  0  0  0  0  0  0  0
   19.8060   14.1190   10.5010 C   0  0  0  0  0  0  0  0  0  0  0  0
   19.1850   13.5240   11.7670 C   0  0  0  0  0  0  0  0  0  0  0  0
   19.5930   14.2170   12.9460 O   0  0  0  0  0  0  0  0  0  0  0  0
   20.9420   13.9470   13.3080 C   0  0  0  0  0  0  0  0  0  0  0  0
   21.7480   15.9420    6.6960 C   0  0  0  0  0  0  0  0  0  0  0  0
   20.5790   16.4810    6.4140 N   0  0  0  0  0  0  0  0  0  0  0  0
   18.9504   19.6134    8.5356 H   0  0  0  0  0  0  0  0  0  0  0  0
   19.8320   19.3891    6.9867 H   0  0  0  0  0  0  0  0  0  0  0  0
   18.0430   19.5504    6.9867 H   0  0  0  0  0  0  0  0  0  0  0  0
   18.3005   17.4212    8.6456 H   0  0  0  0  0  0  0  0  0  0  0  0
   18.1600   17.2809    6.8407 H   0  0  0  0  0  0  0  0  0  0  0  0
   20.8795   16.9450    9.7042 H   0  0  0  0  0  0  0  0  0  0  0  0
   24.6732   16.9487   10.7737 H   0  0  0  0  0  0  0  0  0  0  0  0
   22.8827   18.1019   14.4963 H   0  0  0  0  0  0  0  0  0  0  0  0
   23.9599   19.2572   16.1934 H   0  0  0  0  0  0  0  0  0  0  0  0
   25.2530   17.2495   16.6917 H   0  0  0  0  0  0  0  0  0  0  0  0
   26.4238   17.6501   15.3903 H   0  0  0  0  0  0  0  0  0  0  0  0
   25.8153   19.3086   17.8873 H   0  0  0  0  0  0  0  0  0  0  0  0
   27.3223   18.3694   17.5339 H   0  0  0  0  0  0  0  0  0  0  0  0
   26.6068   21.6330   15.0530 H   0  0  0  0  0  0  0  0  0  0  0  0
   22.6150   15.7658   14.3768 H   0  0  0  0  0  0  0  0  0  0  0  0
   21.6547   13.1120    9.8062 H   0  0  0  0  0  0  0  0  0  0  0  0
   19.6414   15.2066   10.5088 H   0  0  0  0  0  0  0  0  0  0  0  0
   19.3219   13.6339    9.6405 H   0  0  0  0  0  0  0  0  0  0  0  0
   18.0896   13.5806   11.6843 H   0  0  0  0  0  0  0  0  0  0  0  0
   19.5273   12.4821   11.8528 H   0  0  0  0  0  0  0  0  0  0  0  0
   21.0640   14.1292   14.3859 H   0  0  0  0  0  0  0  0  0  0  0  0
   21.1589   12.8986   13.0554 H   0  0  0  0  0  0  0  0  0  0  0  0
   22.4210   15.4830    5.9568 H   0  0  0  0  0  0  0  0  0  0  0  0
  1  2  1  0
  2  3  1  0
  3  4  2  0
  4  5  1  0
  5  6  1  0
  6  7  2  0
  6  8  2  0
  6  9  1  0
  9 10  2  0
 10 11  1  0
 11 12  1  0
 12 13  2  0
 12 14  1  0
 14 15  1  0
 15 16  1  0
 16 17  1  0
 17 18  1  0
 18 19  2  0
 18 20  1  0
 20 21  1  0
 21 22  2  0
 11 23  2  0
 23 24  1  0
 24 25  2  0
 25 26  1  0
 26 27  1  0
 27 28  1  0
 28 29  1  0
 29 30  1  0
  5 31  1  0
 31 32  2  0
 32  3  1  0
 25  9  1  0
 21 15  1  0
 30 24  1  0
  1 33  1  0
  1 34  1  0
  1 35  1  0
  2 36  1  0
  2 37  1  0
  4 38  1  0
 10 39  1  0
 14 40  1  0
 15 41  1  1
 16 42  1  0
 16 43  1  0
 17 44  1  0
 17 45  1  0
 20 46  1  0
 23 47  1  0
 26 48  1  0
 27 49  1  0
 27 50  1  0
 28 51  1  0
 28 52  1  0
 30 53  1  0
 30 54  1  0
 31 55  1  0
M  END
>  <meeko>  (603) 
{"is_sidechain": [true], "free_energy": -10.67, "intermolecular_energy": 0.23, "internal_energy": -10.9, "cluster_size": 20, "cluster_id": 1, "rank_in_cluster": 1}

>  <_RMSD_MCS_to_ref>  (603) 
0.7405017068027445

$$$$
ligand
     RDKit          3D

 52 56  0  0  0  0  0  0  0  0999 V2000
   18.7970   18.8170    7.7190 C   0  0  0  0  0  0  0  0  0  0  0  0
   18.5280   17.3290    7.8810 C   0  0  0  0  0  0  0  0  0  0  0  0
   19.7320   16.5050    7.5910 C   0  0  0  0  0  0  0  0  0  0  0  0
   20.9820   16.5560    8.1770 C   0  0  0  0  0  0  0  0  0  0  0  0
   21.7000   15.6010    7.5160 N   0  0  0  0  0  0  0  0  0  0  0  0
   23.2540   15.0980    7.8870 S   0  0  0  0  0  6  0  0  0  0  0  0
   23.9380   14.9230    6.6200 O   0  0  0  0  0  0  0  0  0  0  0  0
   23.7320   15.9790    8.9360 O   0  0  0  0  0  0  0  0  0  0  0  0
   23.1910   13.5180    8.6050 C   0  0  0  0  0  0  0  0  0  0  0  0
   23.0450   12.3830    7.8080 N   0  0  0  0  0  0  0  0  0  0  0  0
   23.0380   11.3150    8.5750 C   0  0  0  0  0  0  0  0  0  0  0  0
   23.2010   11.5900   10.2570 S   0  0  0  0  0  0  0  0  0  0  0  0
   23.2930   13.2850    9.9670 C   0  0  0  0  0  0  0  0  0  0  0  0
   23.4420   14.2030   11.0930 C   0  0  0  0  0  0  0  0  0  0  0  0
   22.2980   14.6830   11.7740 C   0  0  0  0  0  0  0  0  0  0  0  0
   22.4180   15.5550   12.8600 C   0  0  0  0  0  0  0  0  0  0  0  0
   23.6940   15.9200   13.2420 C   0  0  0  0  0  0  0  0  0  0  0  0
   24.8350   15.4620   12.5900 C   0  0  0  0  0  0  0  0  0  0  0  0
   24.7250   14.6050   11.5070 C   0  0  0  0  0  0  0  0  0  0  0  0
   26.0530   16.0430   13.2240 C   0  0  0  0  0  0  0  0  0  0  0  0
   25.5040   16.7810   14.3530 N   0  0  0  0  0  0  0  0  0  0  0  0
   26.3310   17.6940   15.1350 C   0  0  2  0  0  0  0  0  0  0  0  0
   25.9550   17.7510   16.6150 C   0  0  0  0  0  0  0  0  0  0  0  0
   26.9150   18.6800   17.3440 C   0  0  0  0  0  0  0  0  0  0  0  0
   26.9190   20.0570   16.7250 C   0  0  0  0  0  0  0  0  0  0  0  0
   27.2660   21.0550   17.3510 O   0  0  0  0  0  0  0  0  0  0  0  0
   26.5960   20.1370   15.3930 N   0  0  0  0  0  0  0  0  0  0  0  0
   26.3330   19.1030   14.5230 C   0  0  0  0  0  0  0  0  0  0  0  0
   26.2190   19.3210   13.3180 O   0  0  0  0  0  0  0  0  0  0  0  0
   24.1170   16.8080   14.3300 C   0  0  0  0  0  0  0  0  0  0  0  0
   23.3590   17.4420   15.0380 O   0  0  0  0  0  0  0  0  0  0  0  0
   20.8920   14.9740    6.6250 C   0  0  0  0  0  0  0  0  0  0  0  0
   19.6910   15.5160    6.6270 N   0  0  0  0  0  0  0  0  0  0  0  0
   18.8815   19.2845    8.7111 H   0  0  0  0  0  0  0  0  0  0  0  0
   19.7359   18.9616    7.1643 H   0  0  0  0  0  0  0  0  0  0  0  0
   17.9682   19.2812    7.1643 H   0  0  0  0  0  0  0  0  0  0  0  0
   18.2087   17.1375    8.9161 H   0  0  0  0  0  0  0  0  0  0  0  0
   17.7450   17.0473    7.1616 H   0  0  0  0  0  0  0  0  0  0  0  0
   21.3212   17.2150    8.9899 H   0  0  0  0  0  0  0  0  0  0  0  0
   22.9333   10.3019    8.1594 H   0  0  0  0  0  0  0  0  0  0  0  0
   21.2983   14.3648   11.4434 H   0  0  0  0  0  0  0  0  0  0  0  0
   21.5317   15.9352   13.3891 H   0  0  0  0  0  0  0  0  0  0  0  0
   25.6224   14.2463   10.9816 H   0  0  0  0  0  0  0  0  0  0  0  0
   26.7395   15.2529   13.5624 H   0  0  0  0  0  0  0  0  0  0  0  0
   26.6456   16.6682   12.5400 H   0  0  0  0  0  0  0  0  0  0  0  0
   27.3497   17.2813   15.0921 H   0  0  0  0  0  0  0  0  0  0  0  0
   24.9276   18.1300   16.7185 H   0  0  0  0  0  0  0  0  0  0  0  0
   26.0178   16.7424   17.0496 H   0  0  0  0  0  0  0  0  0  0  0  0
   26.6061   18.7608   18.3966 H   0  0  0  0  0  0  0  0  0  0  0  0
   27.9294   18.2614   17.2682 H   0  0  0  0  0  0  0  0  0  0  0  0
   26.5441   21.0861   14.9964 H   0  0  0  0  0  0  0  0  0  0  0  0
   21.1971   14.1300    5.9889 H   0  0  0  0  0  0  0  0  0  0  0  0
  1  2  1  0
  2  3  1  0
  3  4  2  0
  4  5  1  0
  5  6  1  0
  6  7  2  0
  6  8  2  0
  6  9  1  0
  9 10  1  0
 10 11  2  0
 11 12  1  0
 12 13  1  0
 13 14  1  0
 14 15  2  0
 15 16  1  0
 16 17  2  0
 17 18  1  0
 18 19  2  0
 18 20  1  0
 20 21  1  0
 21 22  1  0
 22 23  1  0
 23 24  1  0
 24 25  1  0
 25 26  2  0
 25 27  1  0
 27 28  1  0
 28 29  2  0
 21 30  1  0
 30 31  2  0
  5 32  1  0
 32 33  2  0
 33  3  1  0
 13  9  2  0
 19 14  1  0
 28 22  1  0
 30 17  1  0
  1 34  1  0
  1 35  1  0
  1 36  1  0
  2 37  1  0
  2 38  1  0
  4 39  1  0
 11 40  1  0
 15 41  1  0
 16 42  1  0
 19 43  1  0
 20 44  1  0
 20 45  1  0
 22 46  1  1
 23 47  1  0
 23 48  1  0
 24 49  1  0
 24 50  1  0
 27 51  1  0
 32 52  1  0
M  END
>  <meeko>  (604) 
{"is_sidechain": [true], "free_energy": -10.66, "intermolecular_energy": 0.0, "internal_energy": -10.66, "cluster_size": 20, "cluster_id": 1, "rank_in_cluster": 1}

>  <_RMSD_MCS_to_ref>  (604) 
1.1507094430055844

$$$$
ligand
     RDKit          3D

 53 56  0  0  0  0  0  0  0  0999 V2000
   18.7970   18.8170    7.7190 C   0  0  0  0  0  0  0  0  0  0  0  0
   18.5280   17.3290    7.8810 C   0  0  0  0  0  0  0  0  0  0  0  0
   19.7810   16.5270    7.8790 C   0  0  0  0  0  0  0  0  0  0  0  0
   20.0650   15.3570    8.5550 C   0  0  0  0  0  0  0  0  0  0  0  0
   21.3410   15.0510    8.1740 N   0  0  0  0  0  0  0  0  0  0  0  0
   22.2980   13.8280    8.8120 S   0  0  0  0  0  6  0  0  0  0  0  0
   21.3740   12.7980    9.2440 O   0  0  0  0  0  0  0  0  0  0  0  0
   23.3210   13.5940    7.8120 O   0  0  0  0  0  0  0  0  0  0  0  0
   23.1080   14.4660   10.2690 C   0  0  0  0  0  0  0  0  0  0  0  0
   24.4280   14.9260   10.1990 C   0  0  0  0  0  0  0  0  0  0  0  0
   25.0570   15.4100   11.3460 C   0  0  0  0  0  0  0  0  0  0  0  0
   24.3760   15.4470   12.5670 C   0  0  0  0  0  0  0  0  0  0  0  0
   25.1240   16.0000   13.7220 C   0  0  0  0  0  0  0  0  0  0  0  0
   25.4750   15.2670   14.6390 O   0  0  0  0  0  0  0  0  0  0  0  0
   25.4330   17.3360   13.6460 N   0  0  0  0  0  0  0  0  0  0  0  0
   26.3110   17.9660   14.6200 C   0  0  2  0  0  0  0  0  0  0  0  0
   25.8080   17.7890   16.0480 C   0  0  0  0  0  0  0  0  0  0  0  0
   26.7460   18.5000   17.0100 C   0  0  0  0  0  0  0  0  0  0  0  0
   26.9030   19.9580   16.6460 C   0  0  0  0  0  0  0  0  0  0  0  0
   27.0620   20.8340   17.4900 O   0  0  0  0  0  0  0  0  0  0  0  0
   26.8890   20.2620   15.3080 N   0  0  0  0  0  0  0  0  0  0  0  0
   26.4020   19.4630   14.3040 C   0  0  0  0  0  0  0  0  0  0  0  0
   26.0740   19.9340   13.2160 O   0  0  0  0  0  0  0  0  0  0  0  0
   23.0580   14.9580   12.6640 C   0  0  0  0  0  0  0  0  0  0  0  0
   22.4010   14.4880   11.4980 C   0  0  0  0  0  0  0  0  0  0  0  0
   20.9780   13.9600   11.6010 C   0  0  0  0  0  0  0  0  0  0  0  0
   20.3280   14.3040   12.8290 O   0  0  0  0  0  0  0  0  0  0  0  0
   21.1400   13.9730   13.9490 C   0  0  0  0  0  0  0  0  0  0  0  0
   22.3200   14.9340   13.9860 C   0  0  0  0  0  0  0  0  0  0  0  0
   21.7980   16.0130    7.3320 C   0  0  0  0  0  0  0  0  0  0  0  0
   20.8740   16.9310    7.1380 N   0  0  0  0  0  0  0  0  0  0  0  0
   18.8815   19.2845    8.7111 H   0  0  0  0  0  0  0  0  0  0  0  0
   19.7359   18.9616    7.1643 H   0  0  0  0  0  0  0  0  0  0  0  0
   17.9682   19.2812    7.1643 H   0  0  0  0  0  0  0  0  0  0  0  0
   18.0045   17.1656    8.8346 H   0  0  0  0  0  0  0  0  0  0  0  0
   17.9168   17.0018    7.0270 H   0  0  0  0  0  0  0  0  0  0  0  0
   19.4130   14.7988    9.2430 H   0  0  0  0  0  0  0  0  0  0  0  0
   24.9684   14.9059    9.2411 H   0  0  0  0  0  0  0  0  0  0  0  0
   26.0965   15.7653   11.2898 H   0  0  0  0  0  0  0  0  0  0  0  0
   25.0351   17.9034   12.8840 H   0  0  0  0  0  0  0  0  0  0  0  0
   27.2972   17.4836   14.5510 H   0  0  0  0  0  0  0  0  0  0  0  0
   24.7988   18.2176   16.1366 H   0  0  0  0  0  0  0  0  0  0  0  0
   25.7754   16.7174   16.2940 H   0  0  0  0  0  0  0  0  0  0  0  0
   26.3375   18.4269   18.0287 H   0  0  0  0  0  0  0  0  0  0  0  0
   27.7336   18.0190   16.9515 H   0  0  0  0  0  0  0  0  0  0  0  0
   27.2800   21.1739   15.0317 H   0  0  0  0  0  0  0  0  0  0  0  0
   20.3914   14.3757   10.7684 H   0  0  0  0  0  0  0  0  0  0  0  0
   21.0371   12.8622   11.5631 H   0  0  0  0  0  0  0  0  0  0  0  0
   20.5535   14.0687   14.8746 H   0  0  0  0  0  0  0  0  0  0  0  0
   21.4985   12.9366   13.8635 H   0  0  0  0  0  0  0  0  0  0  0  0
   21.9500   15.9460   14.2072 H   0  0  0  0  0  0  0  0  0  0  0  0
   23.0182   14.5934   14.7648 H   0  0  0  0  0  0  0  0  0  0  0  0
   22.7990   16.0240    6.8761 H   0  0  0  0  0  0  0  0  0  0  0  0
  1  2  1  0
  2  3  1  0
  3  4  2  0
  4  5  1  0
  5  6  1  0
  6  7  2  0
  6  8  2  0
  6  9  1  0
  9 10  2  0
 10 11  1  0
 11 12  2  0
 12 13  1  0
 13 14  2  0
 13 15  1  0
 15 16  1  0
 16 17  1  0
 17 18  1  0
 18 19  1  0
 19 20  2  0
 19 21  1  0
 21 22  1  0
 22 23  2  0
 12 24  1  0
 24 25  2  0
 25 26  1  0
 26 27  1  0
 27 28  1  0
 28 29  1  0
  5 30  1  0
 30 31  2  0
 31  3  1  0
 25  9  1  0
 22 16  1  0
 29 24  1  0
  1 32  1  0
  1 33  1  0
  1 34  1  0
  2 35  1  0
  2 36  1  0
  4 37  1  0
 10 38  1  0
 11 39  1  0
 15 40  1  0
 16 41  1  1
 17 42  1  0
 17 43  1  0
 18 44  1  0
 18 45  1  0
 21 46  1  0
 26 47  1  0
 26 48  1  0
 28 49  1  0
 28 50  1  0
 29 51  1  0
 29 52  1  0
 30 53  1  0
M  END
>  <meeko>  (605) 
{"is_sidechain": [true], "free_energy": -10.66, "intermolecular_energy": 0.0, "internal_energy": -10.66, "cluster_size": 16, "cluster_id": 1, "rank_in_cluster": 1}

>  <_RMSD_MCS_to_ref>  (605) 
0.8290261354947339

$$$$
ligand
     RDKit          3D

 53 57  0  0  0  0  0  0  0  0999 V2000
   18.7970   18.8160    7.7190 C   0  0  0  0  0  0  0  0  0  0  0  0
   18.5280   17.3300    7.8810 C   0  0  0  0  0  0  0  0  0  0  0  0
   19.7400   16.5060    7.6220 C   0  0  0  0  0  0  0  0  0  0  0  0
   20.7880   16.2040    8.4700 C   0  0  0  0  0  0  0  0  0  0  0  0
   21.6200   15.4350    7.7080 N   0  0  0  0  0  0  0  0  0  0  0  0
   23.1300   14.8790    8.1720 S   0  0  0  0  0  6  0  0  0  0  0  0
   23.8130   14.5380    6.9400 O   0  0  0  0  0  0  0  0  0  0  0  0
   23.6600   15.8210    9.1360 O   0  0  0  0  0  0  0  0  0  0  0  0
   22.9940   13.4010    9.0230 C   0  0  0  0  0  0  0  0  0  0  0  0
   22.7740   12.1490    8.4890 C   0  0  0  0  0  0  0  0  0  0  0  0
   22.7090   11.3040    9.5530 N   0  0  0  0  0  0  0  0  0  0  0  0
   22.8460   11.9250   10.7360 N   0  0  0  0  0  0  0  0  0  0  0  0
   23.0670   13.2110   10.4230 C   0  0  0  0  0  0  0  0  0  0  0  0
   23.2980   14.1940   11.4700 C   0  0  0  0  0  0  0  0  0  0  0  0
   22.2210   14.6420   12.2680 C   0  0  0  0  0  0  0  0  0  0  0  0
   22.4390   15.5380   13.3180 C   0  0  0  0  0  0  0  0  0  0  0  0
   23.7380   15.9550   13.5390 C   0  0  0  0  0  0  0  0  0  0  0  0
   24.8080   15.5380   12.7500 C   0  0  0  0  0  0  0  0  0  0  0  0
   24.6030   14.6610   11.6990 C   0  0  0  0  0  0  0  0  0  0  0  0
   26.0780   16.1540   13.2380 C   0  0  0  0  0  0  0  0  0  0  0  0
   25.6280   16.9360   14.3830 N   0  0  0  0  0  0  0  0  0  0  0  0
   26.4630   17.8950   15.0990 C   0  0  2  0  0  0  0  0  0  0  0  0
   26.2550   17.7690   16.6110 C   0  0  0  0  0  0  0  0  0  0  0  0
   27.2360   18.6710   17.3420 C   0  0  0  0  0  0  0  0  0  0  0  0
   27.1080   20.1020   16.8820 C   0  0  0  0  0  0  0  0  0  0  0  0
   27.2840   21.0550   17.6350 O   0  0  0  0  0  0  0  0  0  0  0  0
   26.8100   20.2950   15.5570 N   0  0  0  0  0  0  0  0  0  0  0  0
   26.2820   19.3660   14.6880 C   0  0  0  0  0  0  0  0  0  0  0  0
   25.7320   19.7400   13.6560 O   0  0  0  0  0  0  0  0  0  0  0  0
   24.2540   16.8730   14.5570 C   0  0  0  0  0  0  0  0  0  0  0  0
   23.5750   17.4830   15.3620 O   0  0  0  0  0  0  0  0  0  0  0  0
   21.0830   15.2780    6.4740 C   0  0  0  0  0  0  0  0  0  0  0  0
   19.9390   15.9250    6.3850 N   0  0  0  0  0  0  0  0  0  0  0  0
   18.8816   19.2836    8.7111 H   0  0  0  0  0  0  0  0  0  0  0  0
   19.7359   18.9603    7.1643 H   0  0  0  0  0  0  0  0  0  0  0  0
   17.9683   19.2803    7.1643 H   0  0  0  0  0  0  0  0  0  0  0  0
   18.1856   17.1424    8.9094 H   0  0  0  0  0  0  0  0  0  0  0  0
   17.7625   17.0440    7.1447 H   0  0  0  0  0  0  0  0  0  0  0  0
   20.9214   16.5120    9.5175 H   0  0  0  0  0  0  0  0  0  0  0  0
   22.6723   11.8881    7.4252 H   0  0  0  0  0  0  0  0  0  0  0  0
   22.5685   10.2878    9.4605 H   0  0  0  0  0  0  0  0  0  0  0  0
   21.2023   14.2823   12.0608 H   0  0  0  0  0  0  0  0  0  0  0  0
   21.6091   15.8974   13.9442 H   0  0  0  0  0  0  0  0  0  0  0  0
   25.4388   14.3386   11.0607 H   0  0  0  0  0  0  0  0  0  0  0  0
   26.8024   15.3841   13.5421 H   0  0  0  0  0  0  0  0  0  0  0  0
   26.5976   16.7519   12.4748 H   0  0  0  0  0  0  0  0  0  0  0  0
   27.4904   17.6250   14.8135 H   0  0  0  0  0  0  0  0  0  0  0  0
   25.2267   18.0665   16.8643 H   0  0  0  0  0  0  0  0  0  0  0  0
   26.4243   16.7256   16.9155 H   0  0  0  0  0  0  0  0  0  0  0  0
   27.0326   18.6217   18.4219 H   0  0  0  0  0  0  0  0  0  0  0  0
   28.2570   18.3248   17.1235 H   0  0  0  0  0  0  0  0  0  0  0  0
   27.0008   21.2312   15.1723 H   0  0  0  0  0  0  0  0  0  0  0  0
   21.5381   14.6929    5.6612 H   0  0  0  0  0  0  0  0  0  0  0  0
  1  2  1  0
  2  3  1  0
  3  4  2  0
  4  5  1  0
  5  6  1  0
  6  7  2  0
  6  8  2  0
  6  9  1  0
  9 10  2  0
 10 11  1  0
 11 12  1  0
 12 13  2  0
 13 14  1  0
 14 15  2  0
 15 16  1  0
 16 17  2  0
 17 18  1  0
 18 19  2  0
 18 20  1  0
 20 21  1  0
 21 22  1  0
 22 23  1  0
 23 24  1  0
 24 25  1  0
 25 26  2  0
 25 27  1  0
 27 28  1  0
 28 29  2  0
 21 30  1  0
 30 31  2  0
  5 32  1  0
 32 33  2  0
 33  3  1  0
 13  9  1  0
 19 14  1  0
 28 22  1  0
 30 17  1  0
  1 34  1  0
  1 35  1  0
  1 36  1  0
  2 37  1  0
  2 38  1  0
  4 39  1  0
 10 40  1  0
 11 41  1  0
 15 42  1  0
 16 43  1  0
 19 44  1  0
 20 45  1  0
 20 46  1  0
 22 47  1  1
 23 48  1  0
 23 49  1  0
 24 50  1  0
 24 51  1  0
 27 52  1  0
 32 53  1  0
M  END
>  <meeko>  (606) 
{"is_sidechain": [true], "free_energy": -10.66, "intermolecular_energy": 0.0, "internal_energy": -10.66, "cluster_size": 20, "cluster_id": 1, "rank_in_cluster": 1}

>  <_RMSD_MCS_to_ref>  (606) 
1.2870637772335398

$$$$
ligand
     RDKit          3D

 55 59  0  0  0  0  0  0  0  0999 V2000
   18.7970   18.8160    7.7190 C   0  0  0  0  0  0  0  0  0  0  0  0
   18.5280   17.3300    7.8810 C   0  0  0  0  0  0  0  0  0  0  0  0
   19.7460   16.5070    7.6490 C   0  0  0  0  0  0  0  0  0  0  0  0
   20.9610   16.5580    8.3040 C   0  0  0  0  0  0  0  0  0  0  0  0
   21.6990   15.5730    7.7170 N   0  0  0  0  0  0  0  0  0  0  0  0
   23.2700   15.1320    8.1060 S   0  0  0  0  0  6  0  0  0  0  0  0
   23.6990   16.0090    9.1760 O   0  0  0  0  0  0  0  0  0  0  0  0
   23.9470   15.1030    6.8220 O   0  0  0  0  0  0  0  0  0  0  0  0
   23.2160   13.4870    8.7350 C   0  0  0  0  0  0  0  0  0  0  0  0
   23.0990   12.4720    7.7940 C   0  0  0  0  0  0  0  0  0  0  0  0
   23.0300   11.1590    8.1080 N   0  0  0  0  0  0  0  0  0  0  0  0
   23.0990   10.8390    9.4140 C   0  0  0  0  0  0  0  0  0  0  0  0
   23.2280   11.7800   10.4210 C   0  0  0  0  0  0  0  0  0  0  0  0
   23.2900   13.1470   10.0950 C   0  0  0  0  0  0  0  0  0  0  0  0
   23.4310   14.1100   11.1910 C   0  0  0  0  0  0  0  0  0  0  0  0
   22.2920   14.5980   11.8780 C   0  0  0  0  0  0  0  0  0  0  0  0
   22.4150   15.4950   12.9430 C   0  0  0  0  0  0  0  0  0  0  0  0
   23.6900   15.8880   13.2980 C   0  0  0  0  0  0  0  0  0  0  0  0
   24.8250   15.4460   12.6270 C   0  0  0  0  0  0  0  0  0  0  0  0
   24.7110   14.5680   11.5640 C   0  0  0  0  0  0  0  0  0  0  0  0
   26.0460   16.0480   13.2360 C   0  0  0  0  0  0  0  0  0  0  0  0
   25.5070   16.7660   14.3830 N   0  0  0  0  0  0  0  0  0  0  0  0
   26.3360   17.6800   15.1610 C   0  0  2  0  0  0  0  0  0  0  0  0
   25.9540   17.7510   16.6390 C   0  0  0  0  0  0  0  0  0  0  0  0
   26.9140   18.6820   17.3630 C   0  0  0  0  0  0  0  0  0  0  0  0
   26.9270   20.0550   16.7320 C   0  0  0  0  0  0  0  0  0  0  0  0
   27.2710   21.0560   17.3540 O   0  0  0  0  0  0  0  0  0  0  0  0
   26.6130   20.1240   15.3980 N   0  0  0  0  0  0  0  0  0  0  0  0
   26.3470   19.0840   14.5360 C   0  0  0  0  0  0  0  0  0  0  0  0
   26.2360   19.2900   13.3290 O   0  0  0  0  0  0  0  0  0  0  0  0
   24.1190   16.7750   14.3840 C   0  0  0  0  0  0  0  0  0  0  0  0
   23.3660   17.3880   15.1140 O   0  0  0  0  0  0  0  0  0  0  0  0
   20.9780   15.0150    6.7090 C   0  0  0  0  0  0  0  0  0  0  0  0
   19.7660   15.5300    6.6710 N   0  0  0  0  0  0  0  0  0  0  0  0
   18.8816   19.2836    8.7111 H   0  0  0  0  0  0  0  0  0  0  0  0
   19.7359   18.9603    7.1643 H   0  0  0  0  0  0  0  0  0  0  0  0
   17.9683   19.2803    7.1643 H   0  0  0  0  0  0  0  0  0  0  0  0
   18.1658   17.1454    8.9031 H   0  0  0  0  0  0  0  0  0  0  0  0
   17.7779   17.0400    7.1305 H   0  0  0  0  0  0  0  0  0  0  0  0
   21.2640   17.2378    9.1140 H   0  0  0  0  0  0  0  0  0  0  0  0
   23.0602   12.7531    6.7312 H   0  0  0  0  0  0  0  0  0  0  0  0
   23.0504    9.7766    9.6949 H   0  0  0  0  0  0  0  0  0  0  0  0
   23.2818   11.4600   11.4721 H   0  0  0  0  0  0  0  0  0  0  0  0
   21.2910   14.2644   11.5671 H   0  0  0  0  0  0  0  0  0  0  0  0
   21.5308   15.8729   13.4772 H   0  0  0  0  0  0  0  0  0  0  0  0
   25.6052   14.2325   11.0183 H   0  0  0  0  0  0  0  0  0  0  0  0
   26.7568   15.2704   13.5523 H   0  0  0  0  0  0  0  0  0  0  0  0
   26.6099   16.6899   12.5432 H   0  0  0  0  0  0  0  0  0  0  0  0
   27.3529   17.2620   15.1270 H   0  0  0  0  0  0  0  0  0  0  0  0
   24.9276   18.1348   16.7350 H   0  0  0  0  0  0  0  0  0  0  0  0
   26.0110   16.7460   17.0826 H   0  0  0  0  0  0  0  0  0  0  0  0
   26.6010   18.7733   18.4136 H   0  0  0  0  0  0  0  0  0  0  0  0
   27.9269   18.2585   17.2945 H   0  0  0  0  0  0  0  0  0  0  0  0
   26.5712   21.0696   14.9919 H   0  0  0  0  0  0  0  0  0  0  0  0
   21.3535   14.2424    6.0219 H   0  0  0  0  0  0  0  0  0  0  0  0
  1  2  1  0
  2  3  1  0
  3  4  2  0
  4  5  1  0
  5  6  1  0
  6  7  2  0
  6  8  2  0
  6  9  1  0
  9 10  2  0
 10 11  1  0
 11 12  2  0
 12 13  1  0
 13 14  2  0
 14 15  1  0
 15 16  2  0
 16 17  1  0
 17 18  2  0
 18 19  1  0
 19 20  2  0
 19 21  1  0
 21 22  1  0
 22 23  1  0
 23 24  1  0
 24 25  1  0
 25 26  1  0
 26 27  2  0
 26 28  1  0
 28 29  1  0
 29 30  2  0
 22 31  1  0
 31 32  2  0
  5 33  1  0
 33 34  2  0
 34  3  1  0
 14  9  1  0
 20 15  1  0
 29 23  1  0
 31 18  1  0
  1 35  1  0
  1 36  1  0
  1 37  1  0
  2 38  1  0
  2 39  1  0
  4 40  1  0
 10 41  1  0
 12 42  1  0
 13 43  1  0
 16 44  1  0
 17 45  1  0
 20 46  1  0
 21 47  1  0
 21 48  1  0
 23 49  1  1
 24 50  1  0
 24 51  1  0
 25 52  1  0
 25 53  1  0
 28 54  1  0
 33 55  1  0
M  END
>  <meeko>  (607) 
{"is_sidechain": [true], "free_energy": -10.66, "intermolecular_energy": 0.0, "internal_energy": -10.66, "cluster_size": 20, "cluster_id": 1, "rank_in_cluster": 1}

>  <_RMSD_MCS_to_ref>  (607) 
1.1898925254922073

$$$$
ligand
     RDKit          3D

 49 52  0  0  0  0  0  0  0  0999 V2000
   18.9090   19.1540    7.5370 C   0  0  0  0  0  0  0  0  0  0  0  0
   18.7730   17.6460    7.6780 C   0  0  0  0  0  0  0  0  0  0  0  0
   20.0930   16.9590    7.6500 C   0  0  0  0  0  0  0  0  0  0  0  0
   20.9620   16.7060    8.6930 C   0  0  0  0  0  0  0  0  0  0  0  0
   22.0020   16.0410    8.1090 N   0  0  0  0  0  0  0  0  0  0  0  0
   23.4580   15.6550    8.8530 S   0  0  0  0  0  6  0  0  0  0  0  0
   24.2990   16.8300    8.7350 O   0  0  0  0  0  0  0  0  0  0  0  0
   23.8510   14.3770    8.2890 O   0  0  0  0  0  0  0  0  0  0  0  0
   23.0020   15.4160   10.5500 C   0  0  0  0  0  0  0  0  0  0  0  0
   23.8580   15.9220   11.5440 C   0  0  0  0  0  0  0  0  0  0  0  0
   23.5630   15.7470   12.8990 C   0  0  0  0  0  0  0  0  0  0  0  0
   24.5260   16.2860   13.9000 C   0  0  0  0  0  0  0  0  0  0  0  0
   25.0980   15.5310   14.6750 O   0  0  0  0  0  0  0  0  0  0  0  0
   24.7450   17.6450   13.8720 N   0  0  0  0  0  0  0  0  0  0  0  0
   25.7900   18.2520   14.6870 C   0  0  2  0  0  0  0  0  0  0  0  0
   25.6160   17.9530   16.1720 C   0  0  0  0  0  0  0  0  0  0  0  0
   26.7100   18.6530   16.9630 C   0  0  0  0  0  0  0  0  0  0  0  0
   26.7220   20.1380   16.6850 C   0  0  0  0  0  0  0  0  0  0  0  0
   27.0100   20.9670   17.5420 O   0  0  0  0  0  0  0  0  0  0  0  0
   26.4160   20.5270   15.4040 N   0  0  0  0  0  0  0  0  0  0  0  0
   25.7450   19.7690   14.4770 C   0  0  0  0  0  0  0  0  0  0  0  0
   25.1530   20.2920   13.5330 O   0  0  0  0  0  0  0  0  0  0  0  0
   22.4130   15.0480   13.2940 C   0  0  0  0  0  0  0  0  0  0  0  0
   21.5660   14.5600   12.2880 C   0  0  0  0  0  0  0  0  0  0  0  0
   20.3880   13.8550   12.4010 N   0  0  0  0  0  0  0  0  0  0  0  0
   19.8800   13.5860   11.1610 C   0  0  0  0  0  0  0  0  0  0  0  0
   20.7410   14.1180   10.2290 C   0  0  0  0  0  0  0  0  0  0  0  0
   21.8230   14.7320   10.9230 C   0  0  0  0  0  0  0  0  0  0  0  0
   21.7760   15.9460    6.7740 C   0  0  0  0  0  0  0  0  0  0  0  0
   20.6150   16.4850    6.4620 N   0  0  0  0  0  0  0  0  0  0  0  0
   18.9504   19.6134    8.5356 H   0  0  0  0  0  0  0  0  0  0  0  0
   19.8320   19.3891    6.9867 H   0  0  0  0  0  0  0  0  0  0  0  0
   18.0430   19.5504    6.9867 H   0  0  0  0  0  0  0  0  0  0  0  0
   18.2772   17.4226    8.6342 H   0  0  0  0  0  0  0  0  0  0  0  0
   18.1821   17.2784    6.8261 H   0  0  0  0  0  0  0  0  0  0  0  0
   20.8435   16.9780    9.7522 H   0  0  0  0  0  0  0  0  0  0  0  0
   24.7707   16.4620   11.2518 H   0  0  0  0  0  0  0  0  0  0  0  0
   24.1624   18.2410   13.2668 H   0  0  0  0  0  0  0  0  0  0  0  0
   26.7560   17.8281   14.3752 H   0  0  0  0  0  0  0  0  0  0  0  0
   24.6328   18.3160   16.5061 H   0  0  0  0  0  0  0  0  0  0  0  0
   25.6823   16.8675   16.3371 H   0  0  0  0  0  0  0  0  0  0  0  0
   26.5358   18.4906   18.0369 H   0  0  0  0  0  0  0  0  0  0  0  0
   27.6809   18.2345   16.6593 H   0  0  0  0  0  0  0  0  0  0  0  0
   26.7158   21.4687   15.1138 H   0  0  0  0  0  0  0  0  0  0  0  0
   22.1829   14.8877   14.3577 H   0  0  0  0  0  0  0  0  0  0  0  0
   19.9532   13.5717   13.2907 H   0  0  0  0  0  0  0  0  0  0  0  0
   18.9488   13.0413   10.9464 H   0  0  0  0  0  0  0  0  0  0  0  0
   20.6156   14.0764    9.1370 H   0  0  0  0  0  0  0  0  0  0  0  0
   22.4661   15.4834    6.0530 H   0  0  0  0  0  0  0  0  0  0  0  0
  1  2  1  0
  2  3  1  0
  3  4  2  0
  4  5  1  0
  5  6  1  0
  6  7  2  0
  6  8  2  0
  6  9  1  0
  9 10  2  0
 10 11  1  0
 11 12  1  0
 12 13  2  0
 12 14  1  0
 14 15  1  0
 15 16  1  0
 16 17  1  0
 17 18  1  0
 18 19  2  0
 18 20  1  0
 20 21  1  0
 21 22  2  0
 11 23  2  0
 23 24  1  0
 24 25  1  0
 25 26  1  0
 26 27  2  0
 27 28  1  0
  5 29  1  0
 29 30  2  0
 30  3  1  0
 28  9  1  0
 21 15  1  0
 28 24  2  0
  1 31  1  0
  1 32  1  0
  1 33  1  0
  2 34  1  0
  2 35  1  0
  4 36  1  0
 10 37  1  0
 14 38  1  0
 15 39  1  6
 16 40  1  0
 16 41  1  0
 17 42  1  0
 17 43  1  0
 20 44  1  0
 23 45  1  0
 25 46  1  0
 26 47  1  0
 27 48  1  0
 29 49  1  0
M  END
>  <meeko>  (608) 
{"is_sidechain": [true], "free_energy": -10.66, "intermolecular_energy": 0.0, "internal_energy": -10.66, "cluster_size": 20, "cluster_id": 1, "rank_in_cluster": 1}

>  <_RMSD_MCS_to_ref>  (608) 
0.6017981389137059

$$$$
ligand
     RDKit          3D

 48 51  0  0  0  0  0  0  0  0999 V2000
   18.9090   19.1540    7.5370 C   0  0  0  0  0  0  0  0  0  0  0  0
   18.7730   17.6460    7.6780 C   0  0  0  0  0  0  0  0  0  0  0  0
   20.0460   16.9370    7.3770 C   0  0  0  0  0  0  0  0  0  0  0  0
   20.9440   16.3560    8.2510 C   0  0  0  0  0  0  0  0  0  0  0  0
   21.9330   15.8710    7.4440 N   0  0  0  0  0  0  0  0  0  0  0  0
   23.1910   14.8640    7.9170 S   0  0  0  0  0  6  0  0  0  0  0  0
   22.6030   13.5450    8.0490 O   0  0  0  0  0  0  0  0  0  0  0  0
   24.2890   15.1340    7.0100 O   0  0  0  0  0  0  0  0  0  0  0  0
   23.6160   15.4570    9.5310 C   0  0  0  0  0  0  0  0  0  0  0  0
   22.7110   15.2640   10.5900 C   0  0  0  0  0  0  0  0  0  0  0  0
   23.0000   15.7330   11.8760 C   0  0  0  0  0  0  0  0  0  0  0  0
   24.2070   16.3970   12.1520 C   0  0  0  0  0  0  0  0  0  0  0  0
   24.5870   16.9240   13.4910 C   0  0  0  0  0  0  0  0  0  0  0  0
   24.4750   16.2040   14.4790 O   0  0  0  0  0  0  0  0  0  0  0  0
   25.0210   18.2270   13.5600 N   0  0  0  0  0  0  0  0  0  0  0  0
   25.2740   18.8700   14.8440 C   0  0  1  0  0  0  0  0  0  0  0  0
   26.3380   18.1420   15.6580 C   0  0  0  0  0  0  0  0  0  0  0  0
   26.5840   18.8930   16.9580 C   0  0  0  0  0  0  0  0  0  0  0  0
   26.9590   20.3330   16.6980 C   0  0  0  0  0  0  0  0  0  0  0  0
   27.7460   20.9480   17.4100 O   0  0  0  0  0  0  0  0  0  0  0  0
   26.3520   20.9430   15.6290 N   0  0  0  0  0  0  0  0  0  0  0  0
   25.7440   20.3040   14.5790 C   0  0  0  0  0  0  0  0  0  0  0  0
   25.5830   20.8630   13.4940 O   0  0  0  0  0  0  0  0  0  0  0  0
   25.0870   16.5750   11.0720 C   0  0  0  0  0  0  0  0  0  0  0  0
   26.3130   17.1920   11.0070 N   0  0  0  0  0  0  0  0  0  0  0  0
   26.8790   17.1490    9.7900 N   0  0  0  0  0  0  0  0  0  0  0  0
   25.9900   16.4830    9.0530 C   0  0  0  0  0  0  0  0  0  0  0  0
   24.8330   16.1150    9.7830 C   0  0  0  0  0  0  0  0  0  0  0  0
   21.6090   16.1180    6.1480 C   0  0  0  0  0  0  0  0  0  0  0  0
   20.4690   16.7720    6.0730 N   0  0  0  0  0  0  0  0  0  0  0  0
   18.9504   19.6134    8.5356 H   0  0  0  0  0  0  0  0  0  0  0  0
   19.8320   19.3891    6.9867 H   0  0  0  0  0  0  0  0  0  0  0  0
   18.0430   19.5504    6.9867 H   0  0  0  0  0  0  0  0  0  0  0  0
   18.4726   17.4122    8.7101 H   0  0  0  0  0  0  0  0  0  0  0  0
   18.0174   17.3057    6.9547 H   0  0  0  0  0  0  0  0  0  0  0  0
   20.8776   16.2974    9.3474 H   0  0  0  0  0  0  0  0  0  0  0  0
   21.7633   14.7373   10.4047 H   0  0  0  0  0  0  0  0  0  0  0  0
   22.2701   15.5793   12.6845 H   0  0  0  0  0  0  0  0  0  0  0  0
   25.1699   18.7578   12.6899 H   0  0  0  0  0  0  0  0  0  0  0  0
   24.3415   18.8504   15.4271 H   0  0  0  0  0  0  0  0  0  0  0  0
   25.9931   17.1221   15.8834 H   0  0  0  0  0  0  0  0  0  0  0  0
   27.2726   18.0937   15.0799 H   0  0  0  0  0  0  0  0  0  0  0  0
   25.6680   18.8656   17.5664 H   0  0  0  0  0  0  0  0  0  0  0  0
   27.4174   18.4075   17.4869 H   0  0  0  0  0  0  0  0  0  0  0  0
   26.3532   21.9729   15.6140 H   0  0  0  0  0  0  0  0  0  0  0  0
   26.7573   17.6461   11.8177 H   0  0  0  0  0  0  0  0  0  0  0  0
   26.1391   16.2442    7.9896 H   0  0  0  0  0  0  0  0  0  0  0  0
   22.2150   15.8138    5.2818 H   0  0  0  0  0  0  0  0  0  0  0  0
  1  2  1  0
  2  3  1  0
  3  4  2  0
  4  5  1  0
  5  6  1  0
  6  7  2  0
  6  8  2  0
  6  9  1  0
  9 10  2  0
 10 11  1  0
 11 12  2  0
 12 13  1  0
 13 14  2  0
 13 15  1  0
 15 16  1  0
 16 17  1  0
 17 18  1  0
 18 19  1  0
 19 20  2  0
 19 21  1  0
 21 22  1  0
 22 23  2  0
 12 24  1  0
 24 25  1  0
 25 26  1  0
 26 27  2  0
 27 28  1  0
  5 29  1  0
 29 30  2  0
 30  3  1  0
 28  9  1  0
 22 16  1  0
 28 24  2  0
  1 31  1  0
  1 32  1  0
  1 33  1  0
  2 34  1  0
  2 35  1  0
  4 36  1  0
 10 37  1  0
 11 38  1  0
 15 39  1  0
 16 40  1  1
 17 41  1  0
 17 42  1  0
 18 43  1  0
 18 44  1  0
 21 45  1  0
 25 46  1  0
 27 47  1  0
 29 48  1  0
M  END
>  <meeko>  (609) 
{"is_sidechain": [true], "free_energy": -10.66, "intermolecular_energy": 0.0, "internal_energy": -10.66, "cluster_size": 16, "cluster_id": 1, "rank_in_cluster": 1}

>  <_RMSD_MCS_to_ref>  (609) 
0.7345003592768199

$$$$
ligand
     RDKit          3D

 47 50  0  0  0  0  0  0  0  0999 V2000
   18.9090   19.1540    7.5370 C   0  0  0  0  0  0  0  0  0  0  0  0
   18.7730   17.6460    7.6780 C   0  0  0  0  0  0  0  0  0  0  0  0
   20.0850   16.9710    7.8740 C   0  0  0  0  0  0  0  0  0  0  0  0
   20.4430   16.0430    8.8310 C   0  0  0  0  0  0  0  0  0  0  0  0
   21.7460   15.7490    8.5500 N   0  0  0  0  0  0  0  0  0  0  0  0
   22.7770   14.8680    9.5350 S   0  0  0  0  0  6  0  0  0  0  0  0
   23.1010   13.6600    8.8000 O   0  0  0  0  0  0  0  0  0  0  0  0
   23.7860   15.7890   10.0140 O   0  0  0  0  0  0  0  0  0  0  0  0
   21.9840   14.3200   10.9320 C   0  0  0  0  0  0  0  0  0  0  0  0
   21.1700   13.2150   11.0180 C   0  0  0  0  0  0  0  0  0  0  0  0
   20.7250   13.0560   12.2980 O   0  0  0  0  0  0  0  0  0  0  0  0
   21.2740   14.0650   13.0270 C   0  0  0  0  0  0  0  0  0  0  0  0
   21.1200   14.2910   14.3880 C   0  0  0  0  0  0  0  0  0  0  0  0
   21.8220   15.3880   14.8890 C   0  0  0  0  0  0  0  0  0  0  0  0
   22.5840   16.1760   14.0210 C   0  0  0  0  0  0  0  0  0  0  0  0
   23.3770   17.3220   14.5790 C   0  0  0  0  0  0  0  0  0  0  0  0
   22.9740   17.9640   15.5430 O   0  0  0  0  0  0  0  0  0  0  0  0
   24.5790   17.5710   13.9430 N   0  0  0  0  0  0  0  0  0  0  0  0
   25.6600   18.2420   14.6430 C   0  0  2  0  0  0  0  0  0  0  0  0
   25.6370   17.9250   16.1320 C   0  0  0  0  0  0  0  0  0  0  0  0
   26.7720   18.6610   16.8240 C   0  0  0  0  0  0  0  0  0  0  0  0
   26.6960   20.1480   16.5720 C   0  0  0  0  0  0  0  0  0  0  0  0
   27.0800   20.9730   17.3960 O   0  0  0  0  0  0  0  0  0  0  0  0
   26.2110   20.5410   15.3500 N   0  0  0  0  0  0  0  0  0  0  0  0
   25.5250   19.7620   14.4470 C   0  0  0  0  0  0  0  0  0  0  0  0
   24.8780   20.2830   13.5390 O   0  0  0  0  0  0  0  0  0  0  0  0
   22.7130   15.9710   12.6780 N   0  0  0  0  0  0  0  0  0  0  0  0
   22.0530   14.8840   12.2150 C   0  0  0  0  0  0  0  0  0  0  0  0
   22.1500   16.4940    7.4880 C   0  0  0  0  0  0  0  0  0  0  0  0
   21.1670   17.2650    7.0630 N   0  0  0  0  0  0  0  0  0  0  0  0
   18.9504   19.6134    8.5356 H   0  0  0  0  0  0  0  0  0  0  0  0
   19.8320   19.3891    6.9867 H   0  0  0  0  0  0  0  0  0  0  0  0
   18.0430   19.5504    6.9867 H   0  0  0  0  0  0  0  0  0  0  0  0
   18.1318   17.4292    8.5451 H   0  0  0  0  0  0  0  0  0  0  0  0
   18.3354   17.2613    6.7450 H   0  0  0  0  0  0  0  0  0  0  0  0
   19.8187   15.6327    9.6384 H   0  0  0  0  0  0  0  0  0  0  0  0
   20.9145   12.5545   10.1763 H   0  0  0  0  0  0  0  0  0  0  0  0
   20.4906   13.6521   15.0249 H   0  0  0  0  0  0  0  0  0  0  0  0
   21.7762   15.6314   15.9607 H   0  0  0  0  0  0  0  0  0  0  0  0
   24.7089   17.2780   12.9641 H   0  0  0  0  0  0  0  0  0  0  0  0
   26.6139   17.8843   14.2281 H   0  0  0  0  0  0  0  0  0  0  0  0
   24.6763   18.2465   16.5606 H   0  0  0  0  0  0  0  0  0  0  0  0
   25.7594   16.8417   16.2782 H   0  0  0  0  0  0  0  0  0  0  0  0
   26.7105   18.4775   17.9068 H   0  0  0  0  0  0  0  0  0  0  0  0
   27.7248   18.2886   16.4196 H   0  0  0  0  0  0  0  0  0  0  0  0
   26.3779   21.5211   15.0808 H   0  0  0  0  0  0  0  0  0  0  0  0
   23.1560   16.4593    7.0444 H   0  0  0  0  0  0  0  0  0  0  0  0
  1  2  1  0
  2  3  1  0
  3  4  2  0
  4  5  1  0
  5  6  1  0
  6  7  2  0
  6  8  2  0
  6  9  1  0
  9 10  2  0
 10 11  1  0
 11 12  1  0
 12 13  2  0
 13 14  1  0
 14 15  2  0
 15 16  1  0
 16 17  2  0
 16 18  1  0
 18 19  1  0
 19 20  1  0
 20 21  1  0
 21 22  1  0
 22 23  2  0
 22 24  1  0
 24 25  1  0
 25 26  2  0
 15 27  1  0
 27 28  2  0
  5 29  1  0
 29 30  2  0
 30  3  1  0
 28  9  1  0
 28 12  1  0
 25 19  1  0
  1 31  1  0
  1 32  1  0
  1 33  1  0
  2 34  1  0
  2 35  1  0
  4 36  1  0
 10 37  1  0
 13 38  1  0
 14 39  1  0
 18 40  1  0
 19 41  1  6
 20 42  1  0
 20 43  1  0
 21 44  1  0
 21 45  1  0
 24 46  1  0
 29 47  1  0
M  END
>  <meeko>  (610) 
{"is_sidechain": [true], "free_energy": -10.66, "intermolecular_energy": 0.0, "internal_energy": -10.66, "cluster_size": 12, "cluster_id": 1, "rank_in_cluster": 1}

>  <_RMSD_MCS_to_ref>  (610) 
0.48001932831455396

$$$$
ligand
     RDKit          3D

 47 50  0  0  0  0  0  0  0  0999 V2000
   18.9090   19.1540    7.5370 C   0  0  0  0  0  0  0  0  0  0  0  0
   18.7730   17.6460    7.6780 C   0  0  0  0  0  0  0  0  0  0  0  0
   20.0480   16.9380    7.3850 C   0  0  0  0  0  0  0  0  0  0  0  0
   20.8390   16.1860    8.2310 C   0  0  0  0  0  0  0  0  0  0  0  0
   21.8890   15.7940    7.4490 N   0  0  0  0  0  0  0  0  0  0  0  0
   23.1100   14.7450    7.9220 S   0  0  0  0  0  6  0  0  0  0  0  0
   23.9050   14.5570    6.7180 O   0  0  0  0  0  0  0  0  0  0  0  0
   22.4550   13.6270    8.5770 O   0  0  0  0  0  0  0  0  0  0  0  0
   24.1160   15.5700    9.1210 C   0  0  0  0  0  0  0  0  0  0  0  0
   25.2660   16.0960    8.7650 N   0  0  0  0  0  0  0  0  0  0  0  0
   26.0200   16.7220    9.7410 C   0  0  0  0  0  0  0  0  0  0  0  0
   25.6470   16.8300   11.0270 C   0  0  0  0  0  0  0  0  0  0  0  0
   24.4330   16.2850   11.4150 N   0  0  0  0  0  0  0  0  0  0  0  0
   23.7610   16.2230   12.6230 C   0  0  0  0  0  0  0  0  0  0  0  0
   24.2300   16.7740   13.8700 C   0  0  0  0  0  0  0  0  0  0  0  0
   24.2150   16.1570   14.9290 O   0  0  0  0  0  0  0  0  0  0  0  0
   24.6980   18.0670   13.8070 N   0  0  0  0  0  0  0  0  0  0  0  0
   25.0770   18.8000   15.0080 C   0  0  1  0  0  0  0  0  0  0  0  0
   26.0790   18.0340   15.8630 C   0  0  0  0  0  0  0  0  0  0  0  0
   26.4620   18.8760   17.0710 C   0  0  0  0  0  0  0  0  0  0  0  0
   26.9940   20.2270   16.6530 C   0  0  0  0  0  0  0  0  0  0  0  0
   27.8720   20.8120   17.2780 O   0  0  0  0  0  0  0  0  0  0  0  0
   26.4230   20.7960   15.5410 N   0  0  0  0  0  0  0  0  0  0  0  0
   25.7030   20.1310   14.5800 C   0  0  0  0  0  0  0  0  0  0  0  0
   25.5690   20.5920   13.4470 O   0  0  0  0  0  0  0  0  0  0  0  0
   22.5880   15.5480   12.3120 C   0  0  0  0  0  0  0  0  0  0  0  0
   22.5300   15.1960   10.9890 N   0  0  0  0  0  0  0  0  0  0  0  0
   23.6500   15.6490   10.4820 C   0  0  0  0  0  0  0  0  0  0  0  0
   21.7010   16.2590    6.1880 C   0  0  0  0  0  0  0  0  0  0  0  0
   20.5950   16.9710    6.1180 N   0  0  0  0  0  0  0  0  0  0  0  0
   18.9504   19.6134    8.5356 H   0  0  0  0  0  0  0  0  0  0  0  0
   19.8320   19.3891    6.9867 H   0  0  0  0  0  0  0  0  0  0  0  0
   18.0430   19.5504    6.9867 H   0  0  0  0  0  0  0  0  0  0  0  0
   18.4666   17.4126    8.7084 H   0  0  0  0  0  0  0  0  0  0  0  0
   18.0218   17.3047    6.9505 H   0  0  0  0  0  0  0  0  0  0  0  0
   20.6639   15.9552    9.2922 H   0  0  0  0  0  0  0  0  0  0  0  0
   26.9854   17.1587    9.4457 H   0  0  0  0  0  0  0  0  0  0  0  0
   26.2919   17.3406   11.7573 H   0  0  0  0  0  0  0  0  0  0  0  0
   24.7823   18.5272   12.8894 H   0  0  0  0  0  0  0  0  0  0  0  0
   24.1733   18.9534   15.6161 H   0  0  0  0  0  0  0  0  0  0  0  0
   25.6262   17.0906   16.2021 H   0  0  0  0  0  0  0  0  0  0  0  0
   26.9780   17.8157   15.2679 H   0  0  0  0  0  0  0  0  0  0  0  0
   25.5734   19.0209   17.7029 H   0  0  0  0  0  0  0  0  0  0  0  0
   27.2522   18.3483   17.6252 H   0  0  0  0  0  0  0  0  0  0  0  0
   26.5459   21.8111   15.4173 H   0  0  0  0  0  0  0  0  0  0  0  0
   21.7974   15.3222   13.0427 H   0  0  0  0  0  0  0  0  0  0  0  0
   22.3779   16.0680    5.3422 H   0  0  0  0  0  0  0  0  0  0  0  0
  1  2  1  0
  2  3  1  0
  3  4  2  0
  4  5  1  0
  5  6  1  0
  6  7  2  0
  6  8  2  0
  6  9  1  0
  9 10  2  0
 10 11  1  0
 11 12  2  0
 12 13  1  0
 13 14  1  0
 14 15  1  0
 15 16  2  0
 15 17  1  0
 17 18  1  0
 18 19  1  0
 19 20  1  0
 20 21  1  0
 21 22  2  0
 21 23  1  0
 23 24  1  0
 24 25  2  0
 14 26  2  0
 26 27  1  0
 27 28  2  0
  5 29  1  0
 29 30  2  0
 30  3  1  0
 28  9  1  0
 28 13  1  0
 24 18  1  0
  1 31  1  0
  1 32  1  0
  1 33  1  0
  2 34  1  0
  2 35  1  0
  4 36  1  0
 11 37  1  0
 12 38  1  0
 17 39  1  0
 18 40  1  1
 19 41  1  0
 19 42  1  0
 20 43  1  0
 20 44  1  0
 23 45  1  0
 26 46  1  0
 29 47  1  0
M  END
>  <meeko>  (611) 
{"is_sidechain": [true], "free_energy": -10.66, "intermolecular_energy": 0.0, "internal_energy": -10.66, "cluster_size": 16, "cluster_id": 1, "rank_in_cluster": 1}

>  <_RMSD_MCS_to_ref>  (611) 
0.6276080694899393

$$$$
ligand
     RDKit          3D

 46 49  0  0  0  0  0  0  0  0999 V2000
   18.9090   19.1540    7.5370 C   0  0  0  0  0  0  0  0  0  0  0  0
   18.7730   17.6460    7.6780 C   0  0  0  0  0  0  0  0  0  0  0  0
   20.0920   16.9580    7.6430 C   0  0  0  0  0  0  0  0  0  0  0  0
   21.0310   16.8260    8.6470 C   0  0  0  0  0  0  0  0  0  0  0  0
   22.0450   16.1210    8.0630 N   0  0  0  0  0  0  0  0  0  0  0  0
   23.4260   15.5850    8.8490 S   0  0  0  0  0  6  0  0  0  0  0  0
   24.3610   16.6890    8.7120 O   0  0  0  0  0  0  0  0  0  0  0  0
   23.7240   14.2670    8.3200 O   0  0  0  0  0  0  0  0  0  0  0  0
   23.0910   15.4030   10.5620 C   0  0  0  0  0  0  0  0  0  0  0  0
   23.9400   15.8530   11.4580 N   0  0  0  0  0  0  0  0  0  0  0  0
   23.6110   15.6700   12.8000 C   0  0  0  0  0  0  0  0  0  0  0  0
   24.5700   16.1700   13.8570 C   0  0  0  0  0  0  0  0  0  0  0  0
   25.0460   15.4460   14.7240 O   0  0  0  0  0  0  0  0  0  0  0  0
   24.8540   17.5050   13.7340 N   0  0  0  0  0  0  0  0  0  0  0  0
   25.8610   18.1640   14.5480 C   0  0  2  0  0  0  0  0  0  0  0  0
   25.6540   17.8960   16.0350 C   0  0  0  0  0  0  0  0  0  0  0  0
   26.7180   18.6280   16.8360 C   0  0  0  0  0  0  0  0  0  0  0  0
   26.7180   20.1070   16.5280 C   0  0  0  0  0  0  0  0  0  0  0  0
   26.9970   20.9550   17.3690 O   0  0  0  0  0  0  0  0  0  0  0  0
   26.4190   20.4640   15.2370 N   0  0  0  0  0  0  0  0  0  0  0  0
   25.8060   19.6740   14.2960 C   0  0  0  0  0  0  0  0  0  0  0  0
   25.2680   20.1700   13.3060 O   0  0  0  0  0  0  0  0  0  0  0  0
   22.4870   15.0710   13.2370 C   0  0  0  0  0  0  0  0  0  0  0  0
   21.5760   14.5940   12.2730 C   0  0  0  0  0  0  0  0  0  0  0  0
   20.4100   13.9950   12.3360 N   0  0  0  0  0  0  0  0  0  0  0  0
   20.0780   13.8290   11.0190 C   0  0  0  0  0  0  0  0  0  0  0  0
   20.9720   14.2980   10.1410 N   0  0  0  0  0  0  0  0  0  0  0  0
   21.9250   14.7750   10.9600 N   0  0  0  0  0  0  0  0  0  0  0  0
   21.7120   15.8340    6.7800 C   0  0  0  0  0  0  0  0  0  0  0  0
   20.5270   16.3320    6.4910 N   0  0  0  0  0  0  0  0  0  0  0  0
   18.9504   19.6134    8.5356 H   0  0  0  0  0  0  0  0  0  0  0  0
   19.8320   19.3891    6.9867 H   0  0  0  0  0  0  0  0  0  0  0  0
   18.0430   19.5504    6.9867 H   0  0  0  0  0  0  0  0  0  0  0  0
   18.2820   17.4225    8.6366 H   0  0  0  0  0  0  0  0  0  0  0  0
   18.1777   17.2793    6.8288 H   0  0  0  0  0  0  0  0  0  0  0  0
   20.9753   17.2020    9.6793 H   0  0  0  0  0  0  0  0  0  0  0  0
   24.3350   18.0611   13.0396 H   0  0  0  0  0  0  0  0  0  0  0  0
   26.8434   17.7591   14.2637 H   0  0  0  0  0  0  0  0  0  0  0  0
   24.6581   18.2529   16.3365 H   0  0  0  0  0  0  0  0  0  0  0  0
   25.7304   16.8155   16.2264 H   0  0  0  0  0  0  0  0  0  0  0  0
   26.5200   18.4856   17.9086 H   0  0  0  0  0  0  0  0  0  0  0  0
   27.7012   18.2171   16.5632 H   0  0  0  0  0  0  0  0  0  0  0  0
   26.6797   21.4169   14.9457 H   0  0  0  0  0  0  0  0  0  0  0  0
   22.2861   14.9575   14.3125 H   0  0  0  0  0  0  0  0  0  0  0  0
   19.1421   13.3442   10.7043 H   0  0  0  0  0  0  0  0  0  0  0  0
   22.3421   15.2659    6.0798 H   0  0  0  0  0  0  0  0  0  0  0  0
  1  2  1  0
  2  3  1  0
  3  4  2  0
  4  5  1  0
  5  6  1  0
  6  7  2  0
  6  8  2  0
  6  9  1  0
  9 10  2  0
 10 11  1  0
 11 12  1  0
 12 13  2  0
 12 14  1  0
 14 15  1  0
 15 16  1  0
 16 17  1  0
 17 18  1  0
 18 19  2  0
 18 20  1  0
 20 21  1  0
 21 22  2  0
 11 23  2  0
 23 24  1  0
 24 25  2  0
 25 26  1  0
 26 27  2  0
 27 28  1  0
  5 29  1  0
 29 30  2  0
 30  3  1  0
 28  9  1  0
 21 15  1  0
 28 24  1  0
  1 31  1  0
  1 32  1  0
  1 33  1  0
  2 34  1  0
  2 35  1  0
  4 36  1  0
 14 37  1  0
 15 38  1  6
 16 39  1  0
 16 40  1  0
 17 41  1  0
 17 42  1  0
 20 43  1  0
 23 44  1  0
 26 45  1  0
 29 46  1  0
M  END
>  <meeko>  (612) 
{"is_sidechain": [true], "free_energy": -10.66, "intermolecular_energy": 0.0, "internal_energy": -10.66, "cluster_size": 20, "cluster_id": 1, "rank_in_cluster": 1}

>  <_RMSD_MCS_to_ref>  (612) 
0.573854027122268

$$$$
ligand
     RDKit          3D

 50 53  0  0  0  0  0  0  0  0999 V2000
   18.9090   19.1540    7.5370 C   0  0  0  0  0  0  0  0  0  0  0  0
   18.7730   17.6460    7.6780 C   0  0  0  0  0  0  0  0  0  0  0  0
   20.0940   16.9590    7.6680 C   0  0  0  0  0  0  0  0  0  0  0  0
   21.0120   16.8290    8.6900 C   0  0  0  0  0  0  0  0  0  0  0  0
   22.0430   16.1340    8.1270 N   0  0  0  0  0  0  0  0  0  0  0  0
   23.3660   15.4930    8.9420 S   0  0  0  0  0  6  0  0  0  0  0  0
   23.5540   14.1630    8.3960 O   0  0  0  0  0  0  0  0  0  0  0  0
   24.3990   16.5070    8.8980 O   0  0  0  0  0  0  0  0  0  0  0  0
   22.8010   15.3390   10.6150 C   0  0  0  0  0  0  0  0  0  0  0  0
   21.6770   14.5540   10.8810 C   0  0  0  0  0  0  0  0  0  0  0  0
   21.2720   14.4550   12.1950 C   0  0  0  0  0  0  0  0  0  0  0  0
   21.9350   15.1000   13.2300 C   0  0  0  0  0  0  0  0  0  0  0  0
   23.0430   15.8990   12.9740 C   0  0  0  0  0  0  0  0  0  0  0  0
   23.7630   16.5700   14.0890 C   0  0  0  0  0  0  0  0  0  0  0  0
   24.0320   15.9620   15.1170 O   0  0  0  0  0  0  0  0  0  0  0  0
   24.0760   17.8980   13.8980 N   0  0  0  0  0  0  0  0  0  0  0  0
   24.6480   18.6950   14.9760 C   0  0  1  0  0  0  0  0  0  0  0  0
   25.7630   17.9560   15.7090 C   0  0  0  0  0  0  0  0  0  0  0  0
   26.3410   18.8550   16.7900 C   0  0  0  0  0  0  0  0  0  0  0  0
   26.8190   20.1670   16.2160 C   0  0  0  0  0  0  0  0  0  0  0  0
   27.7850   20.7730   16.6700 O   0  0  0  0  0  0  0  0  0  0  0  0
   26.0990   20.6790   15.1670 N   0  0  0  0  0  0  0  0  0  0  0  0
   25.2140   19.9870   14.3780 C   0  0  0  0  0  0  0  0  0  0  0  0
   24.8910   20.4000   13.2640 O   0  0  0  0  0  0  0  0  0  0  0  0
   23.4800   16.0180   11.6440 C   0  0  0  0  0  0  0  0  0  0  0  0
   21.2890   14.7270   14.5130 C   0  0  0  0  0  0  0  0  0  0  0  0
   19.9970   14.1130   13.9760 C   0  0  0  0  0  0  0  0  0  0  0  0
   20.2030   13.7020   12.6040 O   0  0  0  0  0  0  0  0  0  0  0  0
   21.7240   15.8260    6.8430 C   0  0  0  0  0  0  0  0  0  0  0  0
   20.5470   16.3230    6.5290 N   0  0  0  0  0  0  0  0  0  0  0  0
   18.9504   19.6134    8.5356 H   0  0  0  0  0  0  0  0  0  0  0  0
   19.8320   19.3891    6.9867 H   0  0  0  0  0  0  0  0  0  0  0  0
   18.0430   19.5504    6.9867 H   0  0  0  0  0  0  0  0  0  0  0  0
   18.2651   17.4234    8.6280 H   0  0  0  0  0  0  0  0  0  0  0  0
   18.1939   17.2772    6.8185 H   0  0  0  0  0  0  0  0  0  0  0  0
   20.9313   17.2005    9.7222 H   0  0  0  0  0  0  0  0  0  0  0  0
   21.1369   14.0358   10.0749 H   0  0  0  0  0  0  0  0  0  0  0  0
   23.9034   18.3337   12.9808 H   0  0  0  0  0  0  0  0  0  0  0  0
   23.8524   18.9062   15.7057 H   0  0  0  0  0  0  0  0  0  0  0  0
   25.3570   17.0432   16.1695 H   0  0  0  0  0  0  0  0  0  0  0  0
   26.5548   17.6853   14.9950 H   0  0  0  0  0  0  0  0  0  0  0  0
   25.5641   19.0552   17.5426 H   0  0  0  0  0  0  0  0  0  0  0  0
   27.2010   18.3416   17.2448 H   0  0  0  0  0  0  0  0  0  0  0  0
   26.2351   21.6768   14.9508 H   0  0  0  0  0  0  0  0  0  0  0  0
   24.3538   16.6426   11.4067 H   0  0  0  0  0  0  0  0  0  0  0  0
   21.8875   13.9960   15.0764 H   0  0  0  0  0  0  0  0  0  0  0  0
   21.1534   15.5532   15.2264 H   0  0  0  0  0  0  0  0  0  0  0  0
   19.7234   13.2390   14.5853 H   0  0  0  0  0  0  0  0  0  0  0  0
   19.1864   14.8551   14.0230 H   0  0  0  0  0  0  0  0  0  0  0  0
   22.3605   15.2428    6.1613 H   0  0  0  0  0  0  0  0  0  0  0  0
  1  2  1  0
  2  3  1  0
  3  4  2  0
  4  5  1  0
  5  6  1  0
  6  7  2  0
  6  8  2  0
  6  9  1  0
  9 10  2  0
 10 11  1  0
 11 12  2  0
 12 13  1  0
 13 14  1  0
 14 15  2  0
 14 16  1  0
 16 17  1  0
 17 18  1  0
 18 19  1  0
 19 20  1  0
 20 21  2  0
 20 22  1  0
 22 23  1  0
 23 24  2  0
 13 25  2  0
 12 26  1  0
 26 27  1  0
 27 28  1  0
  5 29  1  0
 29 30  2  0
 30  3  1  0
 25  9  1  0
 28 11  1  0
 23 17  1  0
  1 31  1  0
  1 32  1  0
  1 33  1  0
  2 34  1  0
  2 35  1  0
  4 36  1  0
 10 37  1  0
 16 38  1  0
 17 39  1  1
 18 40  1  0
 18 41  1  0
 19 42  1  0
 19 43  1  0
 22 44  1  0
 25 45  1  0
 26 46  1  0
 26 47  1  0
 27 48  1  0
 27 49  1  0
 29 50  1  0
M  END
>  <meeko>  (613) 
{"is_sidechain": [true], "free_energy": -10.66, "intermolecular_energy": 0.0, "internal_energy": -10.66, "cluster_size": 20, "cluster_id": 1, "rank_in_cluster": 1}

>  <_RMSD_MCS_to_ref>  (613) 
0.4529448089999484

$$$$
ligand
     RDKit          3D

 50 53  0  0  0  0  0  0  0  0999 V2000
   18.9090   19.1540    7.5370 C   0  0  0  0  0  0  0  0  0  0  0  0
   18.7730   17.6460    7.6780 C   0  0  0  0  0  0  0  0  0  0  0  0
   20.0910   16.9560    7.6200 C   0  0  0  0  0  0  0  0  0  0  0  0
   21.0330   16.7990    8.6170 C   0  0  0  0  0  0  0  0  0  0  0  0
   22.0360   16.0890    8.0190 N   0  0  0  0  0  0  0  0  0  0  0  0
   23.5030   15.6830    8.7290 S   0  0  0  0  0  6  0  0  0  0  0  0
   23.8300   14.3840    8.1650 O   0  0  0  0  0  0  0  0  0  0  0  0
   24.3790   16.8260    8.5790 O   0  0  0  0  0  0  0  0  0  0  0  0
   23.1730   15.4470   10.4420 C   0  0  0  0  0  0  0  0  0  0  0  0
   24.0590   15.9730   11.3950 C   0  0  0  0  0  0  0  0  0  0  0  0
   23.8100   15.7870   12.7700 C   0  0  0  0  0  0  0  0  0  0  0  0
   24.7170   16.3360   13.8150 C   0  0  0  0  0  0  0  0  0  0  0  0
   25.2120   15.5950   14.6560 O   0  0  0  0  0  0  0  0  0  0  0  0
   24.9840   17.6860   13.7560 N   0  0  0  0  0  0  0  0  0  0  0  0
   25.9690   18.2940   14.6420 C   0  0  2  0  0  0  0  0  0  0  0  0
   25.6730   18.0090   16.1110 C   0  0  0  0  0  0  0  0  0  0  0  0
   26.7120   18.7020   16.9800 C   0  0  0  0  0  0  0  0  0  0  0  0
   26.7660   20.1850   16.6940 C   0  0  0  0  0  0  0  0  0  0  0  0
   27.0280   21.0130   17.5610 O   0  0  0  0  0  0  0  0  0  0  0  0
   26.5410   20.5700   15.3970 N   0  0  0  0  0  0  0  0  0  0  0  0
   25.9600   19.8080   14.4140 C   0  0  0  0  0  0  0  0  0  0  0  0
   25.4810   20.3240   13.4050 O   0  0  0  0  0  0  0  0  0  0  0  0
   22.6600   15.0990   13.1880 C   0  0  0  0  0  0  0  0  0  0  0  0
   21.8040   14.5870   12.2260 C   0  0  0  0  0  0  0  0  0  0  0  0
   22.0590   14.7580   10.8730 C   0  0  0  0  0  0  0  0  0  0  0  0
   21.0880   14.2150   10.0780 O   0  0  0  0  0  0  0  0  0  0  0  0
   20.3110   13.3870   10.9750 C   0  0  0  0  0  0  0  0  0  0  0  0
   20.5100   13.8890   12.4040 C   0  0  0  0  0  0  0  0  0  0  0  0
   21.7050   15.8520    6.7240 C   0  0  0  0  0  0  0  0  0  0  0  0
   20.5240   16.3670    6.4480 N   0  0  0  0  0  0  0  0  0  0  0  0
   18.9504   19.6134    8.5356 H   0  0  0  0  0  0  0  0  0  0  0  0
   19.8320   19.3891    6.9867 H   0  0  0  0  0  0  0  0  0  0  0  0
   18.0430   19.5504    6.9867 H   0  0  0  0  0  0  0  0  0  0  0  0
   18.2977   17.4217    8.6443 H   0  0  0  0  0  0  0  0  0  0  0  0
   18.1630   17.2814    6.8384 H   0  0  0  0  0  0  0  0  0  0  0  0
   20.9868   17.1620    9.6544 H   0  0  0  0  0  0  0  0  0  0  0  0
   24.9489   16.5311   11.0685 H   0  0  0  0  0  0  0  0  0  0  0  0
   24.4807   18.2740   13.0764 H   0  0  0  0  0  0  0  0  0  0  0  0
   26.9534   17.8613   14.4101 H   0  0  0  0  0  0  0  0  0  0  0  0
   24.6717   18.3878   16.3637 H   0  0  0  0  0  0  0  0  0  0  0  0
   25.7097   16.9242   16.2893 H   0  0  0  0  0  0  0  0  0  0  0  0
   26.4528   18.5503   18.0382 H   0  0  0  0  0  0  0  0  0  0  0  0
   27.6977   18.2688   16.7549 H   0  0  0  0  0  0  0  0  0  0  0  0
   26.8361   21.5216   15.1356 H   0  0  0  0  0  0  0  0  0  0  0  0
   22.4426   14.9688   14.2584 H   0  0  0  0  0  0  0  0  0  0  0  0
   19.2461   13.4488   10.7062 H   0  0  0  0  0  0  0  0  0  0  0  0
   20.6400   12.3403   10.8971 H   0  0  0  0  0  0  0  0  0  0  0  0
   19.7097   14.5767   12.7148 H   0  0  0  0  0  0  0  0  0  0  0  0
   20.4939   13.1139   13.1843 H   0  0  0  0  0  0  0  0  0  0  0  0
   22.3345   15.3064    6.0057 H   0  0  0  0  0  0  0  0  0  0  0  0
  1  2  1  0
  2  3  1  0
  3  4  2  0
  4  5  1  0
  5  6  1  0
  6  7  2  0
  6  8  2  0
  6  9  1  0
  9 10  2  0
 10 11  1  0
 11 12  1  0
 12 13  2  0
 12 14  1  0
 14 15  1  0
 15 16  1  0
 16 17  1  0
 17 18  1  0
 18 19  2  0
 18 20  1  0
 20 21  1  0
 21 22  2  0
 11 23  2  0
 23 24  1  0
 24 25  2  0
 25 26  1  0
 26 27  1  0
 27 28  1  0
  5 29  1  0
 29 30  2  0
 30  3  1  0
 25  9  1  0
 21 15  1  0
 28 24  1  0
  1 31  1  0
  1 32  1  0
  1 33  1  0
  2 34  1  0
  2 35  1  0
  4 36  1  0
 10 37  1  0
 14 38  1  0
 15 39  1  6
 16 40  1  0
 16 41  1  0
 17 42  1  0
 17 43  1  0
 20 44  1  0
 23 45  1  0
 27 46  1  0
 27 47  1  0
 28 48  1  0
 28 49  1  0
 29 50  1  0
M  END
>  <meeko>  (614) 
{"is_sidechain": [true], "free_energy": -10.66, "intermolecular_energy": 0.0, "internal_energy": -10.66, "cluster_size": 20, "cluster_id": 1, "rank_in_cluster": 1}

>  <_RMSD_MCS_to_ref>  (614) 
0.6895813544785311

$$$$
ligand
     RDKit          3D

 50 53  0  0  0  0  0  0  0  0999 V2000
   18.9090   19.1540    7.5370 C   0  0  0  0  0  0  0  0  0  0  0  0
   18.7730   17.6460    7.6780 C   0  0  0  0  0  0  0  0  0  0  0  0
   20.0920   16.9580    7.6520 C   0  0  0  0  0  0  0  0  0  0  0  0
   20.9420   16.6720    8.7020 C   0  0  0  0  0  0  0  0  0  0  0  0
   21.9960   16.0340    8.1160 N   0  0  0  0  0  0  0  0  0  0  0  0
   23.4560   15.6440    8.8550 S   0  0  0  0  0  6  0  0  0  0  0  0
   23.8480   14.3560    8.3180 O   0  0  0  0  0  0  0  0  0  0  0  0
   24.2820   16.8250    8.7080 O   0  0  0  0  0  0  0  0  0  0  0  0
   23.0200   15.4230   10.5560 C   0  0  0  0  0  0  0  0  0  0  0  0
   23.8750   15.9470   11.5400 C   0  0  0  0  0  0  0  0  0  0  0  0
   23.5960   15.7600   12.9080 C   0  0  0  0  0  0  0  0  0  0  0  0
   24.5610   16.3110   13.8980 C   0  0  0  0  0  0  0  0  0  0  0  0
   25.1340   15.5590   14.6790 O   0  0  0  0  0  0  0  0  0  0  0  0
   24.7860   17.6680   13.8590 N   0  0  0  0  0  0  0  0  0  0  0  0
   25.8200   18.2810   14.6830 C   0  0  2  0  0  0  0  0  0  0  0  0
   25.6280   17.9860   16.1660 C   0  0  0  0  0  0  0  0  0  0  0  0
   26.7150   18.6870   16.9680 C   0  0  0  0  0  0  0  0  0  0  0  0
   26.7320   20.1710   16.6870 C   0  0  0  0  0  0  0  0  0  0  0  0
   27.0280   21.0000   17.5420 O   0  0  0  0  0  0  0  0  0  0  0  0
   26.4290   20.5580   15.4060 N   0  0  0  0  0  0  0  0  0  0  0  0
   25.7780   19.7970   14.4670 C   0  0  0  0  0  0  0  0  0  0  0  0
   25.2120   20.3170   13.5050 O   0  0  0  0  0  0  0  0  0  0  0  0
   22.4610   15.0440   13.2980 C   0  0  0  0  0  0  0  0  0  0  0  0
   21.6220   14.5680   12.3070 C   0  0  0  0  0  0  0  0  0  0  0  0
   21.8730   14.7530   10.9540 C   0  0  0  0  0  0  0  0  0  0  0  0
   20.8060   14.0710   10.1810 C   0  0  0  0  0  0  0  0  0  0  0  0
   19.8010   13.8020   11.3010 C   0  0  0  0  0  0  0  0  0  0  0  0
   20.4870   13.8470   12.5710 O   0  0  0  0  0  0  0  0  0  0  0  0
   21.7940   15.9810    6.7740 C   0  0  0  0  0  0  0  0  0  0  0  0
   20.6380   16.5250    6.4590 N   0  0  0  0  0  0  0  0  0  0  0  0
   18.9504   19.6134    8.5356 H   0  0  0  0  0  0  0  0  0  0  0  0
   19.8320   19.3891    6.9867 H   0  0  0  0  0  0  0  0  0  0  0  0
   18.0430   19.5504    6.9867 H   0  0  0  0  0  0  0  0  0  0  0  0
   18.2759   17.4229    8.6336 H   0  0  0  0  0  0  0  0  0  0  0  0
   18.1836   17.2788    6.8249 H   0  0  0  0  0  0  0  0  0  0  0  0
   20.8014   16.9053    9.7677 H   0  0  0  0  0  0  0  0  0  0  0  0
   24.7714   16.5090   11.2391 H   0  0  0  0  0  0  0  0  0  0  0  0
   24.2151   18.2593   13.2382 H   0  0  0  0  0  0  0  0  0  0  0  0
   26.7905   17.8587   14.3832 H   0  0  0  0  0  0  0  0  0  0  0  0
   24.6416   18.3515   16.4878 H   0  0  0  0  0  0  0  0  0  0  0  0
   25.6901   16.9008   16.3348 H   0  0  0  0  0  0  0  0  0  0  0  0
   26.5289   18.5272   18.0403 H   0  0  0  0  0  0  0  0  0  0  0  0
   27.6886   18.2666   16.6758 H   0  0  0  0  0  0  0  0  0  0  0  0
   26.7161   21.5058   15.1231 H   0  0  0  0  0  0  0  0  0  0  0  0
   22.2416   14.8645   14.3609 H   0  0  0  0  0  0  0  0  0  0  0  0
   20.3849   14.7237    9.4021 H   0  0  0  0  0  0  0  0  0  0  0  0
   21.1325   13.1791    9.6261 H   0  0  0  0  0  0  0  0  0  0  0  0
   19.0125   14.5688   11.2807 H   0  0  0  0  0  0  0  0  0  0  0  0
   19.3453   12.8108   11.1604 H   0  0  0  0  0  0  0  0  0  0  0  0
   22.4986   15.5441    6.0511 H   0  0  0  0  0  0  0  0  0  0  0  0
  1  2  1  0
  2  3  1  0
  3  4  2  0
  4  5  1  0
  5  6  1  0
  6  7  2  0
  6  8  2  0
  6  9  1  0
  9 10  2  0
 10 11  1  0
 11 12  1  0
 12 13  2  0
 12 14  1  0
 14 15  1  0
 15 16  1  0
 16 17  1  0
 17 18  1  0
 18 19  2  0
 18 20  1  0
 20 21  1  0
 21 22  2  0
 11 23  2  0
 23 24  1  0
 24 25  2  0
 25 26  1  0
 26 27  1  0
 27 28  1  0
  5 29  1  0
 29 30  2  0
 30  3  1  0
 25  9  1  0
 21 15  1  0
 28 24  1  0
  1 31  1  0
  1 32  1  0
  1 33  1  0
  2 34  1  0
  2 35  1  0
  4 36  1  0
 10 37  1  0
 14 38  1  0
 15 39  1  6
 16 40  1  0
 16 41  1  0
 17 42  1  0
 17 43  1  0
 20 44  1  0
 23 45  1  0
 26 46  1  0
 26 47  1  0
 27 48  1  0
 27 49  1  0
 29 50  1  0
M  END
>  <meeko>  (615) 
{"is_sidechain": [true], "free_energy": -10.66, "intermolecular_energy": 0.0, "internal_energy": -10.66, "cluster_size": 19, "cluster_id": 1, "rank_in_cluster": 1}

>  <_RMSD_MCS_to_ref>  (615) 
0.5976677821145941

$$$$
ligand
     RDKit          3D

 45 48  0  0  0  0  0  0  0  0999 V2000
   18.9090   19.1540    7.5370 C   0  0  0  0  0  0  0  0  0  0  0  0
   18.7730   17.6460    7.6780 C   0  0  0  0  0  0  0  0  0  0  0  0
   19.9960   16.9280    7.2280 C   0  0  0  0  0  0  0  0  0  0  0  0
   21.2220   16.8220    7.8560 C   0  0  0  0  0  0  0  0  0  0  0  0
   21.9670   16.0580    7.0040 N   0  0  0  0  0  0  0  0  0  0  0  0
   23.5760   15.6170    7.2370 S   0  0  0  0  0  6  0  0  0  0  0  0
   23.8410   14.7010    6.1400 O   0  0  0  0  0  0  0  0  0  0  0  0
   24.3290   16.8530    7.3550 O   0  0  0  0  0  0  0  0  0  0  0  0
   23.7050   14.7610    8.6160 O   0  0  0  0  0  0  0  0  0  0  0  0
   23.7390   15.4090    9.8230 C   0  0  0  0  0  0  0  0  0  0  0  0
   24.9120   16.0700   10.1490 C   0  0  0  0  0  0  0  0  0  0  0  0
   24.9190   16.6740   11.3860 C   0  0  0  0  0  0  0  0  0  0  0  0
   23.8420   16.6050   12.2400 C   0  0  0  0  0  0  0  0  0  0  0  0
   22.7250   15.9200   11.8620 C   0  0  0  0  0  0  0  0  0  0  0  0
   22.6620   15.3140   10.6480 N   0  0  0  0  0  0  0  0  0  0  0  0
   24.1810   17.3210   13.4570 C   0  0  0  0  0  0  0  0  0  0  0  0
   23.4490   17.4150   14.4220 O   0  0  0  0  0  0  0  0  0  0  0  0
   25.4390   17.8310   13.2710 N   0  0  0  0  0  0  0  0  0  0  0  0
   26.1930   18.4700   14.3390 C   0  0  2  0  0  0  0  0  0  0  0  0
   25.8370   17.9840   15.7410 C   0  0  0  0  0  0  0  0  0  0  0  0
   26.7130   18.7040   16.7560 C   0  0  0  0  0  0  0  0  0  0  0  0
   26.5740   20.2050   16.6360 C   0  0  0  0  0  0  0  0  0  0  0  0
   26.7350   20.9580   17.5920 O   0  0  0  0  0  0  0  0  0  0  0  0
   26.3100   20.7000   15.3820 N   0  0  0  0  0  0  0  0  0  0  0  0
   26.0010   19.9880   14.2450 C   0  0  0  0  0  0  0  0  0  0  0  0
   25.6480   20.5680   13.2190 O   0  0  0  0  0  0  0  0  0  0  0  0
   25.9610   17.4370   12.0670 C   0  0  0  0  0  0  0  0  0  0  0  0
   27.0680   17.6260   11.6050 O   0  0  0  0  0  0  0  0  0  0  0  0
   21.2160   15.7290    5.9230 C   0  0  0  0  0  0  0  0  0  0  0  0
   20.0070   16.2440    6.0270 N   0  0  0  0  0  0  0  0  0  0  0  0
   18.9504   19.6134    8.5356 H   0  0  0  0  0  0  0  0  0  0  0  0
   19.8320   19.3891    6.9867 H   0  0  0  0  0  0  0  0  0  0  0  0
   18.0430   19.5504    6.9867 H   0  0  0  0  0  0  0  0  0  0  0  0
   18.5887   17.4040    8.7351 H   0  0  0  0  0  0  0  0  0  0  0  0
   17.9366   17.3209    7.0418 H   0  0  0  0  0  0  0  0  0  0  0  0
   21.5277   17.2537    8.8205 H   0  0  0  0  0  0  0  0  0  0  0  0
   25.7754   16.1094    9.4686 H   0  0  0  0  0  0  0  0  0  0  0  0
   21.8666   15.8576   12.5470 H   0  0  0  0  0  0  0  0  0  0  0  0
   27.2465   18.1905   14.1906 H   0  0  0  0  0  0  0  0  0  0  0  0
   24.7787   18.2011   15.9483 H   0  0  0  0  0  0  0  0  0  0  0  0
   26.0050   16.8991   15.8105 H   0  0  0  0  0  0  0  0  0  0  0  0
   26.4143   18.3965   17.7690 H   0  0  0  0  0  0  0  0  0  0  0  0
   27.7619   18.4360   16.5610 H   0  0  0  0  0  0  0  0  0  0  0  0
   26.3477   21.7243   15.2806 H   0  0  0  0  0  0  0  0  0  0  0  0
   21.5668   15.1181    5.0782 H   0  0  0  0  0  0  0  0  0  0  0  0
  1  2  1  0
  2  3  1  0
  3  4  2  0
  4  5  1  0
  5  6  1  0
  6  7  2  0
  6  8  2  0
  6  9  1  0
  9 10  1  0
 10 11  2  0
 11 12  1  0
 12 13  2  0
 13 14  1  0
 14 15  2  0
 13 16  1  0
 16 17  2  0
 16 18  1  0
 18 19  1  0
 19 20  1  0
 20 21  1  0
 21 22  1  0
 22 23  2  0
 22 24  1  0
 24 25  1  0
 25 26  2  0
 18 27  1  0
 27 28  2  0
  5 29  1  0
 29 30  2  0
 30  3  1  0
 15 10  1  0
 25 19  1  0
 27 12  1  0
  1 31  1  0
  1 32  1  0
  1 33  1  0
  2 34  1  0
  2 35  1  0
  4 36  1  0
 11 37  1  0
 14 38  1  0
 19 39  1  6
 20 40  1  0
 20 41  1  0
 21 42  1  0
 21 43  1  0
 24 44  1  0
 29 45  1  0
M  END
>  <meeko>  (616) 
{"is_sidechain": [true], "free_energy": -10.66, "intermolecular_energy": 0.0, "internal_energy": -10.66, "cluster_size": 20, "cluster_id": 1, "rank_in_cluster": 1}

>  <_RMSD_MCS_to_ref>  (616) 
0.8326311708473729

$$$$
ligand
     RDKit          3D

 51 54  0  0  0  0  0  0  0  0999 V2000
   18.9090   19.1540    7.5370 C   0  0  0  0  0  0  0  0  0  0  0  0
   18.7730   17.6460    7.6780 C   0  0  0  0  0  0  0  0  0  0  0  0
   20.0870   16.9530    7.5970 C   0  0  0  0  0  0  0  0  0  0  0  0
   20.9450   16.5940    8.6180 C   0  0  0  0  0  0  0  0  0  0  0  0
   21.9800   15.9710    7.9840 N   0  0  0  0  0  0  0  0  0  0  0  0
   23.4360   15.5100    8.6860 S   0  0  0  0  0  6  0  0  0  0  0  0
   24.3730   16.5690    8.3680 O   0  0  0  0  0  0  0  0  0  0  0  0
   23.6550   14.1320    8.2940 O   0  0  0  0  0  0  0  0  0  0  0  0
   23.0960   15.5490   10.4240 C   0  0  0  0  0  0  0  0  0  0  0  0
   22.0930   14.7390   10.9530 C   0  0  0  0  0  0  0  0  0  0  0  0
   21.8310   14.7870   12.3220 C   0  0  0  0  0  0  0  0  0  0  0  0
   22.5760   15.6220   13.1710 C   0  0  0  0  0  0  0  0  0  0  0  0
   23.5680   16.4590   12.6300 C   0  0  0  0  0  0  0  0  0  0  0  0
   24.4180   17.3970   13.4320 C   0  0  0  0  0  0  0  0  0  0  0  0
   25.5630   17.6480   13.0700 O   0  0  0  0  0  0  0  0  0  0  0  0
   23.8680   17.9510   14.5610 N   0  0  0  0  0  0  0  0  0  0  0  0
   24.6500   18.7470   15.4930 C   0  0  1  0  0  0  0  0  0  0  0  0
   25.7740   17.9410   16.1330 C   0  0  0  0  0  0  0  0  0  0  0  0
   26.5680   18.8340   17.0740 C   0  0  0  0  0  0  0  0  0  0  0  0
   27.0900   20.0570   16.3580 C   0  0  0  0  0  0  0  0  0  0  0  0
   28.1630   20.5800   16.6430 O   0  0  0  0  0  0  0  0  0  0  0  0
   26.2860   20.5860   15.3790 N   0  0  0  0  0  0  0  0  0  0  0  0
   25.2540   19.9390   14.7440 C   0  0  0  0  0  0  0  0  0  0  0  0
   24.8490   20.3240   13.6470 O   0  0  0  0  0  0  0  0  0  0  0  0
   23.8200   16.4150   11.2470 C   0  0  0  0  0  0  0  0  0  0  0  0
   22.3520   15.6440   14.5270 O   0  0  0  0  0  0  0  0  0  0  0  0
   21.6050   14.5090   14.9800 C   0  0  0  0  0  0  0  0  0  0  0  0
   20.4010   14.2890   14.0860 C   0  0  0  0  0  0  0  0  0  0  0  0
   20.8230   13.9640   12.7580 O   0  0  0  0  0  0  0  0  0  0  0  0
   21.7650   16.0040    6.6430 C   0  0  0  0  0  0  0  0  0  0  0  0
   20.6150   16.5860    6.3740 N   0  0  0  0  0  0  0  0  0  0  0  0
   18.9504   19.6134    8.5356 H   0  0  0  0  0  0  0  0  0  0  0  0
   19.8320   19.3891    6.9867 H   0  0  0  0  0  0  0  0  0  0  0  0
   18.0430   19.5504    6.9867 H   0  0  0  0  0  0  0  0  0  0  0  0
   18.3135   17.4213    8.6518 H   0  0  0  0  0  0  0  0  0  0  0  0
   18.1488   17.2842    6.8477 H   0  0  0  0  0  0  0  0  0  0  0  0
   20.8219   16.7703    9.6968 H   0  0  0  0  0  0  0  0  0  0  0  0
   21.5149   14.0699   10.2987 H   0  0  0  0  0  0  0  0  0  0  0  0
   22.8680   17.7977   14.7544 H   0  0  0  0  0  0  0  0  0  0  0  0
   23.9782   19.0843   16.2961 H   0  0  0  0  0  0  0  0  0  0  0  0
   25.3458   17.1008   16.6994 H   0  0  0  0  0  0  0  0  0  0  0  0
   26.4395   17.5534   15.3476 H   0  0  0  0  0  0  0  0  0  0  0  0
   25.9161   19.1533   17.9005 H   0  0  0  0  0  0  0  0  0  0  0  0
   27.4264   18.2614   17.4551 H   0  0  0  0  0  0  0  0  0  0  0  0
   26.4740   21.5579   15.0943 H   0  0  0  0  0  0  0  0  0  0  0  0
   24.5917   17.0663   10.8108 H   0  0  0  0  0  0  0  0  0  0  0  0
   22.2469   13.6161   14.9525 H   0  0  0  0  0  0  0  0  0  0  0  0
   21.2616   14.6907   16.0091 H   0  0  0  0  0  0  0  0  0  0  0  0
   19.7968   13.4622   14.4876 H   0  0  0  0  0  0  0  0  0  0  0  0
   19.8032   15.2119   14.0563 H   0  0  0  0  0  0  0  0  0  0  0  0
   22.4553   15.6008    5.8874 H   0  0  0  0  0  0  0  0  0  0  0  0
  1  2  1  0
  2  3  1  0
  3  4  2  0
  4  5  1  0
  5  6  1  0
  6  7  2  0
  6  8  2  0
  6  9  1  0
  9 10  2  0
 10 11  1  0
 11 12  2  0
 12 13  1  0
 13 14  1  0
 14 15  2  0
 14 16  1  0
 16 17  1  0
 17 18  1  0
 18 19  1  0
 19 20  1  0
 20 21  2  0
 20 22  1  0
 22 23  1  0
 23 24  2  0
 13 25  2  0
 12 26  1  0
 26 27  1  0
 27 28  1  0
 28 29  1  0
  5 30  1  0
 30 31  2  0
 31  3  1  0
 25  9  1  0
 29 11  1  0
 23 17  1  0
  1 32  1  0
  1 33  1  0
  1 34  1  0
  2 35  1  0
  2 36  1  0
  4 37  1  0
 10 38  1  0
 16 39  1  0
 17 40  1  1
 18 41  1  0
 18 42  1  0
 19 43  1  0
 19 44  1  0
 22 45  1  0
 25 46  1  0
 27 47  1  0
 27 48  1  0
 28 49  1  0
 28 50  1  0
 30 51  1  0
M  END
>  <meeko>  (617) 
{"is_sidechain": [true], "free_energy": -10.66, "intermolecular_energy": 0.0, "internal_energy": -10.66, "cluster_size": 20, "cluster_id": 1, "rank_in_cluster": 1}

>  <_RMSD_MCS_to_ref>  (617) 
0.7227730548995925

$$$$
ligand
     RDKit          3D

 50 53  0  0  0  0  0  0  0  0999 V2000
   18.9090   19.1540    7.5370 C   0  0  0  0  0  0  0  0  0  0  0  0
   18.7730   17.6460    7.6780 C   0  0  0  0  0  0  0  0  0  0  0  0
   20.0900   16.9560    7.6250 C   0  0  0  0  0  0  0  0  0  0  0  0
   20.8690   16.4850    8.6640 C   0  0  0  0  0  0  0  0  0  0  0  0
   21.9540   15.9340    8.0460 N   0  0  0  0  0  0  0  0  0  0  0  0
   23.3420   15.3750    8.8060 S   0  0  0  0  0  6  0  0  0  0  0  0
   24.3980   16.2700    8.3730 O   0  0  0  0  0  0  0  0  0  0  0  0
   23.3710   13.9490    8.5480 O   0  0  0  0  0  0  0  0  0  0  0  0
   23.1500   15.5890   10.5530 C   0  0  0  0  0  0  0  0  0  0  0  0
   23.9880   16.4550   11.2600 C   0  0  0  0  0  0  0  0  0  0  0  0
   23.7840   16.5850   12.6260 C   0  0  0  0  0  0  0  0  0  0  0  0
   24.6500   17.5090   13.4240 C   0  0  0  0  0  0  0  0  0  0  0  0
   25.8250   17.6940   13.1270 O   0  0  0  0  0  0  0  0  0  0  0  0
   24.0280   18.1030   14.4960 N   0  0  0  0  0  0  0  0  0  0  0  0
   24.7480   18.8890   15.4830 C   0  0  1  0  0  0  0  0  0  0  0  0
   25.7740   18.0560   16.2440 C   0  0  0  0  0  0  0  0  0  0  0  0
   26.5100   18.9400   17.2380 C   0  0  0  0  0  0  0  0  0  0  0  0
   27.1480   20.1250   16.5500 C   0  0  0  0  0  0  0  0  0  0  0  0
   28.2080   20.6120   16.9270 O   0  0  0  0  0  0  0  0  0  0  0  0
   26.4630   20.6610   15.4890 N   0  0  0  0  0  0  0  0  0  0  0  0
   25.4670   20.0410   14.7730 C   0  0  0  0  0  0  0  0  0  0  0  0
   25.1770   20.4160   13.6370 O   0  0  0  0  0  0  0  0  0  0  0  0
   22.8260   15.9180   13.3150 N   0  0  0  0  0  0  0  0  0  0  0  0
   22.0370   15.0900   12.6060 C   0  0  0  0  0  0  0  0  0  0  0  0
   21.0630   14.4200   13.3380 N   0  0  0  0  0  0  0  0  0  0  0  0
   20.1660   13.5450   12.8050 C   0  0  0  0  0  0  0  0  0  0  0  0
   19.3190   12.9700   13.4750 O   0  0  0  0  0  0  0  0  0  0  0  0
   20.2620   13.3190   11.3460 C   0  0  0  0  0  0  0  0  0  0  0  0
   21.1860   13.9440   10.6050 C   0  0  0  0  0  0  0  0  0  0  0  0
   22.1380   14.8790   11.2240 C   0  0  0  0  0  0  0  0  0  0  0  0
   21.8340   16.0950    6.7030 C   0  0  0  0  0  0  0  0  0  0  0  0
   20.7110   16.7170    6.4150 N   0  0  0  0  0  0  0  0  0  0  0  0
   18.9504   19.6134    8.5356 H   0  0  0  0  0  0  0  0  0  0  0  0
   19.8320   19.3891    6.9867 H   0  0  0  0  0  0  0  0  0  0  0  0
   18.0430   19.5504    6.9867 H   0  0  0  0  0  0  0  0  0  0  0  0
   18.2942   17.4221    8.6427 H   0  0  0  0  0  0  0  0  0  0  0  0
   18.1663   17.2813    6.8360 H   0  0  0  0  0  0  0  0  0  0  0  0
   20.6621   16.5412    9.7429 H   0  0  0  0  0  0  0  0  0  0  0  0
   24.7846   17.0161   10.7495 H   0  0  0  0  0  0  0  0  0  0  0  0
   23.0104   17.9862   14.6039 H   0  0  0  0  0  0  0  0  0  0  0  0
   24.0165   19.2687   16.2115 H   0  0  0  0  0  0  0  0  0  0  0  0
   25.2610   17.2463   16.7836 H   0  0  0  0  0  0  0  0  0  0  0  0
   26.4949   17.6250   15.5337 H   0  0  0  0  0  0  0  0  0  0  0  0
   25.7958   19.3044   17.9911 H   0  0  0  0  0  0  0  0  0  0  0  0
   27.3040   18.3441   17.7118 H   0  0  0  0  0  0  0  0  0  0  0  0
   26.7189   21.6167   15.2024 H   0  0  0  0  0  0  0  0  0  0  0  0
   21.0169   14.5975   14.3515 H   0  0  0  0  0  0  0  0  0  0  0  0
   19.5609   12.6242   10.8605 H   0  0  0  0  0  0  0  0  0  0  0  0
   21.2335   13.7562    9.5222 H   0  0  0  0  0  0  0  0  0  0  0  0
   22.5711   15.7538    5.9612 H   0  0  0  0  0  0  0  0  0  0  0  0
  1  2  1  0
  2  3  1  0
  3  4  2  0
  4  5  1  0
  5  6  1  0
  6  7  2  0
  6  8  2  0
  6  9  1  0
  9 10  2  0
 10 11  1  0
 11 12  1  0
 12 13  2  0
 12 14  1  0
 14 15  1  0
 15 16  1  0
 16 17  1  0
 17 18  1  0
 18 19  2  0
 18 20  1  0
 20 21  1  0
 21 22  2  0
 11 23  2  0
 23 24  1  0
 24 25  1  0
 25 26  1  0
 26 27  2  0
 26 28  1  0
 28 29  2  0
 29 30  1  0
  5 31  1  0
 31 32  2  0
 32  3  1  0
 30  9  1  0
 21 15  1  0
 30 24  2  0
  1 33  1  0
  1 34  1  0
  1 35  1  0
  2 36  1  0
  2 37  1  0
  4 38  1  0
 10 39  1  0
 14 40  1  0
 15 41  1  1
 16 42  1  0
 16 43  1  0
 17 44  1  0
 17 45  1  0
 20 46  1  0
 25 47  1  0
 28 48  1  0
 29 49  1  0
 31 50  1  0
M  END
>  <meeko>  (618) 
{"is_sidechain": [true], "free_energy": -10.66, "intermolecular_energy": 0.0, "internal_energy": -10.66, "cluster_size": 19, "cluster_id": 1, "rank_in_cluster": 1}

>  <_RMSD_MCS_to_ref>  (618) 
0.7830185182995358

$$$$
ligand
     RDKit          3D

 56 60  0  0  0  0  0  0  0  0999 V2000
   18.9090   19.1540    7.5370 C   0  0  0  0  0  0  0  0  0  0  0  0
   18.7730   17.6460    7.6780 C   0  0  0  0  0  0  0  0  0  0  0  0
   19.8800   16.9170    7.0020 C   0  0  0  0  0  0  0  0  0  0  0  0
   20.3470   15.6390    7.2330 C   0  0  0  0  0  0  0  0  0  0  0  0
   21.3780   15.4930    6.3500 N   0  0  0  0  0  0  0  0  0  0  0  0
   22.1930   14.0610    6.0160 S   0  0  0  0  0  6  0  0  0  0  0  0
   23.4480   14.4550    5.4070 O   0  0  0  0  0  0  0  0  0  0  0  0
   21.2340   13.2080    5.3400 O   0  0  0  0  0  0  0  0  0  0  0  0
   22.5200   13.3920    7.6220 C   0  0  0  0  0  0  0  0  0  0  0  0
   22.5490   12.0080    7.8000 C   0  0  0  0  0  0  0  0  0  0  0  0
   22.8130   11.4900    9.0650 C   0  0  0  0  0  0  0  0  0  0  0  0
   23.0410   12.3530   10.1420 C   0  0  0  0  0  0  0  0  0  0  0  0
   23.0020   13.7480    9.9790 C   0  0  0  0  0  0  0  0  0  0  0  0
   23.2360   14.6500   11.1180 C   0  0  0  0  0  0  0  0  0  0  0  0
   22.2650   14.7800   12.1440 C   0  0  0  0  0  0  0  0  0  0  0  0
   22.4630   15.6290   13.2370 C   0  0  0  0  0  0  0  0  0  0  0  0
   23.6430   16.3430   13.2770 C   0  0  0  0  0  0  0  0  0  0  0  0
   24.6170   16.2410   12.2890 C   0  0  0  0  0  0  0  0  0  0  0  0
   24.4280   15.3980   11.2050 C   0  0  0  0  0  0  0  0  0  0  0  0
   25.7770   17.1200   12.6220 C   0  0  0  0  0  0  0  0  0  0  0  0
   25.3290   17.7900   13.8370 N   0  0  0  0  0  0  0  0  0  0  0  0
   26.2100   18.5730   14.6960 C   0  0  2  0  0  0  0  0  0  0  0  0
   26.0710   18.1990   16.1680 C   0  0  0  0  0  0  0  0  0  0  0  0
   27.0810   18.9890   16.9870 C   0  0  0  0  0  0  0  0  0  0  0  0
   26.9220   20.4750   16.7620 C   0  0  0  0  0  0  0  0  0  0  0  0
   27.0860   21.2960   17.6590 O   0  0  0  0  0  0  0  0  0  0  0  0
   26.5980   20.8710   15.4890 N   0  0  0  0  0  0  0  0  0  0  0  0
   25.9820   20.0860   14.5420 C   0  0  0  0  0  0  0  0  0  0  0  0
   25.2970   20.6010   13.6600 O   0  0  0  0  0  0  0  0  0  0  0  0
   24.1150   17.2940   14.2890 C   0  0  0  0  0  0  0  0  0  0  0  0
   23.5300   17.5710   15.3180 O   0  0  0  0  0  0  0  0  0  0  0  0
   22.7320   14.2600    8.7000 C   0  0  0  0  0  0  0  0  0  0  0  0
   21.4820   16.6180    5.5980 C   0  0  0  0  0  0  0  0  0  0  0  0
   20.5900   17.5100    5.9760 N   0  0  0  0  0  0  0  0  0  0  0  0
   18.9504   19.6134    8.5356 H   0  0  0  0  0  0  0  0  0  0  0  0
   19.8320   19.3891    6.9867 H   0  0  0  0  0  0  0  0  0  0  0  0
   18.0430   19.5504    6.9867 H   0  0  0  0  0  0  0  0  0  0  0  0
   18.7797   17.3880    8.7473 H   0  0  0  0  0  0  0  0  0  0  0  0
   17.8289   17.3456    7.2000 H   0  0  0  0  0  0  0  0  0  0  0  0
   19.9736   14.9052    7.9624 H   0  0  0  0  0  0  0  0  0  0  0  0
   22.3653   11.3340    6.9503 H   0  0  0  0  0  0  0  0  0  0  0  0
   22.8423   10.4010    9.2177 H   0  0  0  0  0  0  0  0  0  0  0  0
   23.2549   11.9315   11.1353 H   0  0  0  0  0  0  0  0  0  0  0  0
   21.3335   14.1986   12.0780 H   0  0  0  0  0  0  0  0  0  0  0  0
   21.7091   15.7239   14.0324 H   0  0  0  0  0  0  0  0  0  0  0  0
   25.1974   15.3138   10.4234 H   0  0  0  0  0  0  0  0  0  0  0  0
   26.6846   16.5268   12.8072 H   0  0  0  0  0  0  0  0  0  0  0  0
   26.0463   17.8148   11.8128 H   0  0  0  0  0  0  0  0  0  0  0  0
   27.2294   18.3291   14.3624 H   0  0  0  0  0  0  0  0  0  0  0  0
   25.0535   18.4357   16.5124 H   0  0  0  0  0  0  0  0  0  0  0  0
   26.2579   17.1222   16.2930 H   0  0  0  0  0  0  0  0  0  0  0  0
   26.9288   18.7690   18.0540 H   0  0  0  0  0  0  0  0  0  0  0  0
   28.0928   18.6945   16.6716 H   0  0  0  0  0  0  0  0  0  0  0  0
   26.8358   21.8364   15.2200 H   0  0  0  0  0  0  0  0  0  0  0  0
   22.6868   15.3480    8.5441 H   0  0  0  0  0  0  0  0  0  0  0  0
   22.2097   16.7643    4.7862 H   0  0  0  0  0  0  0  0  0  0  0  0
  1  2  1  0
  2  3  1  0
  3  4  2  0
  4  5  1  0
  5  6  1  0
  6  7  2  0
  6  8  2  0
  6  9  1  0
  9 10  2  0
 10 11  1  0
 11 12  2  0
 12 13  1  0
 13 14  1  0
 14 15  2  0
 15 16  1  0
 16 17  2  0
 17 18  1  0
 18 19  2  0
 18 20  1  0
 20 21  1  0
 21 22  1  0
 22 23  1  0
 23 24  1  0
 24 25  1  0
 25 26  2  0
 25 27  1  0
 27 28  1  0
 28 29  2  0
 21 30  1  0
 30 31  2  0
 13 32  2  0
  5 33  1  0
 33 34  2  0
 34  3  1  0
 32  9  1  0
 19 14  1  0
 28 22  1  0
 30 17  1  0
  1 35  1  0
  1 36  1  0
  1 37  1  0
  2 38  1  0
  2 39  1  0
  4 40  1  0
 10 41  1  0
 11 42  1  0
 12 43  1  0
 15 44  1  0
 16 45  1  0
 19 46  1  0
 20 47  1  0
 20 48  1  0
 22 49  1  6
 23 50  1  0
 23 51  1  0
 24 52  1  0
 24 53  1  0
 27 54  1  0
 32 55  1  0
 33 56  1  0
M  END
>  <meeko>  (619) 
{"is_sidechain": [true], "free_energy": -10.66, "intermolecular_energy": 0.0, "internal_energy": -10.66, "cluster_size": 20, "cluster_id": 1, "rank_in_cluster": 1}

>  <_RMSD_MCS_to_ref>  (619) 
1.4130272860462076

$$$$
ligand
     RDKit          3D

 45 47  0  0  0  0  0  0  0  0999 V2000
   18.9090   19.1540    7.5370 C   0  0  0  0  0  0  0  0  0  0  0  0
   18.7730   17.6460    7.6780 C   0  0  0  0  0  0  0  0  0  0  0  0
   20.0490   16.9370    7.3870 C   0  0  0  0  0  0  0  0  0  0  0  0
   21.0250   16.5080    8.2630 C   0  0  0  0  0  0  0  0  0  0  0  0
   21.9790   15.9540    7.4580 N   0  0  0  0  0  0  0  0  0  0  0  0
   23.2920   15.0290    7.9740 S   0  0  0  0  0  6  0  0  0  0  0  0
   22.7120   13.7460    8.3370 O   0  0  0  0  0  0  0  0  0  0  0  0
   24.2680   15.1380    6.9050 O   0  0  0  0  0  0  0  0  0  0  0  0
   23.9040   15.7930    9.4430 C   0  0  0  0  0  0  0  0  0  0  0  0
   23.0940   15.8060   10.5130 C   0  0  0  0  0  0  0  0  0  0  0  0
   23.5830   16.4650   11.7550 C   0  0  0  0  0  0  0  0  0  0  0  0
   22.8640   16.4700   12.7520 O   0  0  0  0  0  0  0  0  0  0  0  0
   24.9300   17.1080   11.7460 C   0  0  0  0  0  0  0  0  0  0  0  0
   25.5340   17.8320   12.8960 C   0  0  0  0  0  0  0  0  0  0  0  0
   26.7480   17.9990   12.9880 O   0  0  0  0  0  0  0  0  0  0  0  0
   24.6570   18.2910   13.8400 N   0  0  0  0  0  0  0  0  0  0  0  0
   25.1000   18.9590   15.0530 C   0  0  1  0  0  0  0  0  0  0  0  0
   26.1410   18.1310   15.8000 C   0  0  0  0  0  0  0  0  0  0  0  0
   26.5760   18.8710   17.0540 C   0  0  0  0  0  0  0  0  0  0  0  0
   27.0920   20.2520   16.7240 C   0  0  0  0  0  0  0  0  0  0  0  0
   27.9830   20.7940   17.3730 O   0  0  0  0  0  0  0  0  0  0  0  0
   26.4900   20.8980   15.6750 N   0  0  0  0  0  0  0  0  0  0  0  0
   25.6970   20.3280   14.7070 C   0  0  0  0  0  0  0  0  0  0  0  0
   25.4770   20.9140   13.6500 O   0  0  0  0  0  0  0  0  0  0  0  0
   25.6220   17.0240   10.5960 C   0  0  0  0  0  0  0  0  0  0  0  0
   25.1620   16.3720    9.4810 N   0  0  0  0  0  0  0  0  0  0  0  0
   21.5530   15.9980    6.1700 C   0  0  0  0  0  0  0  0  0  0  0  0
   20.3870   16.6030    6.0900 N   0  0  0  0  0  0  0  0  0  0  0  0
   18.9504   19.6134    8.5356 H   0  0  0  0  0  0  0  0  0  0  0  0
   19.8320   19.3891    6.9867 H   0  0  0  0  0  0  0  0  0  0  0  0
   18.0430   19.5504    6.9867 H   0  0  0  0  0  0  0  0  0  0  0  0
   18.4650   17.4128    8.7079 H   0  0  0  0  0  0  0  0  0  0  0  0
   18.0231   17.3048    6.9491 H   0  0  0  0  0  0  0  0  0  0  0  0
   21.0329   16.5929    9.3597 H   0  0  0  0  0  0  0  0  0  0  0  0
   22.0971   15.3428   10.4734 H   0  0  0  0  0  0  0  0  0  0  0  0
   23.6472   18.1587   13.6861 H   0  0  0  0  0  0  0  0  0  0  0  0
   24.2230   19.0839   15.7051 H   0  0  0  0  0  0  0  0  0  0  0  0
   25.7049   17.1607   16.0801 H   0  0  0  0  0  0  0  0  0  0  0  0
   27.0136   17.9684   15.1503 H   0  0  0  0  0  0  0  0  0  0  0  0
   25.7154   18.9626   17.7329 H   0  0  0  0  0  0  0  0  0  0  0  0
   27.3876   18.3012   17.5300 H   0  0  0  0  0  0  0  0  0  0  0  0
   26.6478   21.9134   15.6050 H   0  0  0  0  0  0  0  0  0  0  0  0
   26.6104   17.5043   10.5472 H   0  0  0  0  0  0  0  0  0  0  0  0
   25.7675   16.3111    8.6500 H   0  0  0  0  0  0  0  0  0  0  0  0
   22.1053   15.5856    5.3127 H   0  0  0  0  0  0  0  0  0  0  0  0
  1  2  1  0
  2  3  1  0
  3  4  2  0
  4  5  1  0
  5  6  1  0
  6  7  2  0
  6  8  2  0
  6  9  1  0
  9 10  2  0
 10 11  1  0
 11 12  2  0
 11 13  1  0
 13 14  1  0
 14 15  2  0
 14 16  1  0
 16 17  1  0
 17 18  1  0
 18 19  1  0
 19 20  1  0
 20 21  2  0
 20 22  1  0
 22 23  1  0
 23 24  2  0
 13 25  2  0
 25 26  1  0
  5 27  1  0
 27 28  2  0
 28  3  1  0
 26  9  1  0
 23 17  1  0
  1 29  1  0
  1 30  1  0
  1 31  1  0
  2 32  1  0
  2 33  1  0
  4 34  1  0
 10 35  1  0
 16 36  1  0
 17 37  1  1
 18 38  1  0
 18 39  1  0
 19 40  1  0
 19 41  1  0
 22 42  1  0
 25 43  1  0
 26 44  1  0
 27 45  1  0
M  END
>  <meeko>  (620) 
{"is_sidechain": [true], "free_energy": -10.66, "intermolecular_energy": 0.0, "internal_energy": -10.66, "cluster_size": 16, "cluster_id": 1, "rank_in_cluster": 1}

>  <_RMSD_MCS_to_ref>  (620) 
0.7611878144642681

$$$$
ligand
     RDKit          3D

 54 58  0  0  0  0  0  0  0  0999 V2000
   18.7970   18.8170    7.7190 C   0  0  0  0  0  0  0  0  0  0  0  0
   18.5280   17.3290    7.8810 C   0  0  0  0  0  0  0  0  0  0  0  0
   19.7370   16.5060    7.6110 C   0  0  0  0  0  0  0  0  0  0  0  0
   20.9790   16.5580    8.2110 C   0  0  0  0  0  0  0  0  0  0  0  0
   21.6990   15.5890    7.5730 N   0  0  0  0  0  0  0  0  0  0  0  0
   23.2730   15.1450    7.9460 S   0  0  0  0  0  6  0  0  0  0  0  0
   23.6360   16.0250    9.0420 O   0  0  0  0  0  0  0  0  0  0  0  0
   24.0230   15.1240    6.7080 O   0  0  0  0  0  0  0  0  0  0  0  0
   23.1750   13.5060    8.5800 C   0  0  0  0  0  0  0  0  0  0  0  0
   22.9850   12.4610    7.6690 C   0  0  0  0  0  0  0  0  0  0  0  0
   22.9710   11.1710    8.1490 C   0  0  0  0  0  0  0  0  0  0  0  0
   23.1440   10.9000    9.4520 N   0  0  0  0  0  0  0  0  0  0  0  0
   23.3120   11.9300   10.3440 N   0  0  0  0  0  0  0  0  0  0  0  0
   23.3140   13.2200    9.9290 C   0  0  0  0  0  0  0  0  0  0  0  0
   23.4580   14.1780   11.0270 C   0  0  0  0  0  0  0  0  0  0  0  0
   22.3180   14.6680   11.7140 C   0  0  0  0  0  0  0  0  0  0  0  0
   22.4360   15.5670   12.7780 C   0  0  0  0  0  0  0  0  0  0  0  0
   23.7100   15.9530   13.1430 C   0  0  0  0  0  0  0  0  0  0  0  0
   24.8500   15.4860   12.4980 C   0  0  0  0  0  0  0  0  0  0  0  0
   24.7410   14.5900   11.4460 C   0  0  0  0  0  0  0  0  0  0  0  0
   26.0650   16.1050   13.1040 C   0  0  0  0  0  0  0  0  0  0  0  0
   25.5170   16.8370   14.2380 N   0  0  0  0  0  0  0  0  0  0  0  0
   26.3420   17.7360   15.0360 C   0  0  2  0  0  0  0  0  0  0  0  0
   25.9570   17.7690   16.5150 C   0  0  0  0  0  0  0  0  0  0  0  0
   26.9120   18.6830   17.2650 C   0  0  0  0  0  0  0  0  0  0  0  0
   26.9230   20.0720   16.6720 C   0  0  0  0  0  0  0  0  0  0  0  0
   27.2720   21.0560   17.3170 O   0  0  0  0  0  0  0  0  0  0  0  0
   26.6040   20.1750   15.3400 N   0  0  0  0  0  0  0  0  0  0  0  0
   26.3560   19.1560   14.4490 C   0  0  0  0  0  0  0  0  0  0  0  0
   26.2630   19.3950   13.2460 O   0  0  0  0  0  0  0  0  0  0  0  0
   24.1300   16.8560   14.2200 C   0  0  0  0  0  0  0  0  0  0  0  0
   23.3710   17.4830   14.9330 O   0  0  0  0  0  0  0  0  0  0  0  0
   20.9260   15.0070    6.6230 C   0  0  0  0  0  0  0  0  0  0  0  0
   19.7150   15.5260    6.6400 N   0  0  0  0  0  0  0  0  0  0  0  0
   18.8815   19.2845    8.7111 H   0  0  0  0  0  0  0  0  0  0  0  0
   19.7359   18.9616    7.1643 H   0  0  0  0  0  0  0  0  0  0  0  0
   17.9682   19.2812    7.1643 H   0  0  0  0  0  0  0  0  0  0  0  0
   18.1938   17.1398    8.9118 H   0  0  0  0  0  0  0  0  0  0  0  0
   17.7562   17.0443    7.1508 H   0  0  0  0  0  0  0  0  0  0  0  0
   21.3124   17.2268    9.0182 H   0  0  0  0  0  0  0  0  0  0  0  0
   22.8503   12.6652    6.5966 H   0  0  0  0  0  0  0  0  0  0  0  0
   22.8138   10.3399    7.4457 H   0  0  0  0  0  0  0  0  0  0  0  0
   21.3177   14.3328   11.4023 H   0  0  0  0  0  0  0  0  0  0  0  0
   21.5492   15.9513   13.3033 H   0  0  0  0  0  0  0  0  0  0  0  0
   25.6417   14.2056   10.9450 H   0  0  0  0  0  0  0  0  0  0  0  0
   26.7790   15.3365   13.4351 H   0  0  0  0  0  0  0  0  0  0  0  0
   26.6277   16.7401   12.4041 H   0  0  0  0  0  0  0  0  0  0  0  0
   27.3599   17.3217   14.9879 H   0  0  0  0  0  0  0  0  0  0  0  0
   24.9294   18.1476   16.6184 H   0  0  0  0  0  0  0  0  0  0  0  0
   26.0163   16.7532   16.9329 H   0  0  0  0  0  0  0  0  0  0  0  0
   26.5964   18.7451   18.3169 H   0  0  0  0  0  0  0  0  0  0  0  0
   27.9262   18.2644   17.1866 H   0  0  0  0  0  0  0  0  0  0  0  0
   26.5430   21.1312   14.9621 H   0  0  0  0  0  0  0  0  0  0  0  0
   21.2616   14.2155    5.9369 H   0  0  0  0  0  0  0  0  0  0  0  0
  1  2  1  0
  2  3  1  0
  3  4  2  0
  4  5  1  0
  5  6  1  0
  6  7  2  0
  6  8  2  0
  6  9  1  0
  9 10  2  0
 10 11  1  0
 11 12  2  0
 12 13  1  0
 13 14  2  0
 14 15  1  0
 15 16  2  0
 16 17  1  0
 17 18  2  0
 18 19  1  0
 19 20  2  0
 19 21  1  0
 21 22  1  0
 22 23  1  0
 23 24  1  0
 24 25  1  0
 25 26  1  0
 26 27  2  0
 26 28  1  0
 28 29  1  0
 29 30  2  0
 22 31  1  0
 31 32  2  0
  5 33  1  0
 33 34  2  0
 34  3  1  0
 14  9  1  0
 20 15  1  0
 29 23  1  0
 31 18  1  0
  1 35  1  0
  1 36  1  0
  1 37  1  0
  2 38  1  0
  2 39  1  0
  4 40  1  0
 10 41  1  0
 11 42  1  0
 16 43  1  0
 17 44  1  0
 20 45  1  0
 21 46  1  0
 21 47  1  0
 23 48  1  1
 24 49  1  0
 24 50  1  0
 25 51  1  0
 25 52  1  0
 28 53  1  0
 33 54  1  0
M  END
>  <meeko>  (621) 
{"is_sidechain": [true], "free_energy": -10.65, "intermolecular_energy": 0.0, "internal_energy": -10.65, "cluster_size": 18, "cluster_id": 1, "rank_in_cluster": 1}

>  <_RMSD_MCS_to_ref>  (621) 
1.1102303314577966

$$$$
ligand
     RDKit          3D

 53 56  0  0  0  0  0  0  0  0999 V2000
   18.9090   19.1540    7.5370 C   0  0  0  0  0  0  0  0  0  0  0  0
   18.7730   17.6460    7.6780 C   0  0  0  0  0  0  0  0  0  0  0  0
   20.0850   16.9520    7.5710 C   0  0  0  0  0  0  0  0  0  0  0  0
   20.9980   16.6640    8.5660 C   0  0  0  0  0  0  0  0  0  0  0  0
   22.0060   16.0100    7.9180 N   0  0  0  0  0  0  0  0  0  0  0  0
   23.5090   15.6240    8.5620 S   0  0  0  0  0  6  0  0  0  0  0  0
   24.3120   16.8250    8.4430 O   0  0  0  0  0  0  0  0  0  0  0  0
   23.8990   14.3650    7.9510 O   0  0  0  0  0  0  0  0  0  0  0  0
   23.1680   15.3370   10.2780 C   0  0  0  0  0  0  0  0  0  0  0  0
   24.0630   15.8760   11.2170 C   0  0  0  0  0  0  0  0  0  0  0  0
   23.8140   15.7170   12.5800 C   0  0  0  0  0  0  0  0  0  0  0  0
   24.7130   16.2820   13.6240 C   0  0  0  0  0  0  0  0  0  0  0  0
   25.2190   15.5450   14.4610 O   0  0  0  0  0  0  0  0  0  0  0  0
   24.9500   17.6360   13.5700 N   0  0  0  0  0  0  0  0  0  0  0  0
   25.9310   18.2600   14.4510 C   0  0  2  0  0  0  0  0  0  0  0  0
   25.6830   17.9280   15.9180 C   0  0  0  0  0  0  0  0  0  0  0  0
   26.7110   18.6430   16.7810 C   0  0  0  0  0  0  0  0  0  0  0  0
   26.6980   20.1330   16.5300 C   0  0  0  0  0  0  0  0  0  0  0  0
   26.9310   20.9520   17.4140 O   0  0  0  0  0  0  0  0  0  0  0  0
   26.4390   20.5380   15.2450 N   0  0  0  0  0  0  0  0  0  0  0  0
   25.8560   19.7770   14.2620 C   0  0  0  0  0  0  0  0  0  0  0  0
   25.3190   20.2970   13.2840 O   0  0  0  0  0  0  0  0  0  0  0  0
   22.6560   15.0480   12.9910 C   0  0  0  0  0  0  0  0  0  0  0  0
   21.7600   14.4980   12.0540 C   0  0  0  0  0  0  0  0  0  0  0  0
   22.0480   14.5890   10.6810 C   0  0  0  0  0  0  0  0  0  0  0  0
   21.0980   14.0970    9.7230 N   0  0  0  0  0  0  0  0  0  0  0  0
   20.1540   12.7890   10.1800 S   0  0  0  0  0  6  0  0  0  0  0  0
   21.0250   11.6920   10.5170 O   0  0  0  0  0  0  0  0  0  0  0  0
   19.0830   12.6800    9.2240 O   0  0  0  0  0  0  0  0  0  0  0  0
   19.5390   13.4540   11.5720 N   0  0  0  0  0  0  0  0  0  0  0  0
   20.5440   13.7720   12.5780 C   0  0  0  0  0  0  0  0  0  0  0  0
   21.7160   15.9500    6.5920 C   0  0  0  0  0  0  0  0  0  0  0  0
   20.5520   16.5100    6.3480 N   0  0  0  0  0  0  0  0  0  0  0  0
   18.9504   19.6134    8.5356 H   0  0  0  0  0  0  0  0  0  0  0  0
   19.8320   19.3891    6.9867 H   0  0  0  0  0  0  0  0  0  0  0  0
   18.0430   19.5504    6.9867 H   0  0  0  0  0  0  0  0  0  0  0  0
   18.3316   17.4202    8.6599 H   0  0  0  0  0  0  0  0  0  0  0  0
   18.1323   17.2862    6.8594 H   0  0  0  0  0  0  0  0  0  0  0  0
   20.9289   16.9063    9.6368 H   0  0  0  0  0  0  0  0  0  0  0  0
   24.9565   16.4212   10.8787 H   0  0  0  0  0  0  0  0  0  0  0  0
   24.4278   18.2169   12.8986 H   0  0  0  0  0  0  0  0  0  0  0  0
   26.9255   17.8713   14.1868 H   0  0  0  0  0  0  0  0  0  0  0  0
   24.6728   18.2573   16.2026 H   0  0  0  0  0  0  0  0  0  0  0  0
   25.7707   16.8418   16.0678 H   0  0  0  0  0  0  0  0  0  0  0  0
   26.4816   18.4561   17.8405 H   0  0  0  0  0  0  0  0  0  0  0  0
   27.7085   18.2565   16.5246 H   0  0  0  0  0  0  0  0  0  0  0  0
   26.7063   21.5008   14.9949 H   0  0  0  0  0  0  0  0  0  0  0  0
   22.4415   14.9498   14.0654 H   0  0  0  0  0  0  0  0  0  0  0  0
   21.0006   14.5299    8.7935 H   0  0  0  0  0  0  0  0  0  0  0  0
   19.0446   14.3228   11.3237 H   0  0  0  0  0  0  0  0  0  0  0  0
   20.0722   14.4045   13.3444 H   0  0  0  0  0  0  0  0  0  0  0  0
   20.9042   12.8092   12.9696 H   0  0  0  0  0  0  0  0  0  0  0  0
   22.3650   15.4959    5.8287 H   0  0  0  0  0  0  0  0  0  0  0  0
  1  2  1  0
  2  3  1  0
  3  4  2  0
  4  5  1  0
  5  6  1  0
  6  7  2  0
  6  8  2  0
  6  9  1  0
  9 10  2  0
 10 11  1  0
 11 12  1  0
 12 13  2  0
 12 14  1  0
 14 15  1  0
 15 16  1  0
 16 17  1  0
 17 18  1  0
 18 19  2  0
 18 20  1  0
 20 21  1  0
 21 22  2  0
 11 23  2  0
 23 24  1  0
 24 25  2  0
 25 26  1  0
 26 27  1  0
 27 28  2  0
 27 29  2  0
 27 30  1  0
 30 31  1  0
  5 32  1  0
 32 33  2  0
 33  3  1  0
 25  9  1  0
 21 15  1  0
 31 24  1  0
  1 34  1  0
  1 35  1  0
  1 36  1  0
  2 37  1  0
  2 38  1  0
  4 39  1  0
 10 40  1  0
 14 41  1  0
 15 42  1  6
 16 43  1  0
 16 44  1  0
 17 45  1  0
 17 46  1  0
 20 47  1  0
 23 48  1  0
 26 49  1  0
 30 50  1  0
 31 51  1  0
 31 52  1  0
 32 53  1  0
M  END
>  <meeko>  (622) 
{"is_sidechain": [true], "free_energy": -10.65, "intermolecular_energy": 0.0, "internal_energy": -10.65, "cluster_size": 19, "cluster_id": 1, "rank_in_cluster": 1}

>  <_RMSD_MCS_to_ref>  (622) 
0.6086179242987985

$$$$
ligand
     RDKit          3D

 51 54  0  0  0  0  0  0  0  0999 V2000
   18.9090   19.1540    7.5370 C   0  0  0  0  0  0  0  0  0  0  0  0
   18.7730   17.6460    7.6780 C   0  0  0  0  0  0  0  0  0  0  0  0
   20.0950   16.9640    7.7150 C   0  0  0  0  0  0  0  0  0  0  0  0
   20.8320   16.5550    8.8090 C   0  0  0  0  0  0  0  0  0  0  0  0
   21.9680   16.0240    8.2680 N   0  0  0  0  0  0  0  0  0  0  0  0
   23.1370   15.1390    9.1020 S   0  0  0  0  0  6  0  0  0  0  0  0
   23.2780   13.9140    8.3360 O   0  0  0  0  0  0  0  0  0  0  0  0
   24.2390   16.0680    9.2750 O   0  0  0  0  0  0  0  0  0  0  0  0
   22.4720   14.8040   10.5600 O   0  0  0  0  0  0  0  0  0  0  0  0
   23.3030   14.4070   11.5760 C   0  0  0  0  0  0  0  0  0  0  0  0
   23.6400   13.0590   11.7110 C   0  0  0  0  0  0  0  0  0  0  0  0
   24.5140   12.6640   12.7180 C   0  0  0  0  0  0  0  0  0  0  0  0
   25.0650   13.6160   13.5740 C   0  0  0  0  0  0  0  0  0  0  0  0
   24.7560   14.9790   13.4270 C   0  0  0  0  0  0  0  0  0  0  0  0
   23.8530   15.3830   12.4250 C   0  0  0  0  0  0  0  0  0  0  0  0
   23.5220   16.8430   12.2190 C   0  0  0  0  0  0  0  0  0  0  0  0
   23.8360   17.7100   13.4370 C   0  0  0  0  0  0  0  0  0  0  0  0
   25.2590   17.4290   13.9270 C   0  0  1  0  0  0  0  0  0  0  0  0
   25.7280   18.3780   14.9590 N   0  0  0  0  0  0  0  0  0  0  0  0
   26.4580   17.8910   16.1240 C   0  0  0  0  0  0  0  0  0  0  0  0
   26.3050   18.8530   17.2830 C   0  0  0  0  0  0  0  0  0  0  0  0
   26.7060   20.2270   16.8360 C   0  0  0  0  0  0  0  0  0  0  0  0
   27.0940   21.0870   17.6230 O   0  0  0  0  0  0  0  0  0  0  0  0
   26.5420   20.4970   15.5050 N   0  0  0  0  0  0  0  0  0  0  0  0
   25.9400   19.6950   14.5720 C   0  0  0  0  0  0  0  0  0  0  0  0
   25.6190   20.1550   13.4800 O   0  0  0  0  0  0  0  0  0  0  0  0
   25.3720   15.9660   14.3920 C   0  0  0  0  0  0  0  0  0  0  0  0
   21.8650   16.0410    6.9140 C   0  0  0  0  0  0  0  0  0  0  0  0
   20.7470   16.6300    6.5430 N   0  0  0  0  0  0  0  0  0  0  0  0
   18.9504   19.6134    8.5356 H   0  0  0  0  0  0  0  0  0  0  0  0
   19.8320   19.3891    6.9867 H   0  0  0  0  0  0  0  0  0  0  0  0
   18.0430   19.5504    6.9867 H   0  0  0  0  0  0  0  0  0  0  0  0
   18.2338   17.4245    8.6108 H   0  0  0  0  0  0  0  0  0  0  0  0
   18.2246   17.2726    6.8006 H   0  0  0  0  0  0  0  0  0  0  0  0
   20.5651   16.6380    9.8729 H   0  0  0  0  0  0  0  0  0  0  0  0
   23.2159   12.3123   11.0236 H   0  0  0  0  0  0  0  0  0  0  0  0
   24.7703   11.6011   12.8389 H   0  0  0  0  0  0  0  0  0  0  0  0
   25.7495   13.2968   14.3737 H   0  0  0  0  0  0  0  0  0  0  0  0
   24.1055   17.2164   11.3645 H   0  0  0  0  0  0  0  0  0  0  0  0
   22.4386   16.9101   12.0411 H   0  0  0  0  0  0  0  0  0  0  0  0
   23.7487   18.7712   13.1610 H   0  0  0  0  0  0  0  0  0  0  0  0
   23.1239   17.4739   14.2415 H   0  0  0  0  0  0  0  0  0  0  0  0
   25.9351   17.5858   13.0736 H   0  0  0  0  0  0  0  0  0  0  0  0
   26.0614   16.9071   16.4149 H   0  0  0  0  0  0  0  0  0  0  0  0
   27.5245   17.8080   15.8677 H   0  0  0  0  0  0  0  0  0  0  0  0
   25.2566   18.8652   17.6157 H   0  0  0  0  0  0  0  0  0  0  0  0
   26.9460   18.5329   18.1176 H   0  0  0  0  0  0  0  0  0  0  0  0
   26.9100   21.3984   15.1690 H   0  0  0  0  0  0  0  0  0  0  0  0
   26.4374   15.7192   14.5102 H   0  0  0  0  0  0  0  0  0  0  0  0
   24.8179   15.8829   15.3386 H   0  0  0  0  0  0  0  0  0  0  0  0
   22.6113   15.6213    6.2234 H   0  0  0  0  0  0  0  0  0  0  0  0
  1  2  1  0
  2  3  1  0
  3  4  2  0
  4  5  1  0
  5  6  1  0
  6  7  2  0
  6  8  2  0
  6  9  1  0
  9 10  1  0
 10 11  2  0
 11 12  1  0
 12 13  2  0
 13 14  1  0
 14 15  2  0
 15 16  1  0
 16 17  1  0
 17 18  1  0
 18 19  1  0
 19 20  1  0
 20 21  1  0
 21 22  1  0
 22 23  2  0
 22 24  1  0
 24 25  1  0
 25 26  2  0
 18 27  1  0
  5 28  1  0
 28 29  2  0
 29  3  1  0
 15 10  1  0
 25 19  1  0
 27 14  1  0
  1 30  1  0
  1 31  1  0
  1 32  1  0
  2 33  1  0
  2 34  1  0
  4 35  1  0
 11 36  1  0
 12 37  1  0
 13 38  1  0
 16 39  1  0
 16 40  1  0
 17 41  1  0
 17 42  1  0
 18 43  1  6
 20 44  1  0
 20 45  1  0
 21 46  1  0
 21 47  1  0
 24 48  1  0
 27 49  1  0
 27 50  1  0
 28 51  1  0
M  END
>  <meeko>  (623) 
{"is_sidechain": [true], "free_energy": -10.65, "intermolecular_energy": 0.0, "internal_energy": -10.65, "cluster_size": 20, "cluster_id": 1, "rank_in_cluster": 1}

>  <_RMSD_MCS_to_ref>  (623) 
0.7343763510625869

$$$$
ligand
     RDKit          3D

 48 51  0  0  0  0  0  0  0  0999 V2000
   18.9090   19.1540    7.5370 C   0  0  0  0  0  0  0  0  0  0  0  0
   18.7730   17.6460    7.6780 C   0  0  0  0  0  0  0  0  0  0  0  0
   20.0910   16.9630    7.7840 C   0  0  0  0  0  0  0  0  0  0  0  0
   20.6350   16.3030    8.8680 C   0  0  0  0  0  0  0  0  0  0  0  0
   21.8550   15.8730    8.4260 N   0  0  0  0  0  0  0  0  0  0  0  0
   23.0410   15.1410    9.3660 S   0  0  0  0  0  6  0  0  0  0  0  0
   23.4630   13.9810    8.6020 O   0  0  0  0  0  0  0  0  0  0  0  0
   23.9680   16.1990    9.7250 O   0  0  0  0  0  0  0  0  0  0  0  0
   22.2910   14.5560   10.8460 C   0  0  0  0  0  0  0  0  0  0  0  0
   21.4740   13.4140   10.7790 C   0  0  0  0  0  0  0  0  0  0  0  0
   20.8730   12.9000   11.9310 C   0  0  0  0  0  0  0  0  0  0  0  0
   21.0670   13.4990   13.1840 C   0  0  0  0  0  0  0  0  0  0  0  0
   21.8820   14.6330   13.2200 C   0  0  0  0  0  0  0  0  0  0  0  0
   22.2930   15.4450   14.2490 N   0  0  0  0  0  0  0  0  0  0  0  0
   23.0960   16.4240   13.7230 C   0  0  0  0  0  0  0  0  0  0  0  0
   23.7570   17.4680   14.4790 C   0  0  0  0  0  0  0  0  0  0  0  0
   23.2880   17.9580   15.5020 O   0  0  0  0  0  0  0  0  0  0  0  0
   24.9660   17.8500   13.9340 N   0  0  0  0  0  0  0  0  0  0  0  0
   25.9650   18.5320   14.7350 C   0  0  2  0  0  0  0  0  0  0  0  0
   25.8390   18.1400   16.2030 C   0  0  0  0  0  0  0  0  0  0  0  0
   26.8870   18.8790   17.0190 C   0  0  0  0  0  0  0  0  0  0  0  0
   26.7760   20.3730   16.8320 C   0  0  0  0  0  0  0  0  0  0  0  0
   27.0850   21.1690   17.7140 O   0  0  0  0  0  0  0  0  0  0  0  0
   26.3520   20.8090   15.6020 N   0  0  0  0  0  0  0  0  0  0  0  0
   25.7880   20.0530   14.6010 C   0  0  0  0  0  0  0  0  0  0  0  0
   25.2190   20.5980   13.6570 O   0  0  0  0  0  0  0  0  0  0  0  0
   23.2160   16.2780   12.4170 N   0  0  0  0  0  0  0  0  0  0  0  0
   22.4850   15.1710   12.0860 C   0  0  0  0  0  0  0  0  0  0  0  0
   22.0180   16.2620    7.1330 C   0  0  0  0  0  0  0  0  0  0  0  0
   20.9740   16.9550    6.7180 N   0  0  0  0  0  0  0  0  0  0  0  0
   18.9504   19.6134    8.5356 H   0  0  0  0  0  0  0  0  0  0  0  0
   19.8320   19.3891    6.9867 H   0  0  0  0  0  0  0  0  0  0  0  0
   18.0430   19.5504    6.9867 H   0  0  0  0  0  0  0  0  0  0  0  0
   18.1885   17.4276    8.5839 H   0  0  0  0  0  0  0  0  0  0  0  0
   18.2728   17.2692    6.7737 H   0  0  0  0  0  0  0  0  0  0  0  0
   20.1878   16.1564    9.8623 H   0  0  0  0  0  0  0  0  0  0  0  0
   21.3062   12.9203    9.8104 H   0  0  0  0  0  0  0  0  0  0  0  0
   20.2348   12.0074   11.8534 H   0  0  0  0  0  0  0  0  0  0  0  0
   20.6000   13.0954   14.0945 H   0  0  0  0  0  0  0  0  0  0  0  0
   22.0418   15.3372   15.2421 H   0  0  0  0  0  0  0  0  0  0  0  0
   25.1621   17.6478   12.9433 H   0  0  0  0  0  0  0  0  0  0  0  0
   26.9606   18.2374   14.3716 H   0  0  0  0  0  0  0  0  0  0  0  0
   24.8360   18.4058   16.5682 H   0  0  0  0  0  0  0  0  0  0  0  0
   25.9927   17.0557   16.3064 H   0  0  0  0  0  0  0  0  0  0  0  0
   26.7463   18.6399   18.0834 H   0  0  0  0  0  0  0  0  0  0  0  0
   27.8822   18.5596   16.6761 H   0  0  0  0  0  0  0  0  0  0  0  0
   26.4690   21.8135   15.4067 H   0  0  0  0  0  0  0  0  0  0  0  0
   22.8996   16.0307    6.5171 H   0  0  0  0  0  0  0  0  0  0  0  0
  1  2  1  0
  2  3  1  0
  3  4  2  0
  4  5  1  0
  5  6  1  0
  6  7  2  0
  6  8  2  0
  6  9  1  0
  9 10  2  0
 10 11  1  0
 11 12  2  0
 12 13  1  0
 13 14  1  0
 14 15  1  0
 15 16  1  0
 16 17  2  0
 16 18  1  0
 18 19  1  0
 19 20  1  0
 20 21  1  0
 21 22  1  0
 22 23  2  0
 22 24  1  0
 24 25  1  0
 25 26  2  0
 15 27  2  0
 27 28  1  0
  5 29  1  0
 29 30  2  0
 30  3  1  0
 28  9  1  0
 28 13  2  0
 25 19  1  0
  1 31  1  0
  1 32  1  0
  1 33  1  0
  2 34  1  0
  2 35  1  0
  4 36  1  0
 10 37  1  0
 11 38  1  0
 12 39  1  0
 14 40  1  0
 18 41  1  0
 19 42  1  6
 20 43  1  0
 20 44  1  0
 21 45  1  0
 21 46  1  0
 24 47  1  0
 29 48  1  0
M  END
>  <meeko>  (624) 
{"is_sidechain": [true], "free_energy": -10.65, "intermolecular_energy": 0.0, "internal_energy": -10.65, "cluster_size": 16, "cluster_id": 1, "rank_in_cluster": 1}

>  <_RMSD_MCS_to_ref>  (624) 
0.753169598725576

$$$$
ligand
     RDKit          3D

 52 55  0  0  0  0  0  0  0  0999 V2000
   18.9090   19.1540    7.5370 C   0  0  0  0  0  0  0  0  0  0  0  0
   18.7730   17.6460    7.6780 C   0  0  0  0  0  0  0  0  0  0  0  0
   20.0940   16.9610    7.6860 C   0  0  0  0  0  0  0  0  0  0  0  0
   20.9970   16.8300    8.7230 C   0  0  0  0  0  0  0  0  0  0  0  0
   22.0370   16.1330    8.1770 N   0  0  0  0  0  0  0  0  0  0  0  0
   23.3430   15.4980    9.0210 S   0  0  0  0  0  6  0  0  0  0  0  0
   24.3440   16.5480    9.0340 O   0  0  0  0  0  0  0  0  0  0  0  0
   23.6090   14.2000    8.4330 O   0  0  0  0  0  0  0  0  0  0  0  0
   22.7200   15.2940   10.6670 C   0  0  0  0  0  0  0  0  0  0  0  0
   23.4140   15.9020   11.7240 C   0  0  0  0  0  0  0  0  0  0  0  0
   22.9790   15.7450   13.0540 C   0  0  0  0  0  0  0  0  0  0  0  0
   23.7520   16.4320   14.1260 C   0  0  0  0  0  0  0  0  0  0  0  0
   24.1020   15.8150   15.1240 O   0  0  0  0  0  0  0  0  0  0  0  0
   24.0110   17.7710   13.9390 N   0  0  0  0  0  0  0  0  0  0  0  0
   24.6130   18.5720   14.9960 C   0  0  1  0  0  0  0  0  0  0  0  0
   25.7360   17.8310   15.7170 C   0  0  0  0  0  0  0  0  0  0  0  0
   26.3450   18.7390   16.7740 C   0  0  0  0  0  0  0  0  0  0  0  0
   26.8250   20.0390   16.1710 C   0  0  0  0  0  0  0  0  0  0  0  0
   27.8170   20.6320   16.5840 O   0  0  0  0  0  0  0  0  0  0  0  0
   26.0770   20.5520   15.1410 N   0  0  0  0  0  0  0  0  0  0  0  0
   25.1820   19.8510   14.3710 C   0  0  0  0  0  0  0  0  0  0  0  0
   24.8570   20.2440   13.2510 O   0  0  0  0  0  0  0  0  0  0  0  0
   21.8400   14.9810   13.3370 C   0  0  0  0  0  0  0  0  0  0  0  0
   21.1640   14.3850   12.2800 C   0  0  0  0  0  0  0  0  0  0  0  0
   21.5910   14.5350   10.9510 C   0  0  0  0  0  0  0  0  0  0  0  0
   20.6970   13.7440   10.0390 C   0  0  0  0  0  0  0  0  0  0  0  0
   19.4640   13.5220   10.9240 C   0  0  0  0  0  0  0  0  0  0  0  0
   19.9650   13.4910   12.3700 C   0  0  0  0  0  0  0  0  0  0  0  0
   21.7400   15.8330    6.8870 C   0  0  0  0  0  0  0  0  0  0  0  0
   20.5670   16.3280    6.5540 N   0  0  0  0  0  0  0  0  0  0  0  0
   18.9504   19.6134    8.5356 H   0  0  0  0  0  0  0  0  0  0  0  0
   19.8320   19.3891    6.9867 H   0  0  0  0  0  0  0  0  0  0  0  0
   18.0430   19.5504    6.9867 H   0  0  0  0  0  0  0  0  0  0  0  0
   18.2530   17.4239    8.6215 H   0  0  0  0  0  0  0  0  0  0  0  0
   18.2056   17.2755    6.8115 H   0  0  0  0  0  0  0  0  0  0  0  0
   20.9005   17.2022    9.7536 H   0  0  0  0  0  0  0  0  0  0  0  0
   24.3073   16.5077   11.5115 H   0  0  0  0  0  0  0  0  0  0  0  0
   23.7757   18.2127   13.0388 H   0  0  0  0  0  0  0  0  0  0  0  0
   23.8338   18.7980   15.7388 H   0  0  0  0  0  0  0  0  0  0  0  0
   25.3303   16.9288   16.1981 H   0  0  0  0  0  0  0  0  0  0  0  0
   26.5103   17.5424   14.9910 H   0  0  0  0  0  0  0  0  0  0  0  0
   25.5855   18.9578   17.5391 H   0  0  0  0  0  0  0  0  0  0  0  0
   27.2086   18.2231   17.2191 H   0  0  0  0  0  0  0  0  0  0  0  0
   26.1978   21.5521   14.9264 H   0  0  0  0  0  0  0  0  0  0  0  0
   21.4889   14.8558   14.3719 H   0  0  0  0  0  0  0  0  0  0  0  0
   20.4427   14.3146    9.1336 H   0  0  0  0  0  0  0  0  0  0  0  0
   21.1512   12.8141    9.6663 H   0  0  0  0  0  0  0  0  0  0  0  0
   18.7461   14.3444   10.7884 H   0  0  0  0  0  0  0  0  0  0  0  0
   18.9501   12.5855   10.6615 H   0  0  0  0  0  0  0  0  0  0  0  0
   19.2137   13.8926   13.0659 H   0  0  0  0  0  0  0  0  0  0  0  0
   20.1808   12.4824   12.7522 H   0  0  0  0  0  0  0  0  0  0  0  0
   22.3900   15.2558    6.2130 H   0  0  0  0  0  0  0  0  0  0  0  0
  1  2  1  0
  2  3  1  0
  3  4  2  0
  4  5  1  0
  5  6  1  0
  6  7  2  0
  6  8  2  0
  6  9  1  0
  9 10  2  0
 10 11  1  0
 11 12  1  0
 12 13  2  0
 12 14  1  0
 14 15  1  0
 15 16  1  0
 16 17  1  0
 17 18  1  0
 18 19  2  0
 18 20  1  0
 20 21  1  0
 21 22  2  0
 11 23  2  0
 23 24  1  0
 24 25  2  0
 25 26  1  0
 26 27  1  0
 27 28  1  0
  5 29  1  0
 29 30  2  0
 30  3  1  0
 25  9  1  0
 21 15  1  0
 28 24  1  0
  1 31  1  0
  1 32  1  0
  1 33  1  0
  2 34  1  0
  2 35  1  0
  4 36  1  0
 10 37  1  0
 14 38  1  0
 15 39  1  1
 16 40  1  0
 16 41  1  0
 17 42  1  0
 17 43  1  0
 20 44  1  0
 23 45  1  0
 26 46  1  0
 26 47  1  0
 27 48  1  0
 27 49  1  0
 28 50  1  0
 28 51  1  0
 29 52  1  0
M  END
>  <meeko>  (625) 
{"is_sidechain": [true], "free_energy": -10.65, "intermolecular_energy": 0.0, "internal_energy": -10.65, "cluster_size": 19, "cluster_id": 1, "rank_in_cluster": 1}

>  <_RMSD_MCS_to_ref>  (625) 
0.436289277123944

$$$$
ligand
     RDKit          3D

 47 50  0  0  0  0  0  0  0  0999 V2000
   18.9090   19.1540    7.5370 C   0  0  0  0  0  0  0  0  0  0  0  0
   18.7730   17.6460    7.6780 C   0  0  0  0  0  0  0  0  0  0  0  0
   19.8800   16.9160    7.0040 C   0  0  0  0  0  0  0  0  0  0  0  0
   21.0740   16.4670    7.5340 C   0  0  0  0  0  0  0  0  0  0  0  0
   21.6930   15.8460    6.4870 N   0  0  0  0  0  0  0  0  0  0  0  0
   23.2790   15.2930    6.4670 S   0  0  0  0  0  6  0  0  0  0  0  0
   24.0830   16.4110    6.0130 O   0  0  0  0  0  0  0  0  0  0  0  0
   23.2500   14.0210    5.7730 O   0  0  0  0  0  0  0  0  0  0  0  0
   23.6370   14.9920    8.1810 C   0  0  0  0  0  0  0  0  0  0  0  0
   23.6130   13.6750    8.6680 C   0  0  0  0  0  0  0  0  0  0  0  0
   23.8860   13.4080   10.0190 C   0  0  0  0  0  0  0  0  0  0  0  0
   24.1710   14.4890   10.8640 C   0  0  0  0  0  0  0  0  0  0  0  0
   24.4690   14.5310   12.2010 N   0  0  0  0  0  0  0  0  0  0  0  0
   24.6360   15.8250   12.4400 C   0  0  0  0  0  0  0  0  0  0  0  0
   24.9750   16.4090   13.7290 C   0  0  0  0  0  0  0  0  0  0  0  0
   25.1160   15.7730   14.7730 O   0  0  0  0  0  0  0  0  0  0  0  0
   25.1220   17.7830   13.6980 N   0  0  0  0  0  0  0  0  0  0  0  0
   25.3030   18.5750   14.9020 C   0  0  1  0  0  0  0  0  0  0  0  0
   26.3280   17.9560   15.8460 C   0  0  0  0  0  0  0  0  0  0  0  0
   26.4920   18.8420   17.0720 C   0  0  0  0  0  0  0  0  0  0  0  0
   26.8670   20.2520   16.6820 C   0  0  0  0  0  0  0  0  0  0  0  0
   27.5970   20.9550   17.3740 O   0  0  0  0  0  0  0  0  0  0  0  0
   26.3220   20.7330   15.5170 N   0  0  0  0  0  0  0  0  0  0  0  0
   25.7700   19.9810   14.5110 C   0  0  0  0  0  0  0  0  0  0  0  0
   25.6500   20.4330   13.3730 O   0  0  0  0  0  0  0  0  0  0  0  0
   24.4680   16.6380   11.3470 O   0  0  0  0  0  0  0  0  0  0  0  0
   24.1700   15.7720   10.3390 C   0  0  0  0  0  0  0  0  0  0  0  0
   23.9060   16.0910    9.0120 C   0  0  0  0  0  0  0  0  0  0  0  0
   20.9200   15.9680    5.3770 C   0  0  0  0  0  0  0  0  0  0  0  0
   19.8040   16.6080    5.6600 N   0  0  0  0  0  0  0  0  0  0  0  0
   18.9504   19.6134    8.5356 H   0  0  0  0  0  0  0  0  0  0  0  0
   19.8320   19.3891    6.9867 H   0  0  0  0  0  0  0  0  0  0  0  0
   18.0430   19.5504    6.9867 H   0  0  0  0  0  0  0  0  0  0  0  0
   18.7784   17.3884    8.7474 H   0  0  0  0  0  0  0  0  0  0  0  0
   17.8297   17.3459    7.1984 H   0  0  0  0  0  0  0  0  0  0  0  0
   21.4421   16.5831    8.5641 H   0  0  0  0  0  0  0  0  0  0  0  0
   23.3782   12.8454    7.9849 H   0  0  0  0  0  0  0  0  0  0  0  0
   23.8764   12.3776   10.4040 H   0  0  0  0  0  0  0  0  0  0  0  0
   25.1025   18.2632   12.7870 H   0  0  0  0  0  0  0  0  0  0  0  0
   24.3379   18.6131   15.4285 H   0  0  0  0  0  0  0  0  0  0  0  0
   25.9834   16.9591   16.1581 H   0  0  0  0  0  0  0  0  0  0  0  0
   27.2943   17.8657   15.3282 H   0  0  0  0  0  0  0  0  0  0  0  0
   25.5431   18.8641   17.6280 H   0  0  0  0  0  0  0  0  0  0  0  0
   27.2980   18.4275   17.6954 H   0  0  0  0  0  0  0  0  0  0  0  0
   26.3282   21.7546   15.3861 H   0  0  0  0  0  0  0  0  0  0  0  0
   23.9077   17.1266    8.6410 H   0  0  0  0  0  0  0  0  0  0  0  0
   21.1883   15.5858    4.3810 H   0  0  0  0  0  0  0  0  0  0  0  0
  1  2  1  0
  2  3  1  0
  3  4  2  0
  4  5  1  0
  5  6  1  0
  6  7  2  0
  6  8  2  0
  6  9  1  0
  9 10  2  0
 10 11  1  0
 11 12  2  0
 12 13  1  0
 13 14  2  0
 14 15  1  0
 15 16  2  0
 15 17  1  0
 17 18  1  0
 18 19  1  0
 19 20  1  0
 20 21  1  0
 21 22  2  0
 21 23  1  0
 23 24  1  0
 24 25  2  0
 14 26  1  0
 26 27  1  0
 27 28  2  0
  5 29  1  0
 29 30  2  0
 30  3  1  0
 28  9  1  0
 27 12  1  0
 24 18  1  0
  1 31  1  0
  1 32  1  0
  1 33  1  0
  2 34  1  0
  2 35  1  0
  4 36  1  0
 10 37  1  0
 11 38  1  0
 17 39  1  0
 18 40  1  1
 19 41  1  0
 19 42  1  0
 20 43  1  0
 20 44  1  0
 23 45  1  0
 28 46  1  0
 29 47  1  0
M  END
>  <meeko>  (626) 
{"is_sidechain": [true], "free_energy": -10.65, "intermolecular_energy": 0.0, "internal_energy": -10.65, "cluster_size": 20, "cluster_id": 1, "rank_in_cluster": 1}

>  <_RMSD_MCS_to_ref>  (626) 
0.5953621680213738

$$$$
ligand
     RDKit          3D

 51 54  0  0  0  0  0  0  0  0999 V2000
   18.9090   19.1540    7.5370 C   0  0  0  0  0  0  0  0  0  0  0  0
   18.7730   17.6460    7.6780 C   0  0  0  0  0  0  0  0  0  0  0  0
   20.0940   16.9600    7.6680 C   0  0  0  0  0  0  0  0  0  0  0  0
   21.0120   16.8300    8.6900 C   0  0  0  0  0  0  0  0  0  0  0  0
   22.0390   16.1240    8.1320 N   0  0  0  0  0  0  0  0  0  0  0  0
   23.3430   15.4600    8.9580 S   0  0  0  0  0  6  0  0  0  0  0  0
   23.5430   14.1460    8.3760 O   0  0  0  0  0  0  0  0  0  0  0  0
   24.3770   16.4750    8.9600 O   0  0  0  0  0  0  0  0  0  0  0  0
   22.7350   15.2720   10.6100 C   0  0  0  0  0  0  0  0  0  0  0  0
   21.5910   14.5040   10.8420 C   0  0  0  0  0  0  0  0  0  0  0  0
   21.1280   14.4110   12.1410 C   0  0  0  0  0  0  0  0  0  0  0  0
   21.8190   14.9990   13.2070 C   0  0  0  0  0  0  0  0  0  0  0  0
   22.9790   15.7310   12.9860 C   0  0  0  0  0  0  0  0  0  0  0  0
   23.7520   16.3980   14.0620 C   0  0  0  0  0  0  0  0  0  0  0  0
   24.0830   15.7650   15.0580 O   0  0  0  0  0  0  0  0  0  0  0  0
   24.0130   17.7350   13.8920 N   0  0  0  0  0  0  0  0  0  0  0  0
   24.6030   18.5300   14.9610 C   0  0  1  0  0  0  0  0  0  0  0  0
   25.7390   17.7970   15.6670 C   0  0  0  0  0  0  0  0  0  0  0  0
   26.3360   18.6980   16.7380 C   0  0  0  0  0  0  0  0  0  0  0  0
   26.7940   20.0140   16.1520 C   0  0  0  0  0  0  0  0  0  0  0  0
   27.7810   20.6120   16.5670 O   0  0  0  0  0  0  0  0  0  0  0  0
   26.0300   20.5320   15.1370 N   0  0  0  0  0  0  0  0  0  0  0  0
   25.1500   19.8260   14.3560 C   0  0  0  0  0  0  0  0  0  0  0  0
   24.8200   20.2310   13.2410 O   0  0  0  0  0  0  0  0  0  0  0  0
   23.4300   15.8840   11.6680 C   0  0  0  0  0  0  0  0  0  0  0  0
   21.0910   14.6760   14.4720 C   0  0  0  0  0  0  0  0  0  0  0  0
   19.7530   14.1580   13.9130 C   0  0  0  0  0  0  0  0  0  0  0  0
   20.0120   13.6490   12.5570 N   0  0  0  0  0  0  0  0  0  0  0  0
   21.7190   15.8120    6.8500 C   0  0  0  0  0  0  0  0  0  0  0  0
   20.5440   16.3160    6.5310 N   0  0  0  0  0  0  0  0  0  0  0  0
   18.9504   19.6134    8.5356 H   0  0  0  0  0  0  0  0  0  0  0  0
   19.8320   19.3891    6.9867 H   0  0  0  0  0  0  0  0  0  0  0  0
   18.0430   19.5504    6.9867 H   0  0  0  0  0  0  0  0  0  0  0  0
   18.2651   17.4232    8.6279 H   0  0  0  0  0  0  0  0  0  0  0  0
   18.1938   17.2769    6.8188 H   0  0  0  0  0  0  0  0  0  0  0  0
   20.9342   17.2089    9.7198 H   0  0  0  0  0  0  0  0  0  0  0  0
   21.0755   13.9900   10.0174 H   0  0  0  0  0  0  0  0  0  0  0  0
   23.7878   18.1841   12.9928 H   0  0  0  0  0  0  0  0  0  0  0  0
   23.8211   18.7318   15.7079 H   0  0  0  0  0  0  0  0  0  0  0  0
   25.3495   16.8805   16.1343 H   0  0  0  0  0  0  0  0  0  0  0  0
   26.5163   17.5335   14.9346 H   0  0  0  0  0  0  0  0  0  0  0  0
   25.5748   18.8935   17.5077 H   0  0  0  0  0  0  0  0  0  0  0  0
   27.2077   18.1891   17.1752 H   0  0  0  0  0  0  0  0  0  0  0  0
   26.1254   21.5393   14.9443 H   0  0  0  0  0  0  0  0  0  0  0  0
   24.3287   16.4835   11.4610 H   0  0  0  0  0  0  0  0  0  0  0  0
   21.6135   13.9018   15.0530 H   0  0  0  0  0  0  0  0  0  0  0  0
   20.9956   15.5207   15.1701 H   0  0  0  0  0  0  0  0  0  0  0  0
   19.3665   13.3495   14.5509 H   0  0  0  0  0  0  0  0  0  0  0  0
   19.0034   14.9627   13.8899 H   0  0  0  0  0  0  0  0  0  0  0  0
   19.5051   12.9176   12.0384 H   0  0  0  0  0  0  0  0  0  0  0  0
   22.3523   15.2209    6.1721 H   0  0  0  0  0  0  0  0  0  0  0  0
  1  2  1  0
  2  3  1  0
  3  4  2  0
  4  5  1  0
  5  6  1  0
  6  7  2  0
  6  8  2  0
  6  9  1  0
  9 10  2  0
 10 11  1  0
 11 12  2  0
 12 13  1  0
 13 14  1  0
 14 15  2  0
 14 16  1  0
 16 17  1  0
 17 18  1  0
 18 19  1  0
 19 20  1  0
 20 21  2  0
 20 22  1  0
 22 23  1  0
 23 24  2  0
 13 25  2  0
 12 26  1  0
 26 27  1  0
 27 28  1  0
  5 29  1  0
 29 30  2  0
 30  3  1  0
 25  9  1  0
 28 11  1  0
 23 17  1  0
  1 31  1  0
  1 32  1  0
  1 33  1  0
  2 34  1  0
  2 35  1  0
  4 36  1  0
 10 37  1  0
 16 38  1  0
 17 39  1  1
 18 40  1  0
 18 41  1  0
 19 42  1  0
 19 43  1  0
 22 44  1  0
 25 45  1  0
 26 46  1  0
 26 47  1  0
 27 48  1  0
 27 49  1  0
 28 50  1  0
 29 51  1  0
M  END
>  <meeko>  (627) 
{"is_sidechain": [true], "free_energy": -10.65, "intermolecular_energy": 0.0, "internal_energy": -10.65, "cluster_size": 20, "cluster_id": 1, "rank_in_cluster": 1}

>  <_RMSD_MCS_to_ref>  (627) 
0.3397215771775467

$$$$
ligand
     RDKit          3D

 46 49  0  0  0  0  0  0  0  0999 V2000
   18.9090   19.1540    7.5370 C   0  0  0  0  0  0  0  0  0  0  0  0
   18.7730   17.6460    7.6780 C   0  0  0  0  0  0  0  0  0  0  0  0
   20.0890   16.9550    7.6150 C   0  0  0  0  0  0  0  0  0  0  0  0
   20.9290   16.5880    8.6480 C   0  0  0  0  0  0  0  0  0  0  0  0
   21.9750   15.9670    8.0270 N   0  0  0  0  0  0  0  0  0  0  0  0
   23.3970   15.4490    8.7600 S   0  0  0  0  0  6  0  0  0  0  0  0
   23.5130   14.0510    8.3790 O   0  0  0  0  0  0  0  0  0  0  0  0
   24.3970   16.4400    8.4070 O   0  0  0  0  0  0  0  0  0  0  0  0
   23.0440   15.5640   10.5050 C   0  0  0  0  0  0  0  0  0  0  0  0
   23.8360   16.4130   11.1960 N   0  0  0  0  0  0  0  0  0  0  0  0
   23.6070   16.5130   12.5420 C   0  0  0  0  0  0  0  0  0  0  0  0
   24.4770   17.4440   13.3080 C   0  0  0  0  0  0  0  0  0  0  0  0
   25.5960   17.7710   12.9370 O   0  0  0  0  0  0  0  0  0  0  0  0
   23.9210   17.9070   14.4840 N   0  0  0  0  0  0  0  0  0  0  0  0
   24.6770   18.7040   15.4340 C   0  0  1  0  0  0  0  0  0  0  0  0
   25.8090   17.9080   16.0740 C   0  0  0  0  0  0  0  0  0  0  0  0
   26.5750   18.7990   17.0380 C   0  0  0  0  0  0  0  0  0  0  0  0
   27.0840   20.0430   16.3490 C   0  0  0  0  0  0  0  0  0  0  0  0
   28.1410   20.5830   16.6620 O   0  0  0  0  0  0  0  0  0  0  0  0
   26.2860   20.5700   15.3660 N   0  0  0  0  0  0  0  0  0  0  0  0
   25.2660   19.9210   14.7130 C   0  0  0  0  0  0  0  0  0  0  0  0
   24.8530   20.3230   13.6270 O   0  0  0  0  0  0  0  0  0  0  0  0
   22.5920   15.7580   13.1360 C   0  0  0  0  0  0  0  0  0  0  0  0
   22.1050   15.6170   14.4170 N   0  0  0  0  0  0  0  0  0  0  0  0
   21.1260   14.7440   14.3360 C   0  0  0  0  0  0  0  0  0  0  0  0
   20.9490   14.3030   13.0540 N   0  0  0  0  0  0  0  0  0  0  0  0
   21.8740   14.9360   12.2740 C   0  0  0  0  0  0  0  0  0  0  0  0
   22.0380   14.7810   10.9520 N   0  0  0  0  0  0  0  0  0  0  0  0
   21.7780   16.0020    6.6820 C   0  0  0  0  0  0  0  0  0  0  0  0
   20.6370   16.5950    6.3990 N   0  0  0  0  0  0  0  0  0  0  0  0
   18.9504   19.6134    8.5356 H   0  0  0  0  0  0  0  0  0  0  0  0
   19.8320   19.3891    6.9867 H   0  0  0  0  0  0  0  0  0  0  0  0
   18.0430   19.5504    6.9867 H   0  0  0  0  0  0  0  0  0  0  0  0
   18.3011   17.4218    8.6460 H   0  0  0  0  0  0  0  0  0  0  0  0
   18.1600   17.2823    6.8402 H   0  0  0  0  0  0  0  0  0  0  0  0
   20.7877   16.7573    9.7257 H   0  0  0  0  0  0  0  0  0  0  0  0
   22.9386   17.6799   14.6942 H   0  0  0  0  0  0  0  0  0  0  0  0
   23.9895   19.0177   16.2333 H   0  0  0  0  0  0  0  0  0  0  0  0
   25.3902   17.0508   16.6215 H   0  0  0  0  0  0  0  0  0  0  0  0
   26.4905   17.5459   15.2901 H   0  0  0  0  0  0  0  0  0  0  0  0
   25.9076   19.0931   17.8614 H   0  0  0  0  0  0  0  0  0  0  0  0
   27.4390   18.2354   17.4198 H   0  0  0  0  0  0  0  0  0  0  0  0
   26.4688   21.5456   15.0909 H   0  0  0  0  0  0  0  0  0  0  0  0
   20.5236   14.4095   15.1934 H   0  0  0  0  0  0  0  0  0  0  0  0
   20.2474   13.6195   12.7354 H   0  0  0  0  0  0  0  0  0  0  0  0
   22.4741   15.5924    5.9353 H   0  0  0  0  0  0  0  0  0  0  0  0
  1  2  1  0
  2  3  1  0
  3  4  2  0
  4  5  1  0
  5  6  1  0
  6  7  2  0
  6  8  2  0
  6  9  1  0
  9 10  2  0
 10 11  1  0
 11 12  1  0
 12 13  2  0
 12 14  1  0
 14 15  1  0
 15 16  1  0
 16 17  1  0
 17 18  1  0
 18 19  2  0
 18 20  1  0
 20 21  1  0
 21 22  2  0
 11 23  2  0
 23 24  1  0
 24 25  2  0
 25 26  1  0
 26 27  1  0
 27 28  2  0
  5 29  1  0
 29 30  2  0
 30  3  1  0
 28  9  1  0
 21 15  1  0
 27 23  1  0
  1 31  1  0
  1 32  1  0
  1 33  1  0
  2 34  1  0
  2 35  1  0
  4 36  1  0
 14 37  1  0
 15 38  1  1
 16 39  1  0
 16 40  1  0
 17 41  1  0
 17 42  1  0
 20 43  1  0
 25 44  1  0
 26 45  1  0
 29 46  1  0
M  END
>  <meeko>  (628) 
{"is_sidechain": [true], "free_energy": -10.65, "intermolecular_energy": 0.0, "internal_energy": -10.65, "cluster_size": 18, "cluster_id": 1, "rank_in_cluster": 1}

>  <_RMSD_MCS_to_ref>  (628) 
0.675332181637715

$$$$
ligand
     RDKit          3D

 50 53  0  0  0  0  0  0  0  0999 V2000
   18.9090   19.1540    7.5370 C   0  0  0  0  0  0  0  0  0  0  0  0
   18.7730   17.6460    7.6780 C   0  0  0  0  0  0  0  0  0  0  0  0
   20.0670   16.9890    8.0060 C   0  0  0  0  0  0  0  0  0  0  0  0
   20.3640   16.1340    9.0480 C   0  0  0  0  0  0  0  0  0  0  0  0
   21.6880   15.8460    8.8780 N   0  0  0  0  0  0  0  0  0  0  0  0
   22.6090   14.8520    9.8590 S   0  0  0  0  0  6  0  0  0  0  0  0
   23.6000   15.6920   10.5020 O   0  0  0  0  0  0  0  0  0  0  0  0
   22.9940   13.7620    8.9780 O   0  0  0  0  0  0  0  0  0  0  0  0
   21.5640   14.1790   11.1110 C   0  0  0  0  0  0  0  0  0  0  0  0
   20.7360   13.1130   10.7040 C   0  0  0  0  0  0  0  0  0  0  0  0
   19.9120   12.4820   11.6190 C   0  0  0  0  0  0  0  0  0  0  0  0
   19.9290   12.9030   12.9410 C   0  0  0  0  0  0  0  0  0  0  0  0
   20.7620   13.9590   13.3470 C   0  0  0  0  0  0  0  0  0  0  0  0
   20.7710   14.3270   14.6960 C   0  0  0  0  0  0  0  0  0  0  0  0
   21.5970   15.3510   15.1270 C   0  0  0  0  0  0  0  0  0  0  0  0
   22.3720   16.0000   14.1820 C   0  0  0  0  0  0  0  0  0  0  0  0
   23.2630   17.1110   14.6560 C   0  0  0  0  0  0  0  0  0  0  0  0
   22.8740   17.9060   15.5060 O   0  0  0  0  0  0  0  0  0  0  0  0
   24.5000   17.1920   14.0630 N   0  0  0  0  0  0  0  0  0  0  0  0
   25.5770   17.9700   14.6540 C   0  0  2  0  0  0  0  0  0  0  0  0
   25.6390   17.7650   16.1620 C   0  0  0  0  0  0  0  0  0  0  0  0
   26.7710   18.5980   16.7400 C   0  0  0  0  0  0  0  0  0  0  0  0
   26.6130   20.0590   16.3860 C   0  0  0  0  0  0  0  0  0  0  0  0
   27.0180   20.9580   17.1180 O   0  0  0  0  0  0  0  0  0  0  0  0
   26.0360   20.3390   15.1730 N   0  0  0  0  0  0  0  0  0  0  0  0
   25.3760   19.4620   14.3430 C   0  0  0  0  0  0  0  0  0  0  0  0
   24.7100   19.8830   13.3990 O   0  0  0  0  0  0  0  0  0  0  0  0
   22.3780   15.6800   12.8510 N   0  0  0  0  0  0  0  0  0  0  0  0
   21.6010   14.6470   12.4300 C   0  0  0  0  0  0  0  0  0  0  0  0
   22.1390   16.4520    7.7530 C   0  0  0  0  0  0  0  0  0  0  0  0
   21.1920   17.2050    7.2270 N   0  0  0  0  0  0  0  0  0  0  0  0
   18.9504   19.6134    8.5356 H   0  0  0  0  0  0  0  0  0  0  0  0
   19.8320   19.3891    6.9867 H   0  0  0  0  0  0  0  0  0  0  0  0
   18.0430   19.5504    6.9867 H   0  0  0  0  0  0  0  0  0  0  0  0
   18.0532   17.4296    8.4811 H   0  0  0  0  0  0  0  0  0  0  0  0
   18.4297   17.2480    6.7117 H   0  0  0  0  0  0  0  0  0  0  0  0
   19.6886   15.7682    9.8354 H   0  0  0  0  0  0  0  0  0  0  0  0
   20.7451   12.7817    9.6551 H   0  0  0  0  0  0  0  0  0  0  0  0
   19.2536   11.6593   11.3033 H   0  0  0  0  0  0  0  0  0  0  0  0
   19.2834   12.4046   13.6791 H   0  0  0  0  0  0  0  0  0  0  0  0
   20.1225   13.8035   15.4139 H   0  0  0  0  0  0  0  0  0  0  0  0
   21.6360   15.6398   16.1877 H   0  0  0  0  0  0  0  0  0  0  0  0
   24.6682   16.6900   13.1795 H   0  0  0  0  0  0  0  0  0  0  0  0
   26.5266   17.6260   14.2181 H   0  0  0  0  0  0  0  0  0  0  0  0
   24.6860   18.0773   16.6140 H   0  0  0  0  0  0  0  0  0  0  0  0
   25.8173   16.7018   16.3806 H   0  0  0  0  0  0  0  0  0  0  0  0
   26.7708   18.4924   17.8349 H   0  0  0  0  0  0  0  0  0  0  0  0
   27.7195   18.2380   16.3148 H   0  0  0  0  0  0  0  0  0  0  0  0
   26.1045   21.3138   14.8476 H   0  0  0  0  0  0  0  0  0  0  0  0
   23.1506   16.3330    7.3375 H   0  0  0  0  0  0  0  0  0  0  0  0
  1  2  1  0
  2  3  1  0
  3  4  2  0
  4  5  1  0
  5  6  1  0
  6  7  2  0
  6  8  2  0
  6  9  1  0
  9 10  2  0
 10 11  1  0
 11 12  2  0
 12 13  1  0
 13 14  2  0
 14 15  1  0
 15 16  2  0
 16 17  1  0
 17 18  2  0
 17 19  1  0
 19 20  1  0
 20 21  1  0
 21 22  1  0
 22 23  1  0
 23 24  2  0
 23 25  1  0
 25 26  1  0
 26 27  2  0
 16 28  1  0
 28 29  2  0
  5 30  1  0
 30 31  2  0
 31  3  1  0
 29  9  1  0
 29 13  1  0
 26 20  1  0
  1 32  1  0
  1 33  1  0
  1 34  1  0
  2 35  1  0
  2 36  1  0
  4 37  1  0
 10 38  1  0
 11 39  1  0
 12 40  1  0
 14 41  1  0
 15 42  1  0
 19 43  1  0
 20 44  1  6
 21 45  1  0
 21 46  1  0
 22 47  1  0
 22 48  1  0
 25 49  1  0
 30 50  1  0
M  END
>  <meeko>  (629) 
{"is_sidechain": [true], "free_energy": -10.65, "intermolecular_energy": 0.0, "internal_energy": -10.65, "cluster_size": 17, "cluster_id": 1, "rank_in_cluster": 1}

>  <_RMSD_MCS_to_ref>  (629) 
0.4910267021478799

$$$$
ligand
     RDKit          3D

 47 50  0  0  0  0  0  0  0  0999 V2000
   18.9090   19.1540    7.5370 C   0  0  0  0  0  0  0  0  0  0  0  0
   18.7730   17.6460    7.6780 C   0  0  0  0  0  0  0  0  0  0  0  0
   20.0240   16.9310    7.3090 C   0  0  0  0  0  0  0  0  0  0  0  0
   20.7110   15.9610    8.0120 C   0  0  0  0  0  0  0  0  0  0  0  0
   21.7660   15.6470    7.2040 N   0  0  0  0  0  0  0  0  0  0  0  0
   22.9810   14.5450    7.5670 S   0  0  0  0  0  6  0  0  0  0  0  0
   22.3070   13.4960    8.3130 O   0  0  0  0  0  0  0  0  0  0  0  0
   23.6870   14.2690    6.3330 O   0  0  0  0  0  0  0  0  0  0  0  0
   24.0730   15.3600    8.6650 C   0  0  0  0  0  0  0  0  0  0  0  0
   25.1330   16.1500    8.1680 C   0  0  0  0  0  0  0  0  0  0  0  0
   26.0500   16.8290    9.0130 C   0  0  0  0  0  0  0  0  0  0  0  0
   25.9940   16.7830   10.4200 C   0  0  0  0  0  0  0  0  0  0  0  0
   24.9370   16.0030   10.9160 C   0  0  0  0  0  0  0  0  0  0  0  0
   24.6920   15.8260   12.2670 C   0  0  0  0  0  0  0  0  0  0  0  0
   25.3810   16.3260   13.4450 C   0  0  0  0  0  0  0  0  0  0  0  0
   25.8210   15.6000   14.3340 O   0  0  0  0  0  0  0  0  0  0  0  0
   25.5410   17.6940   13.5340 N   0  0  0  0  0  0  0  0  0  0  0  0
   26.3380   18.3130   14.5830 C   0  0  2  0  0  0  0  0  0  0  0  0
   25.8350   17.9580   15.9780 C   0  0  0  0  0  0  0  0  0  0  0  0
   26.6860   18.6700   17.0190 C   0  0  0  0  0  0  0  0  0  0  0  0
   26.7010   20.1630   16.7870 C   0  0  0  0  0  0  0  0  0  0  0  0
   26.7590   20.9720   17.7080 O   0  0  0  0  0  0  0  0  0  0  0  0
   26.6770   20.5830   15.4810 N   0  0  0  0  0  0  0  0  0  0  0  0
   26.2750   19.8330   14.4040 C   0  0  0  0  0  0  0  0  0  0  0  0
   25.8980   20.3620   13.3590 O   0  0  0  0  0  0  0  0  0  0  0  0
   23.3180   14.8140   12.3920 S   0  0  0  0  0  0  0  0  0  0  0  0
   23.0510   14.6190   10.7820 N   0  0  0  0  0  0  0  0  0  0  0  0
   23.9620   15.2840   10.0680 C   0  0  0  0  0  0  0  0  0  0  0  0
   21.7170   16.4150    6.0860 C   0  0  0  0  0  0  0  0  0  0  0  0
   20.6610   17.2040    6.1130 N   0  0  0  0  0  0  0  0  0  0  0  0
   18.9504   19.6134    8.5356 H   0  0  0  0  0  0  0  0  0  0  0  0
   19.8320   19.3891    6.9867 H   0  0  0  0  0  0  0  0  0  0  0  0
   18.0430   19.5504    6.9867 H   0  0  0  0  0  0  0  0  0  0  0  0
   18.5249   17.4091    8.7231 H   0  0  0  0  0  0  0  0  0  0  0  0
   17.9797   17.3134    6.9924 H   0  0  0  0  0  0  0  0  0  0  0  0
   20.4647   15.5382    8.9972 H   0  0  0  0  0  0  0  0  0  0  0  0
   25.2534   16.2433    7.0786 H   0  0  0  0  0  0  0  0  0  0  0  0
   26.8477   17.4234    8.5435 H   0  0  0  0  0  0  0  0  0  0  0  0
   26.7105   17.3084   11.0686 H   0  0  0  0  0  0  0  0  0  0  0  0
   25.0818   18.2961   12.8358 H   0  0  0  0  0  0  0  0  0  0  0  0
   27.3685   17.9380   14.4962 H   0  0  0  0  0  0  0  0  0  0  0  0
   24.7868   18.2751   16.0818 H   0  0  0  0  0  0  0  0  0  0  0  0
   25.9050   16.8705   16.1279 H   0  0  0  0  0  0  0  0  0  0  0  0
   26.2742   18.4667   18.0186 H   0  0  0  0  0  0  0  0  0  0  0  0
   27.7173   18.2957   16.9398 H   0  0  0  0  0  0  0  0  0  0  0  0
   26.9882   21.5465   15.2920 H   0  0  0  0  0  0  0  0  0  0  0  0
   22.4552   16.3836    5.2711 H   0  0  0  0  0  0  0  0  0  0  0  0
  1  2  1  0
  2  3  1  0
  3  4  2  0
  4  5  1  0
  5  6  1  0
  6  7  2  0
  6  8  2  0
  6  9  1  0
  9 10  2  0
 10 11  1  0
 11 12  2  0
 12 13  1  0
 13 14  2  0
 14 15  1  0
 15 16  2  0
 15 17  1  0
 17 18  1  0
 18 19  1  0
 19 20  1  0
 20 21  1  0
 21 22  2  0
 21 23  1  0
 23 24  1  0
 24 25  2  0
 14 26  1  0
 26 27  1  0
 27 28  2  0
  5 29  1  0
 29 30  2  0
 30  3  1  0
 28  9  1  0
 28 13  1  0
 24 18  1  0
  1 31  1  0
  1 32  1  0
  1 33  1  0
  2 34  1  0
  2 35  1  0
  4 36  1  0
 10 37  1  0
 11 38  1  0
 12 39  1  0
 17 40  1  0
 18 41  1  1
 19 42  1  0
 19 43  1  0
 20 44  1  0
 20 45  1  0
 23 46  1  0
 29 47  1  0
M  END
>  <meeko>  (630) 
{"is_sidechain": [true], "free_energy": -10.65, "intermolecular_energy": 0.0, "internal_energy": -10.65, "cluster_size": 16, "cluster_id": 1, "rank_in_cluster": 1}

>  <_RMSD_MCS_to_ref>  (630) 
0.9250911066243989

$$$$
ligand
     RDKit          3D

 47 50  0  0  0  0  0  0  0  0999 V2000
   18.9090   19.1540    7.5370 C   0  0  0  0  0  0  0  0  0  0  0  0
   18.7730   17.6460    7.6780 C   0  0  0  0  0  0  0  0  0  0  0  0
   20.0740   16.9470    7.5010 C   0  0  0  0  0  0  0  0  0  0  0  0
   20.7090   16.0660    8.3540 C   0  0  0  0  0  0  0  0  0  0  0  0
   21.8570   15.7290    7.6930 N   0  0  0  0  0  0  0  0  0  0  0  0
   23.0970   14.7650    8.2860 S   0  0  0  0  0  6  0  0  0  0  0  0
   22.5520   13.4200    8.3410 O   0  0  0  0  0  0  0  0  0  0  0  0
   24.2650   15.0930    7.4900 O   0  0  0  0  0  0  0  0  0  0  0  0
   23.3860   15.3130    9.9420 C   0  0  0  0  0  0  0  0  0  0  0  0
   24.4450   16.1410   10.1000 N   0  0  0  0  0  0  0  0  0  0  0  0
   24.7230   16.5960   11.3400 C   0  0  0  0  0  0  0  0  0  0  0  0
   24.0080   16.2700   12.4870 C   0  0  0  0  0  0  0  0  0  0  0  0
   24.4650   16.8570   13.7660 C   0  0  0  0  0  0  0  0  0  0  0  0
   24.4080   16.1880   14.7930 O   0  0  0  0  0  0  0  0  0  0  0  0
   24.9060   18.1560   13.7650 N   0  0  0  0  0  0  0  0  0  0  0  0
   25.2530   18.8560   14.9930 C   0  0  1  0  0  0  0  0  0  0  0  0
   26.3270   18.1240   15.7900 C   0  0  0  0  0  0  0  0  0  0  0  0
   26.6670   18.9240   17.0380 C   0  0  0  0  0  0  0  0  0  0  0  0
   27.0860   20.3330   16.6890 C   0  0  0  0  0  0  0  0  0  0  0  0
   27.9340   20.9460   17.3290 O   0  0  0  0  0  0  0  0  0  0  0  0
   26.4470   20.9180   15.6250 N   0  0  0  0  0  0  0  0  0  0  0  0
   25.7670   20.2540   14.6340 C   0  0  0  0  0  0  0  0  0  0  0  0
   25.5860   20.7690   13.5310 O   0  0  0  0  0  0  0  0  0  0  0  0
   22.8990   15.4160   12.3020 C   0  0  0  0  0  0  0  0  0  0  0  0
   21.7540   14.8360   13.4690 S   0  0  0  0  0  0  0  0  0  0  0  0
   20.8850   13.9370   12.3240 C   0  0  0  0  0  0  0  0  0  0  0  0
   21.4170   14.0660   11.0650 C   0  0  0  0  0  0  0  0  0  0  0  0
   22.5760   14.9220   11.0230 C   0  0  0  0  0  0  0  0  0  0  0  0
   21.9130   16.4120    6.5210 C   0  0  0  0  0  0  0  0  0  0  0  0
   20.8320   17.1500    6.3640 N   0  0  0  0  0  0  0  0  0  0  0  0
   18.9504   19.6134    8.5356 H   0  0  0  0  0  0  0  0  0  0  0  0
   19.8320   19.3891    6.9867 H   0  0  0  0  0  0  0  0  0  0  0  0
   18.0430   19.5504    6.9867 H   0  0  0  0  0  0  0  0  0  0  0  0
   18.3813   17.4175    8.6802 H   0  0  0  0  0  0  0  0  0  0  0  0
   18.0895   17.2929    6.8918 H   0  0  0  0  0  0  0  0  0  0  0  0
   20.3689   15.7157    9.3397 H   0  0  0  0  0  0  0  0  0  0  0  0
   25.5802   17.2763   11.4515 H   0  0  0  0  0  0  0  0  0  0  0  0
   24.9944   18.6518   12.8665 H   0  0  0  0  0  0  0  0  0  0  0  0
   24.3499   18.9108   15.6187 H   0  0  0  0  0  0  0  0  0  0  0  0
   25.9542   17.1310   16.0815 H   0  0  0  0  0  0  0  0  0  0  0  0
   27.2290   18.0103   15.1708 H   0  0  0  0  0  0  0  0  0  0  0  0
   25.7820   18.9644   17.6900 H   0  0  0  0  0  0  0  0  0  0  0  0
   27.5052   18.4291   17.5503 H   0  0  0  0  0  0  0  0  0  0  0  0
   26.4803   21.9457   15.5643 H   0  0  0  0  0  0  0  0  0  0  0  0
   20.0023   13.3249   12.5610 H   0  0  0  0  0  0  0  0  0  0  0  0
   21.0008   13.5665   10.1777 H   0  0  0  0  0  0  0  0  0  0  0  0
   22.7443   16.3572    5.8027 H   0  0  0  0  0  0  0  0  0  0  0  0
  1  2  1  0
  2  3  1  0
  3  4  2  0
  4  5  1  0
  5  6  1  0
  6  7  2  0
  6  8  2  0
  6  9  1  0
  9 10  2  0
 10 11  1  0
 11 12  2  0
 12 13  1  0
 13 14  2  0
 13 15  1  0
 15 16  1  0
 16 17  1  0
 17 18  1  0
 18 19  1  0
 19 20  2  0
 19 21  1  0
 21 22  1  0
 22 23  2  0
 12 24  1  0
 24 25  1  0
 25 26  1  0
 26 27  2  0
 27 28  1  0
  5 29  1  0
 29 30  2  0
 30  3  1  0
 28  9  1  0
 22 16  1  0
 28 24  2  0
  1 31  1  0
  1 32  1  0
  1 33  1  0
  2 34  1  0
  2 35  1  0
  4 36  1  0
 11 37  1  0
 15 38  1  0
 16 39  1  1
 17 40  1  0
 17 41  1  0
 18 42  1  0
 18 43  1  0
 21 44  1  0
 26 45  1  0
 27 46  1  0
 29 47  1  0
M  END
>  <meeko>  (631) 
{"is_sidechain": [true], "free_energy": -10.65, "intermolecular_energy": 0.0, "internal_energy": -10.65, "cluster_size": 16, "cluster_id": 1, "rank_in_cluster": 1}

>  <_RMSD_MCS_to_ref>  (631) 
0.7494108797359872

$$$$
ligand
     RDKit          3D

 56 60  0  0  0  0  0  0  0  0999 V2000
   18.9090   19.1540    7.5370 C   0  0  0  0  0  0  0  0  0  0  0  0
   18.7730   17.6460    7.6780 C   0  0  0  0  0  0  0  0  0  0  0  0
   20.0870   16.9530    7.6030 C   0  0  0  0  0  0  0  0  0  0  0  0
   20.6560   16.0770    8.5050 C   0  0  0  0  0  0  0  0  0  0  0  0
   21.8390   15.7240    7.9250 N   0  0  0  0  0  0  0  0  0  0  0  0
   22.9850   14.6660    8.5390 S   0  0  0  0  0  6  0  0  0  0  0  0
   23.7210   14.1230    7.4140 O   0  0  0  0  0  0  0  0  0  0  0  0
   22.2230   13.8110    9.4320 O   0  0  0  0  0  0  0  0  0  0  0  0
   24.1020   15.6390    9.5290 C   0  0  0  0  0  0  0  0  0  0  0  0
   23.6380   16.0080   10.8050 C   0  0  0  0  0  0  0  0  0  0  0  0
   24.4720   16.7710   11.5960 C   0  0  0  0  0  0  0  0  0  0  0  0
   25.7310   17.1810   11.1790 C   0  0  0  0  0  0  0  0  0  0  0  0
   26.2000   16.8200    9.9280 C   0  0  0  0  0  0  0  0  0  0  0  0
   25.3920   16.0310    9.0730 C   0  0  0  0  0  0  0  0  0  0  0  0
   25.9660   15.6630    7.7720 C   0  0  0  0  0  0  0  0  0  0  0  0
   26.8270   14.5630    7.6460 C   0  0  0  0  0  0  0  0  0  0  0  0
   27.3890   14.2340    6.4100 C   0  0  0  0  0  0  0  0  0  0  0  0
   27.1080   15.0080    5.2860 C   0  0  0  0  0  0  0  0  0  0  0  0
   26.2680   16.1130    5.3970 C   0  0  0  0  0  0  0  0  0  0  0  0
   25.7040   16.4410    6.6310 C   0  0  0  0  0  0  0  0  0  0  0  0
   26.3750   18.0090   12.2400 C   0  0  0  0  0  0  0  0  0  0  0  0
   25.4110   17.9380   13.3290 N   0  0  0  0  0  0  0  0  0  0  0  0
   25.5250   18.8060   14.4970 C   0  0  2  0  0  0  0  0  0  0  0  0
   26.3380   20.0750   14.2480 C   0  0  0  0  0  0  0  0  0  0  0  0
   26.3370   20.9280   15.5070 C   0  0  0  0  0  0  0  0  0  0  0  0
   26.8700   20.1570   16.6930 C   0  0  0  0  0  0  0  0  0  0  0  0
   27.3470   20.7170   17.6770 O   0  0  0  0  0  0  0  0  0  0  0  0
   26.7190   18.7940   16.6610 N   0  0  0  0  0  0  0  0  0  0  0  0
   26.0830   18.0360   15.7050 C   0  0  0  0  0  0  0  0  0  0  0  0
   25.8970   16.8330   15.8860 O   0  0  0  0  0  0  0  0  0  0  0  0
   24.2420   17.3000   12.9440 C   0  0  0  0  0  0  0  0  0  0  0  0
   23.1970   17.1940   13.5550 O   0  0  0  0  0  0  0  0  0  0  0  0
   21.9900   16.4120    6.7630 C   0  0  0  0  0  0  0  0  0  0  0  0
   20.9240   17.1460    6.5200 N   0  0  0  0  0  0  0  0  0  0  0  0
   18.9504   19.6134    8.5356 H   0  0  0  0  0  0  0  0  0  0  0  0
   19.8320   19.3891    6.9867 H   0  0  0  0  0  0  0  0  0  0  0  0
   18.0430   19.5504    6.9867 H   0  0  0  0  0  0  0  0  0  0  0  0
   18.3093   17.4216    8.6499 H   0  0  0  0  0  0  0  0  0  0  0  0
   18.1527   17.2839    6.8449 H   0  0  0  0  0  0  0  0  0  0  0  0
   20.2490   15.7407    9.4700 H   0  0  0  0  0  0  0  0  0  0  0  0
   22.6439   15.6986   11.1599 H   0  0  0  0  0  0  0  0  0  0  0  0
   27.1979   17.1450    9.5984 H   0  0  0  0  0  0  0  0  0  0  0  0
   27.0624   13.9525    8.5303 H   0  0  0  0  0  0  0  0  0  0  0  0
   28.0545   13.3624    6.3240 H   0  0  0  0  0  0  0  0  0  0  0  0
   27.5489   14.7466    4.3127 H   0  0  0  0  0  0  0  0  0  0  0  0
   26.0487   16.7279    4.5116 H   0  0  0  0  0  0  0  0  0  0  0  0
   25.0464   17.3191    6.7115 H   0  0  0  0  0  0  0  0  0  0  0  0
   27.3447   17.5853   12.5401 H   0  0  0  0  0  0  0  0  0  0  0  0
   26.5956   19.0374   11.9180 H   0  0  0  0  0  0  0  0  0  0  0  0
   24.5002   19.1381   14.7195 H   0  0  0  0  0  0  0  0  0  0  0  0
   27.3721   19.8039   13.9887 H   0  0  0  0  0  0  0  0  0  0  0  0
   25.8907   20.6422   13.4184 H   0  0  0  0  0  0  0  0  0  0  0  0
   26.9695   21.8126   15.3411 H   0  0  0  0  0  0  0  0  0  0  0  0
   25.3005   21.2259   15.7238 H   0  0  0  0  0  0  0  0  0  0  0  0
   27.1321   18.2747   17.4487 H   0  0  0  0  0  0  0  0  0  0  0  0
   22.8782   16.3627    6.1160 H   0  0  0  0  0  0  0  0  0  0  0  0
  1  2  1  0
  2  3  1  0
  3  4  2  0
  4  5  1  0
  5  6  1  0
  6  7  2  0
  6  8  2  0
  6  9  1  0
  9 10  2  0
 10 11  1  0
 11 12  2  0
 12 13  1  0
 13 14  2  0
 14 15  1  0
 15 16  2  0
 16 17  1  0
 17 18  2  0
 18 19  1  0
 19 20  2  0
 12 21  1  0
 21 22  1  0
 22 23  1  0
 23 24  1  0
 24 25  1  0
 25 26  1  0
 26 27  2  0
 26 28  1  0
 28 29  1  0
 29 30  2  0
 22 31  1  0
 31 32  2  0
  5 33  1  0
 33 34  2  0
 34  3  1  0
 14  9  1  0
 20 15  1  0
 29 23  1  0
 31 11  1  0
  1 35  1  0
  1 36  1  0
  1 37  1  0
  2 38  1  0
  2 39  1  0
  4 40  1  0
 10 41  1  0
 13 42  1  0
 16 43  1  0
 17 44  1  0
 18 45  1  0
 19 46  1  0
 20 47  1  0
 21 48  1  0
 21 49  1  0
 23 50  1  1
 24 51  1  0
 24 52  1  0
 25 53  1  0
 25 54  1  0
 28 55  1  0
 33 56  1  0
M  END
>  <meeko>  (632) 
{"is_sidechain": [true], "free_energy": -10.65, "intermolecular_energy": 0.0, "internal_energy": -10.65, "cluster_size": 14, "cluster_id": 2, "rank_in_cluster": 1}

>  <_RMSD_MCS_to_ref>  (632) 
1.7561937377306767

$$$$
ligand
     RDKit          3D

 48 51  0  0  0  0  0  0  0  0999 V2000
   18.7970   18.8170    7.7190 C   0  0  0  0  0  0  0  0  0  0  0  0
   18.5280   17.3290    7.8810 C   0  0  0  0  0  0  0  0  0  0  0  0
   19.7820   16.5290    7.8790 C   0  0  0  0  0  0  0  0  0  0  0  0
   20.6050   16.2060    8.9410 C   0  0  0  0  0  0  0  0  0  0  0  0
   21.5960   15.4560    8.3790 N   0  0  0  0  0  0  0  0  0  0  0  0
   22.7960   14.6070    9.1930 S   0  0  0  0  0  6  0  0  0  0  0  0
   23.0820   13.4660    8.3430 O   0  0  0  0  0  0  0  0  0  0  0  0
   23.8160   15.5700    9.5560 O   0  0  0  0  0  0  0  0  0  0  0  0
   21.9940   14.0330   10.6730 C   0  0  0  0  0  0  0  0  0  0  0  0
   20.8040   13.2970   10.5240 C   0  0  0  0  0  0  0  0  0  0  0  0
   20.1110   12.8510   11.6390 C   0  0  0  0  0  0  0  0  0  0  0  0
   20.5840   13.1270   12.9200 C   0  0  0  0  0  0  0  0  0  0  0  0
   21.7850   13.8500   13.0680 C   0  0  0  0  0  0  0  0  0  0  0  0
   22.5280   14.2860   14.5580 S   0  0  0  0  0  0  0  0  0  0  0  0
   23.8330   15.0580   13.7850 C   0  0  0  0  0  0  0  0  0  0  0  0
   24.9140   15.7020   14.5170 C   0  0  0  0  0  0  0  0  0  0  0  0
   25.8550   15.0760   15.0000 O   0  0  0  0  0  0  0  0  0  0  0  0
   24.8370   17.0720   14.6370 N   0  0  0  0  0  0  0  0  0  0  0  0
   25.9160   17.8620   15.2070 C   0  0  2  0  0  0  0  0  0  0  0  0
   25.9400   17.7910   16.7310 C   0  0  0  0  0  0  0  0  0  0  0  0
   27.0660   18.6650   17.2610 C   0  0  0  0  0  0  0  0  0  0  0  0
   26.9390   20.0860   16.7640 C   0  0  0  0  0  0  0  0  0  0  0  0
   27.2770   21.0520   17.4390 O   0  0  0  0  0  0  0  0  0  0  0  0
   26.4470   20.2510   15.4930 N   0  0  0  0  0  0  0  0  0  0  0  0
   25.7330   19.3200   14.7800 C   0  0  0  0  0  0  0  0  0  0  0  0
   25.0020   19.6570   13.8490 O   0  0  0  0  0  0  0  0  0  0  0  0
   23.7070   14.9810   12.4120 C   0  0  0  0  0  0  0  0  0  0  0  0
   22.5170   14.3070   11.9670 C   0  0  0  0  0  0  0  0  0  0  0  0
   21.3690   15.3420    7.0450 C   0  0  0  0  0  0  0  0  0  0  0  0
   20.2690   15.9820    6.7080 N   0  0  0  0  0  0  0  0  0  0  0  0
   18.8815   19.2845    8.7111 H   0  0  0  0  0  0  0  0  0  0  0  0
   19.7359   18.9616    7.1643 H   0  0  0  0  0  0  0  0  0  0  0  0
   17.9682   19.2812    7.1643 H   0  0  0  0  0  0  0  0  0  0  0  0
   18.0046   17.1652    8.8345 H   0  0  0  0  0  0  0  0  0  0  0  0
   17.9163   17.0010    7.0276 H   0  0  0  0  0  0  0  0  0  0  0  0
   20.4878   16.4889    9.9975 H   0  0  0  0  0  0  0  0  0  0  0  0
   20.4213   13.0742    9.5171 H   0  0  0  0  0  0  0  0  0  0  0  0
   19.1821   12.2758   11.5114 H   0  0  0  0  0  0  0  0  0  0  0  0
   20.0272   12.7850   13.8049 H   0  0  0  0  0  0  0  0  0  0  0  0
   23.9862   17.5530   14.3119 H   0  0  0  0  0  0  0  0  0  0  0  0
   26.8684   17.4536   14.8382 H   0  0  0  0  0  0  0  0  0  0  0  0
   24.9793   18.1486   17.1300 H   0  0  0  0  0  0  0  0  0  0  0  0
   26.1035   16.7502   17.0473 H   0  0  0  0  0  0  0  0  0  0  0  0
   27.0318   18.6656   18.3605 H   0  0  0  0  0  0  0  0  0  0  0  0
   28.0216   18.2557   16.9013 H   0  0  0  0  0  0  0  0  0  0  0  0
   26.6299   21.1543   15.0331 H   0  0  0  0  0  0  0  0  0  0  0  0
   24.4520   15.3988   11.7189 H   0  0  0  0  0  0  0  0  0  0  0  0
   22.0140   14.7919    6.3441 H   0  0  0  0  0  0  0  0  0  0  0  0
  1  2  1  0
  2  3  1  0
  3  4  2  0
  4  5  1  0
  5  6  1  0
  6  7  2  0
  6  8  2  0
  6  9  1  0
  9 10  2  0
 10 11  1  0
 11 12  2  0
 12 13  1  0
 13 14  1  0
 14 15  1  0
 15 16  1  0
 16 17  2  0
 16 18  1  0
 18 19  1  0
 19 20  1  0
 20 21  1  0
 21 22  1  0
 22 23  2  0
 22 24  1  0
 24 25  1  0
 25 26  2  0
 15 27  2  0
 27 28  1  0
  5 29  1  0
 29 30  2  0
 30  3  1  0
 28  9  1  0
 28 13  2  0
 25 19  1  0
  1 31  1  0
  1 32  1  0
  1 33  1  0
  2 34  1  0
  2 35  1  0
  4 36  1  0
 10 37  1  0
 11 38  1  0
 12 39  1  0
 18 40  1  0
 19 41  1  6
 20 42  1  0
 20 43  1  0
 21 44  1  0
 21 45  1  0
 24 46  1  0
 27 47  1  0
 29 48  1  0
M  END
>  <meeko>  (633) 
{"is_sidechain": [true], "free_energy": -10.64, "intermolecular_energy": 0.0, "internal_energy": -10.64, "cluster_size": 19, "cluster_id": 1, "rank_in_cluster": 1}

>  <_RMSD_MCS_to_ref>  (633) 
0.649309291136016

$$$$
ligand
     RDKit          3D

 52 56  0  0  0  0  0  0  0  0999 V2000
   18.7970   18.8170    7.7190 C   0  0  0  0  0  0  0  0  0  0  0  0
   18.5280   17.3290    7.8810 C   0  0  0  0  0  0  0  0  0  0  0  0
   19.7290   16.5040    7.5740 C   0  0  0  0  0  0  0  0  0  0  0  0
   20.8770   16.3290    8.3210 C   0  0  0  0  0  0  0  0  0  0  0  0
   21.6280   15.4610    7.5810 N   0  0  0  0  0  0  0  0  0  0  0  0
   23.2010   14.9880    7.9070 S   0  0  0  0  0  6  0  0  0  0  0  0
   23.8430   14.7900    6.6200 O   0  0  0  0  0  0  0  0  0  0  0  0
   23.7000   15.9110    8.9080 O   0  0  0  0  0  0  0  0  0  0  0  0
   23.1920   13.4410    8.6610 C   0  0  0  0  0  0  0  0  0  0  0  0
   23.0440   12.2750    8.0030 N   0  0  0  0  0  0  0  0  0  0  0  0
   23.0590   11.4010    9.0210 N   0  0  0  0  0  0  0  0  0  0  0  0
   23.1960   11.8820   10.2630 N   0  0  0  0  0  0  0  0  0  0  0  0
   23.3010   13.2070   10.0540 C   0  0  0  0  0  0  0  0  0  0  0  0
   23.4700   14.1330   11.1680 C   0  0  0  0  0  0  0  0  0  0  0  0
   22.3220   14.6280   11.8320 C   0  0  0  0  0  0  0  0  0  0  0  0
   22.4370   15.5220   12.9000 C   0  0  0  0  0  0  0  0  0  0  0  0
   23.7100   15.8870   13.2870 C   0  0  0  0  0  0  0  0  0  0  0  0
   24.8550   15.4040   12.6560 C   0  0  0  0  0  0  0  0  0  0  0  0
   24.7520   14.5190   11.5950 C   0  0  0  0  0  0  0  0  0  0  0  0
   26.0700   15.9960   13.2880 C   0  0  0  0  0  0  0  0  0  0  0  0
   25.5160   16.7550   14.4010 N   0  0  0  0  0  0  0  0  0  0  0  0
   26.3400   17.6740   15.1770 C   0  0  2  0  0  0  0  0  0  0  0  0
   25.9550   17.7510   16.6540 C   0  0  0  0  0  0  0  0  0  0  0  0
   26.9120   18.6840   17.3770 C   0  0  0  0  0  0  0  0  0  0  0  0
   26.9250   20.0550   16.7420 C   0  0  0  0  0  0  0  0  0  0  0  0
   27.2730   21.0580   17.3600 O   0  0  0  0  0  0  0  0  0  0  0  0
   26.6110   20.1210   15.4090 N   0  0  0  0  0  0  0  0  0  0  0  0
   26.3530   19.0770   14.5490 C   0  0  0  0  0  0  0  0  0  0  0  0
   26.2510   19.2800   13.3400 O   0  0  0  0  0  0  0  0  0  0  0  0
   24.1280   16.7920   14.3630 C   0  0  0  0  0  0  0  0  0  0  0  0
   23.3690   17.4400   15.0550 O   0  0  0  0  0  0  0  0  0  0  0  0
   20.9760   15.1850    6.4230 C   0  0  0  0  0  0  0  0  0  0  0  0
   19.8060   15.7880    6.3950 N   0  0  0  0  0  0  0  0  0  0  0  0
   18.8815   19.2845    8.7111 H   0  0  0  0  0  0  0  0  0  0  0  0
   19.7359   18.9616    7.1643 H   0  0  0  0  0  0  0  0  0  0  0  0
   17.9682   19.2812    7.1643 H   0  0  0  0  0  0  0  0  0  0  0  0
   18.2212   17.1354    8.9194 H   0  0  0  0  0  0  0  0  0  0  0  0
   17.7357   17.0496    7.1709 H   0  0  0  0  0  0  0  0  0  0  0  0
   21.1289   16.7844    9.2901 H   0  0  0  0  0  0  0  0  0  0  0  0
   22.9677   10.3891    8.8518 H   0  0  0  0  0  0  0  0  0  0  0  0
   21.3239   14.3039   11.5022 H   0  0  0  0  0  0  0  0  0  0  0  0
   21.5479   15.9189   13.4118 H   0  0  0  0  0  0  0  0  0  0  0  0
   25.6523   14.1278   11.0986 H   0  0  0  0  0  0  0  0  0  0  0  0
   26.7537   15.2114   13.6445 H   0  0  0  0  0  0  0  0  0  0  0  0
   26.6665   16.6090   12.5963 H   0  0  0  0  0  0  0  0  0  0  0  0
   27.3568   17.2556   15.1447 H   0  0  0  0  0  0  0  0  0  0  0  0
   24.9283   18.1350   16.7461 H   0  0  0  0  0  0  0  0  0  0  0  0
   26.0118   16.7477   17.1013 H   0  0  0  0  0  0  0  0  0  0  0  0
   26.5967   18.7780   18.4266 H   0  0  0  0  0  0  0  0  0  0  0  0
   27.9254   18.2611   17.3121 H   0  0  0  0  0  0  0  0  0  0  0  0
   26.5622   21.0658   15.0016 H   0  0  0  0  0  0  0  0  0  0  0  0
   21.3705   14.5460    5.6192 H   0  0  0  0  0  0  0  0  0  0  0  0
  1  2  1  0
  2  3  1  0
  3  4  2  0
  4  5  1  0
  5  6  1  0
  6  7  2  0
  6  8  2  0
  6  9  1  0
  9 10  2  0
 10 11  1  0
 11 12  1  0
 12 13  2  0
 13 14  1  0
 14 15  2  0
 15 16  1  0
 16 17  2  0
 17 18  1  0
 18 19  2  0
 18 20  1  0
 20 21  1  0
 21 22  1  0
 22 23  1  0
 23 24  1  0
 24 25  1  0
 25 26  2  0
 25 27  1  0
 27 28  1  0
 28 29  2  0
 21 30  1  0
 30 31  2  0
  5 32  1  0
 32 33  2  0
 33  3  1  0
 13  9  1  0
 19 14  1  0
 28 22  1  0
 30 17  1  0
  1 34  1  0
  1 35  1  0
  1 36  1  0
  2 37  1  0
  2 38  1  0
  4 39  1  0
 11 40  1  0
 15 41  1  0
 16 42  1  0
 19 43  1  0
 20 44  1  0
 20 45  1  0
 22 46  1  1
 23 47  1  0
 23 48  1  0
 24 49  1  0
 24 50  1  0
 27 51  1  0
 32 52  1  0
M  END
>  <meeko>  (634) 
{"is_sidechain": [true], "free_energy": -10.64, "intermolecular_energy": 0.0, "internal_energy": -10.64, "cluster_size": 20, "cluster_id": 1, "rank_in_cluster": 1}

>  <_RMSD_MCS_to_ref>  (634) 
1.1907548959471985

$$$$
ligand
     RDKit          3D

 55 59  0  0  0  0  0  0  0  0999 V2000
   18.7970   18.8170    7.7190 C   0  0  0  0  0  0  0  0  0  0  0  0
   18.5280   17.3290    7.8810 C   0  0  0  0  0  0  0  0  0  0  0  0
   19.7550   16.5140    7.6760 C   0  0  0  0  0  0  0  0  0  0  0  0
   20.6510   16.0420    8.6160 C   0  0  0  0  0  0  0  0  0  0  0  0
   21.5910   15.3820    7.8770 N   0  0  0  0  0  0  0  0  0  0  0  0
   22.9360   14.5850    8.4850 S   0  0  0  0  0  6  0  0  0  0  0  0
   23.5850   14.0520    7.3000 O   0  0  0  0  0  0  0  0  0  0  0  0
   23.6130   15.5110    9.3700 O   0  0  0  0  0  0  0  0  0  0  0  0
   22.3470   13.2270    9.4390 C   0  0  0  0  0  0  0  0  0  0  0  0
   21.4620   12.3290    8.8230 C   0  0  0  0  0  0  0  0  0  0  0  0
   20.9350   11.2710    9.5540 C   0  0  0  0  0  0  0  0  0  0  0  0
   21.3060   11.1520   10.8790 C   0  0  0  0  0  0  0  0  0  0  0  0
   22.1570   12.0010   11.4940 N   0  0  0  0  0  0  0  0  0  0  0  0
   22.6950   13.0230   10.7710 C   0  0  0  0  0  0  0  0  0  0  0  0
   23.6360   13.8320   11.5550 C   0  0  0  0  0  0  0  0  0  0  0  0
   25.0340   13.6510   11.3820 C   0  0  0  0  0  0  0  0  0  0  0  0
   25.9730   14.3820   12.1210 C   0  0  0  0  0  0  0  0  0  0  0  0
   25.5030   15.3110   13.0260 C   0  0  0  0  0  0  0  0  0  0  0  0
   24.1330   15.5170   13.1720 C   0  0  0  0  0  0  0  0  0  0  0  0
   23.1860   14.8090   12.4550 C   0  0  0  0  0  0  0  0  0  0  0  0
   23.9350   16.5620   14.1810 C   0  0  0  0  0  0  0  0  0  0  0  0
   22.8580   17.0240   14.5080 O   0  0  0  0  0  0  0  0  0  0  0  0
   25.1900   16.8940   14.6670 N   0  0  0  0  0  0  0  0  0  0  0  0
   25.4070   18.0550   15.5210 C   0  0  1  0  0  0  0  0  0  0  0  0
   26.2350   17.7210   16.7590 C   0  0  0  0  0  0  0  0  0  0  0  0
   26.3400   18.9530   17.6450 C   0  0  0  0  0  0  0  0  0  0  0  0
   26.9110   20.1260   16.8810 C   0  0  0  0  0  0  0  0  0  0  0  0
   27.6560   20.9500   17.4030 O   0  0  0  0  0  0  0  0  0  0  0  0
   26.5400   20.2410   15.5660 N   0  0  0  0  0  0  0  0  0  0  0  0
   26.0780   19.2170   14.7690 C   0  0  0  0  0  0  0  0  0  0  0  0
   26.2230   19.2680   13.5500 O   0  0  0  0  0  0  0  0  0  0  0  0
   26.2580   16.2220   13.9370 C   0  0  0  0  0  0  0  0  0  0  0  0
   21.2350   15.4140    6.5660 C   0  0  0  0  0  0  0  0  0  0  0  0
   20.1340   16.1210    6.4060 N   0  0  0  0  0  0  0  0  0  0  0  0
   18.8815   19.2845    8.7111 H   0  0  0  0  0  0  0  0  0  0  0  0
   19.7359   18.9616    7.1643 H   0  0  0  0  0  0  0  0  0  0  0  0
   17.9682   19.2812    7.1643 H   0  0  0  0  0  0  0  0  0  0  0  0
   18.1459   17.1459    8.8961 H   0  0  0  0  0  0  0  0  0  0  0  0
   17.7926   17.0324    7.1187 H   0  0  0  0  0  0  0  0  0  0  0  0
   20.6154   16.1687    9.7081 H   0  0  0  0  0  0  0  0  0  0  0  0
   21.1866   12.4619    7.7663 H   0  0  0  0  0  0  0  0  0  0  0  0
   20.2439   10.5508    9.0917 H   0  0  0  0  0  0  0  0  0  0  0  0
   20.8857   10.3211   11.4647 H   0  0  0  0  0  0  0  0  0  0  0  0
   25.3899   12.9151   10.6460 H   0  0  0  0  0  0  0  0  0  0  0  0
   27.0523   14.2202   11.9838 H   0  0  0  0  0  0  0  0  0  0  0  0
   22.1118   15.0062   12.5866 H   0  0  0  0  0  0  0  0  0  0  0  0
   24.4025   18.3697   15.8403 H   0  0  0  0  0  0  0  0  0  0  0  0
   25.7482   16.9079   17.3175 H   0  0  0  0  0  0  0  0  0  0  0  0
   27.2422   17.4026   16.4521 H   0  0  0  0  0  0  0  0  0  0  0  0
   25.3376   19.2175   18.0128 H   0  0  0  0  0  0  0  0  0  0  0  0
   27.0118   18.7229   18.4850 H   0  0  0  0  0  0  0  0  0  0  0  0
   26.6132   21.1744   15.1368 H   0  0  0  0  0  0  0  0  0  0  0  0
   26.8638   16.9417   13.3669 H   0  0  0  0  0  0  0  0  0  0  0  0
   26.9720   15.6973   14.5888 H   0  0  0  0  0  0  0  0  0  0  0  0
   21.7874   14.9198    5.7532 H   0  0  0  0  0  0  0  0  0  0  0  0
  1  2  1  0
  2  3  1  0
  3  4  2  0
  4  5  1  0
  5  6  1  0
  6  7  2  0
  6  8  2  0
  6  9  1  0
  9 10  2  0
 10 11  1  0
 11 12  2  0
 12 13  1  0
 13 14  2  0
 14 15  1  0
 15 16  2  0
 16 17  1  0
 17 18  2  0
 18 19  1  0
 19 20  2  0
 19 21  1  0
 21 22  2  0
 21 23  1  0
 23 24  1  0
 24 25  1  0
 25 26  1  0
 26 27  1  0
 27 28  2  0
 27 29  1  0
 29 30  1  0
 30 31  2  0
 23 32  1  0
  5 33  1  0
 33 34  2  0
 34  3  1  0
 14  9  1  0
 20 15  1  0
 30 24  1  0
 32 18  1  0
  1 35  1  0
  1 36  1  0
  1 37  1  0
  2 38  1  0
  2 39  1  0
  4 40  1  0
 10 41  1  0
 11 42  1  0
 12 43  1  0
 16 44  1  0
 17 45  1  0
 20 46  1  0
 24 47  1  1
 25 48  1  0
 25 49  1  0
 26 50  1  0
 26 51  1  0
 29 52  1  0
 32 53  1  0
 32 54  1  0
 33 55  1  0
M  END
>  <meeko>  (635) 
{"is_sidechain": [true], "free_energy": -10.64, "intermolecular_energy": 0.0, "internal_energy": -10.64, "cluster_size": 18, "cluster_id": 1, "rank_in_cluster": 1}

>  <_RMSD_MCS_to_ref>  (635) 
1.1378161587493434

$$$$
ligand
     RDKit          3D

 57 61  0  0  0  0  0  0  0  0999 V2000
   18.9090   19.1540    7.5370 C   0  0  0  0  0  0  0  0  0  0  0  0
   18.7730   17.6460    7.6780 C   0  0  0  0  0  0  0  0  0  0  0  0
   19.9890   16.9260    7.2100 C   0  0  0  0  0  0  0  0  0  0  0  0
   21.1280   16.5960    7.9170 C   0  0  0  0  0  0  0  0  0  0  0  0
   21.9050   15.9340    7.0100 N   0  0  0  0  0  0  0  0  0  0  0  0
   23.5050   15.4740    7.2370 S   0  0  0  0  0  6  0  0  0  0  0  0
   24.3120   16.5570    6.7090 O   0  0  0  0  0  0  0  0  0  0  0  0
   23.6000   14.1190    6.7300 O   0  0  0  0  0  0  0  0  0  0  0  0
   23.6830   15.4360    8.9960 C   0  0  0  0  0  0  0  0  0  0  0  0
   24.4060   16.4330    9.6420 C   0  0  0  0  0  0  0  0  0  0  0  0
   24.5300   16.3860   11.0290 C   0  0  0  0  0  0  0  0  0  0  0  0
   23.9340   15.3460   11.7870 C   0  0  0  0  0  0  0  0  0  0  0  0
   24.0130   15.2340   13.1980 C   0  0  0  0  0  0  0  0  0  0  0  0
   24.7610   16.2250   14.0010 C   0  0  0  0  0  0  0  0  0  0  0  0
   25.9370   16.0450   14.2850 O   0  0  0  0  0  0  0  0  0  0  0  0
   24.0440   17.3340   14.3790 N   0  0  0  0  0  0  0  0  0  0  0  0
   24.5970   18.3310   15.2830 C   0  0  1  0  0  0  0  0  0  0  0  0
   25.6100   17.7290   16.2500 C   0  0  0  0  0  0  0  0  0  0  0  0
   26.1720   18.8260   17.1400 C   0  0  0  0  0  0  0  0  0  0  0  0
   26.7680   19.9460   16.3200 C   0  0  0  0  0  0  0  0  0  0  0  0
   27.7490   20.5850   16.6900 O   0  0  0  0  0  0  0  0  0  0  0  0
   26.1390   20.2460   15.1370 N   0  0  0  0  0  0  0  0  0  0  0  0
   25.2810   19.4210   14.4530 C   0  0  0  0  0  0  0  0  0  0  0  0
   25.0790   19.5690   13.2480 O   0  0  0  0  0  0  0  0  0  0  0  0
   23.4020   14.1660   13.8340 C   0  0  0  0  0  0  0  0  0  0  0  0
   22.7050   13.2580   13.0590 C   0  0  0  0  0  0  0  0  0  0  0  0
   22.5750   13.3280   11.7260 N   0  0  0  0  0  0  0  0  0  0  0  0
   23.1870   14.3480   11.1060 C   0  0  0  0  0  0  0  0  0  0  0  0
   23.0710   14.4140    9.7260 C   0  0  0  0  0  0  0  0  0  0  0  0
   22.0830   12.1840   13.9060 C   0  0  0  0  0  0  0  0  0  0  0  0
   22.9150   12.3150   15.1870 C   0  0  0  0  0  0  0  0  0  0  0  0
   23.3400   13.7870   15.2790 C   0  0  0  0  0  0  0  0  0  0  0  0
   21.2720   15.9190    5.8080 C   0  0  0  0  0  0  0  0  0  0  0  0
   20.0950   16.5040    5.8990 N   0  0  0  0  0  0  0  0  0  0  0  0
   18.9504   19.6134    8.5356 H   0  0  0  0  0  0  0  0  0  0  0  0
   19.8320   19.3891    6.9867 H   0  0  0  0  0  0  0  0  0  0  0  0
   18.0430   19.5504    6.9867 H   0  0  0  0  0  0  0  0  0  0  0  0
   18.6031   17.4031    8.7373 H   0  0  0  0  0  0  0  0  0  0  0  0
   17.9275   17.3231    7.0528 H   0  0  0  0  0  0  0  0  0  0  0  0
   21.3572   16.8160    8.9701 H   0  0  0  0  0  0  0  0  0  0  0  0
   24.8728   17.2462    9.0668 H   0  0  0  0  0  0  0  0  0  0  0  0
   25.1013   17.1709   11.5462 H   0  0  0  0  0  0  0  0  0  0  0  0
   23.0900   17.4632   14.0129 H   0  0  0  0  0  0  0  0  0  0  0  0
   23.7719   18.7467   15.8800 H   0  0  0  0  0  0  0  0  0  0  0  0
   25.1161   16.9684   16.8725 H   0  0  0  0  0  0  0  0  0  0  0  0
   26.4278   17.2618   15.6817 H   0  0  0  0  0  0  0  0  0  0  0  0
   25.3621   19.2309   17.7646 H   0  0  0  0  0  0  0  0  0  0  0  0
   26.9663   18.3929   17.7657 H   0  0  0  0  0  0  0  0  0  0  0  0
   26.3275   21.1717   14.7265 H   0  0  0  0  0  0  0  0  0  0  0  0
   22.4863   13.6476    9.1961 H   0  0  0  0  0  0  0  0  0  0  0  0
   21.0172   12.3816   14.0929 H   0  0  0  0  0  0  0  0  0  0  0  0
   22.0956   11.1813   13.4539 H   0  0  0  0  0  0  0  0  0  0  0  0
   22.3105   12.0381   16.0633 H   0  0  0  0  0  0  0  0  0  0  0  0
   23.7895   11.6481   15.1645 H   0  0  0  0  0  0  0  0  0  0  0  0
   22.5950   14.3879   15.8211 H   0  0  0  0  0  0  0  0  0  0  0  0
   24.2790   13.9509   15.8280 H   0  0  0  0  0  0  0  0  0  0  0  0
   21.6844   15.4799    4.8876 H   0  0  0  0  0  0  0  0  0  0  0  0
  1  2  1  0
  2  3  1  0
  3  4  2  0
  4  5  1  0
  5  6  1  0
  6  7  2  0
  6  8  2  0
  6  9  1  0
  9 10  2  0
 10 11  1  0
 11 12  2  0
 12 13  1  0
 13 14  1  0
 14 15  2  0
 14 16  1  0
 16 17  1  0
 17 18  1  0
 18 19  1  0
 19 20  1  0
 20 21  2  0
 20 22  1  0
 22 23  1  0
 23 24  2  0
 13 25  2  0
 25 26  1  0
 26 27  2  0
 27 28  1  0
 28 29  2  0
 26 30  1  0
 30 31  1  0
 31 32  1  0
  5 33  1  0
 33 34  2  0
 34  3  1  0
 29  9  1  0
 28 12  1  0
 23 17  1  0
 32 25  1  0
  1 35  1  0
  1 36  1  0
  1 37  1  0
  2 38  1  0
  2 39  1  0
  4 40  1  0
 10 41  1  0
 11 42  1  0
 16 43  1  0
 17 44  1  1
 18 45  1  0
 18 46  1  0
 19 47  1  0
 19 48  1  0
 22 49  1  0
 29 50  1  0
 30 51  1  0
 30 52  1  0
 31 53  1  0
 31 54  1  0
 32 55  1  0
 32 56  1  0
 33 57  1  0
M  END
>  <meeko>  (636) 
{"is_sidechain": [true], "free_energy": -10.64, "intermolecular_energy": 0.0, "internal_energy": -10.64, "cluster_size": 20, "cluster_id": 1, "rank_in_cluster": 1}

>  <_RMSD_MCS_to_ref>  (636) 
0.523930219590357

$$$$
ligand
     RDKit          3D

 46 49  0  0  0  0  0  0  0  0999 V2000
   18.9090   19.1540    7.5370 C   0  0  0  0  0  0  0  0  0  0  0  0
   18.7730   17.6460    7.6780 C   0  0  0  0  0  0  0  0  0  0  0  0
   20.0130   16.9300    7.2720 C   0  0  0  0  0  0  0  0  0  0  0  0
   21.0480   16.4660    8.0620 C   0  0  0  0  0  0  0  0  0  0  0  0
   21.8980   15.8620    7.1800 N   0  0  0  0  0  0  0  0  0  0  0  0
   23.4620   15.3370    7.5250 S   0  0  0  0  0  6  0  0  0  0  0  0
   23.7620   14.3590    6.4990 O   0  0  0  0  0  0  0  0  0  0  0  0
   24.2380   16.5520    7.6720 O   0  0  0  0  0  0  0  0  0  0  0  0
   23.3750   14.5830    8.9690 O   0  0  0  0  0  0  0  0  0  0  0  0
   23.4290   15.2700   10.1520 C   0  0  0  0  0  0  0  0  0  0  0  0
   22.4020   15.3610   11.1040 C   0  0  0  0  0  0  0  0  0  0  0  0
   22.4980   16.0520   12.2670 N   0  0  0  0  0  0  0  0  0  0  0  0
   23.6790   16.6620   12.4550 C   0  0  0  0  0  0  0  0  0  0  0  0
   24.7550   16.6420   11.5830 C   0  0  0  0  0  0  0  0  0  0  0  0
   24.6380   15.9320   10.4050 C   0  0  0  0  0  0  0  0  0  0  0  0
   25.8890   17.4250   12.1430 C   0  0  0  0  0  0  0  0  0  0  0  0
   25.3310   17.9740   13.3710 N   0  0  0  0  0  0  0  0  0  0  0  0
   26.1340   18.6000   14.4150 C   0  0  2  0  0  0  0  0  0  0  0  0
   25.7880   18.0830   15.8090 C   0  0  0  0  0  0  0  0  0  0  0  0
   26.7230   18.7160   16.8290 C   0  0  0  0  0  0  0  0  0  0  0  0
   26.6710   20.2250   16.7520 C   0  0  0  0  0  0  0  0  0  0  0  0
   26.7400   20.9360   17.7490 O   0  0  0  0  0  0  0  0  0  0  0  0
   26.5520   20.7700   15.4990 N   0  0  0  0  0  0  0  0  0  0  0  0
   26.0040   20.1330   14.4100 C   0  0  0  0  0  0  0  0  0  0  0  0
   25.4380   20.7760   13.5290 O   0  0  0  0  0  0  0  0  0  0  0  0
   24.0540   17.4740   13.6300 C   0  0  0  0  0  0  0  0  0  0  0  0
   23.3880   17.6690   14.6300 O   0  0  0  0  0  0  0  0  0  0  0  0
   21.4260   16.0360    5.9190 C   0  0  0  0  0  0  0  0  0  0  0  0
   20.2680   16.6630    5.9410 N   0  0  0  0  0  0  0  0  0  0  0  0
   18.9504   19.6134    8.5356 H   0  0  0  0  0  0  0  0  0  0  0  0
   19.8320   19.3891    6.9867 H   0  0  0  0  0  0  0  0  0  0  0  0
   18.0430   19.5504    6.9867 H   0  0  0  0  0  0  0  0  0  0  0  0
   18.5536   17.4067    8.7290 H   0  0  0  0  0  0  0  0  0  0  0  0
   17.9598   17.3165    7.0146 H   0  0  0  0  0  0  0  0  0  0  0  0
   21.1612   16.5614    9.1520 H   0  0  0  0  0  0  0  0  0  0  0  0
   21.4576   14.8378   10.8932 H   0  0  0  0  0  0  0  0  0  0  0  0
   25.4693   15.8872    9.6860 H   0  0  0  0  0  0  0  0  0  0  0  0
   26.7511   16.7758   12.3558 H   0  0  0  0  0  0  0  0  0  0  0  0
   26.2661   18.1959   11.4548 H   0  0  0  0  0  0  0  0  0  0  0  0
   27.1729   18.3246   14.1811 H   0  0  0  0  0  0  0  0  0  0  0  0
   24.7480   18.3473   16.0508 H   0  0  0  0  0  0  0  0  0  0  0  0
   25.9027   16.9893   15.8343 H   0  0  0  0  0  0  0  0  0  0  0  0
   26.4227   18.3972   17.8381 H   0  0  0  0  0  0  0  0  0  0  0  0
   27.7507   18.3902   16.6104 H   0  0  0  0  0  0  0  0  0  0  0  0
   26.8997   21.7300   15.3631 H   0  0  0  0  0  0  0  0  0  0  0  0
   21.9393   15.7000    5.0060 H   0  0  0  0  0  0  0  0  0  0  0  0
  1  2  1  0
  2  3  1  0
  3  4  2  0
  4  5  1  0
  5  6  1  0
  6  7  2  0
  6  8  2  0
  6  9  1  0
  9 10  1  0
 10 11  2  0
 11 12  1  0
 12 13  2  0
 13 14  1  0
 14 15  2  0
 14 16  1  0
 16 17  1  0
 17 18  1  0
 18 19  1  0
 19 20  1  0
 20 21  1  0
 21 22  2  0
 21 23  1  0
 23 24  1  0
 24 25  2  0
 17 26  1  0
 26 27  2  0
  5 28  1  0
 28 29  2  0
 29  3  1  0
 15 10  1  0
 24 18  1  0
 26 13  1  0
  1 30  1  0
  1 31  1  0
  1 32  1  0
  2 33  1  0
  2 34  1  0
  4 35  1  0
 11 36  1  0
 15 37  1  0
 16 38  1  0
 16 39  1  0
 18 40  1  6
 19 41  1  0
 19 42  1  0
 20 43  1  0
 20 44  1  0
 23 45  1  0
 28 46  1  0
M  END
>  <meeko>  (637) 
{"is_sidechain": [true], "free_energy": -10.64, "intermolecular_energy": 0.0, "internal_energy": -10.64, "cluster_size": 20, "cluster_id": 1, "rank_in_cluster": 1}

>  <_RMSD_MCS_to_ref>  (637) 
1.6146116295523556

$$$$
ligand
     RDKit          3D

 48 51  0  0  0  0  0  0  0  0999 V2000
   18.9090   19.1540    7.5370 C   0  0  0  0  0  0  0  0  0  0  0  0
   18.7730   17.6460    7.6780 C   0  0  0  0  0  0  0  0  0  0  0  0
   20.0920   16.9580    7.6430 C   0  0  0  0  0  0  0  0  0  0  0  0
   20.9510   16.6750    8.6870 C   0  0  0  0  0  0  0  0  0  0  0  0
   22.0010   16.0360    8.0920 N   0  0  0  0  0  0  0  0  0  0  0  0
   23.4600   15.6390    8.8230 S   0  0  0  0  0  6  0  0  0  0  0  0
   24.2860   16.8300    8.7200 O   0  0  0  0  0  0  0  0  0  0  0  0
   23.8630   14.3590    8.2780 O   0  0  0  0  0  0  0  0  0  0  0  0
   23.0530   15.4190   10.5290 C   0  0  0  0  0  0  0  0  0  0  0  0
   23.9040   15.9320   11.5200 C   0  0  0  0  0  0  0  0  0  0  0  0
   23.6140   15.7680   12.8830 C   0  0  0  0  0  0  0  0  0  0  0  0
   24.5830   16.3190   13.8700 C   0  0  0  0  0  0  0  0  0  0  0  0
   25.1740   15.5620   14.6330 O   0  0  0  0  0  0  0  0  0  0  0  0
   24.7930   17.6780   13.8470 N   0  0  0  0  0  0  0  0  0  0  0  0
   25.8250   18.2930   14.6730 C   0  0  2  0  0  0  0  0  0  0  0  0
   25.6290   17.9970   16.1560 C   0  0  0  0  0  0  0  0  0  0  0  0
   26.7140   18.6960   16.9600 C   0  0  0  0  0  0  0  0  0  0  0  0
   26.7340   20.1800   16.6800 C   0  0  0  0  0  0  0  0  0  0  0  0
   27.0350   21.0090   17.5350 O   0  0  0  0  0  0  0  0  0  0  0  0
   26.4300   20.5700   15.4000 N   0  0  0  0  0  0  0  0  0  0  0  0
   25.7850   19.8090   14.4570 C   0  0  0  0  0  0  0  0  0  0  0  0
   25.2280   20.3280   13.4900 O   0  0  0  0  0  0  0  0  0  0  0  0
   22.4610   15.0760   13.2910 C   0  0  0  0  0  0  0  0  0  0  0  0
   21.5930   14.5810   12.3080 C   0  0  0  0  0  0  0  0  0  0  0  0
   20.4160   13.8920   12.4510 N   0  0  0  0  0  0  0  0  0  0  0  0
   19.9900   13.6680   11.2290 C   0  0  0  0  0  0  0  0  0  0  0  0
   20.8480   14.1780   10.2970 N   0  0  0  0  0  0  0  0  0  0  0  0
   21.8970   14.7640   10.9660 C   0  0  0  0  0  0  0  0  0  0  0  0
   21.7870   15.9780    6.7530 C   0  0  0  0  0  0  0  0  0  0  0  0
   20.6270   16.5200    6.4470 N   0  0  0  0  0  0  0  0  0  0  0  0
   18.9504   19.6134    8.5356 H   0  0  0  0  0  0  0  0  0  0  0  0
   19.8320   19.3891    6.9867 H   0  0  0  0  0  0  0  0  0  0  0  0
   18.0430   19.5504    6.9867 H   0  0  0  0  0  0  0  0  0  0  0  0
   18.2820   17.4225    8.6366 H   0  0  0  0  0  0  0  0  0  0  0  0
   18.1777   17.2793    6.8288 H   0  0  0  0  0  0  0  0  0  0  0  0
   20.8194   16.9104    9.7534 H   0  0  0  0  0  0  0  0  0  0  0  0
   24.8148   16.4724   11.2229 H   0  0  0  0  0  0  0  0  0  0  0  0
   24.2121   18.2705   13.2367 H   0  0  0  0  0  0  0  0  0  0  0  0
   26.7965   17.8721   14.3746 H   0  0  0  0  0  0  0  0  0  0  0  0
   24.6423   18.3632   16.4757 H   0  0  0  0  0  0  0  0  0  0  0  0
   25.6895   16.9117   16.3244 H   0  0  0  0  0  0  0  0  0  0  0  0
   26.5251   18.5360   18.0318 H   0  0  0  0  0  0  0  0  0  0  0  0
   27.6876   18.2745   16.6694 H   0  0  0  0  0  0  0  0  0  0  0  0
   26.7115   21.5208   15.1213 H   0  0  0  0  0  0  0  0  0  0  0  0
   22.2443   14.9260   14.3590 H   0  0  0  0  0  0  0  0  0  0  0  0
   19.0583   13.1359   10.9865 H   0  0  0  0  0  0  0  0  0  0  0  0
   20.7304   14.1320    9.2748 H   0  0  0  0  0  0  0  0  0  0  0  0
   22.4854   15.5393    6.0251 H   0  0  0  0  0  0  0  0  0  0  0  0
  1  2  1  0
  2  3  1  0
  3  4  2  0
  4  5  1  0
  5  6  1  0
  6  7  2  0
  6  8  2  0
  6  9  1  0
  9 10  2  0
 10 11  1  0
 11 12  1  0
 12 13  2  0
 12 14  1  0
 14 15  1  0
 15 16  1  0
 16 17  1  0
 17 18  1  0
 18 19  2  0
 18 20  1  0
 20 21  1  0
 21 22  2  0
 11 23  2  0
 23 24  1  0
 24 25  1  0
 25 26  2  0
 26 27  1  0
 27 28  1  0
  5 29  1  0
 29 30  2  0
 30  3  1  0
 28  9  1  0
 21 15  1  0
 28 24  2  0
  1 31  1  0
  1 32  1  0
  1 33  1  0
  2 34  1  0
  2 35  1  0
  4 36  1  0
 10 37  1  0
 14 38  1  0
 15 39  1  6
 16 40  1  0
 16 41  1  0
 17 42  1  0
 17 43  1  0
 20 44  1  0
 23 45  1  0
 26 46  1  0
 27 47  1  0
 29 48  1  0
M  END
>  <meeko>  (638) 
{"is_sidechain": [true], "free_energy": -10.64, "intermolecular_energy": 0.0, "internal_energy": -10.64, "cluster_size": 19, "cluster_id": 1, "rank_in_cluster": 1}

>  <_RMSD_MCS_to_ref>  (638) 
0.6003076988789442

$$$$
ligand
     RDKit          3D

 48 51  0  0  0  0  0  0  0  0999 V2000
   18.9090   19.1540    7.5370 C   0  0  0  0  0  0  0  0  0  0  0  0
   18.7730   17.6460    7.6780 C   0  0  0  0  0  0  0  0  0  0  0  0
   20.0870   16.9830    7.9010 C   0  0  0  0  0  0  0  0  0  0  0  0
   20.7240   16.7010    9.0930 C   0  0  0  0  0  0  0  0  0  0  0  0
   21.8700   16.0600    8.7180 N   0  0  0  0  0  0  0  0  0  0  0  0
   23.1460   15.6370    9.7280 S   0  0  0  0  0  6  0  0  0  0  0  0
   23.6570   14.3780    9.2190 O   0  0  0  0  0  0  0  0  0  0  0  0
   23.9710   16.8290    9.8300 O   0  0  0  0  0  0  0  0  0  0  0  0
   22.4030   15.3430   11.3140 C   0  0  0  0  0  0  0  0  0  0  0  0
   21.5880   14.2340   11.4800 C   0  0  0  0  0  0  0  0  0  0  0  0
   21.0960   14.0730   12.7750 C   0  0  0  0  0  0  0  0  0  0  0  0
   20.2730   13.0980   13.2950 N   0  0  0  0  0  0  0  0  0  0  0  0
   20.0510   13.3300   14.6250 C   0  0  0  0  0  0  0  0  0  0  0  0
   20.7370   14.4700   14.9740 C   0  0  0  0  0  0  0  0  0  0  0  0
   21.4080   14.9590   13.8140 C   0  0  0  0  0  0  0  0  0  0  0  0
   22.2430   16.0550   13.5300 C   0  0  0  0  0  0  0  0  0  0  0  0
   22.6530   17.0570   14.5580 C   0  0  0  0  0  0  0  0  0  0  0  0
   21.9400   17.3670   15.5030 O   0  0  0  0  0  0  0  0  0  0  0  0
   23.9060   17.5960   14.3530 N   0  0  0  0  0  0  0  0  0  0  0  0
   24.4890   18.5900   15.2330 C   0  0  1  0  0  0  0  0  0  0  0  0
   25.5400   17.9620   16.1400 C   0  0  0  0  0  0  0  0  0  0  0  0
   26.1410   19.0310   17.0390 C   0  0  0  0  0  0  0  0  0  0  0  0
   26.7090   20.1740   16.2320 C   0  0  0  0  0  0  0  0  0  0  0  0
   27.6620   20.8420   16.6200 O   0  0  0  0  0  0  0  0  0  0  0  0
   26.0740   20.4690   15.0530 N   0  0  0  0  0  0  0  0  0  0  0  0
   25.1220   19.7150   14.4070 C   0  0  0  0  0  0  0  0  0  0  0  0
   24.7940   19.9780   13.2520 O   0  0  0  0  0  0  0  0  0  0  0  0
   22.7370   16.2420   12.2690 N   0  0  0  0  0  0  0  0  0  0  0  0
   21.9280   16.0110    7.3610 C   0  0  0  0  0  0  0  0  0  0  0  0
   20.8570   16.5670    6.8300 N   0  0  0  0  0  0  0  0  0  0  0  0
   18.9504   19.6134    8.5356 H   0  0  0  0  0  0  0  0  0  0  0  0
   19.8320   19.3891    6.9867 H   0  0  0  0  0  0  0  0  0  0  0  0
   18.0430   19.5504    6.9867 H   0  0  0  0  0  0  0  0  0  0  0  0
   18.1161   17.4276    8.5328 H   0  0  0  0  0  0  0  0  0  0  0  0
   18.3515   17.2550    6.7402 H   0  0  0  0  0  0  0  0  0  0  0  0
   20.3856   16.9385   10.1123 H   0  0  0  0  0  0  0  0  0  0  0  0
   21.3497   13.5402   10.6603 H   0  0  0  0  0  0  0  0  0  0  0  0
   19.8818   12.3093   12.7603 H   0  0  0  0  0  0  0  0  0  0  0  0
   19.4337   12.7144   15.2958 H   0  0  0  0  0  0  0  0  0  0  0  0
   20.7636   14.9259   15.9747 H   0  0  0  0  0  0  0  0  0  0  0  0
   24.4515   17.2784   13.5390 H   0  0  0  0  0  0  0  0  0  0  0  0
   23.6882   19.0055   15.8623 H   0  0  0  0  0  0  0  0  0  0  0  0
   25.0710   17.1835   16.7597 H   0  0  0  0  0  0  0  0  0  0  0  0
   26.3335   17.5135   15.5243 H   0  0  0  0  0  0  0  0  0  0  0  0
   25.3577   19.4189   17.7068 H   0  0  0  0  0  0  0  0  0  0  0  0
   26.9582   18.5767   17.6185 H   0  0  0  0  0  0  0  0  0  0  0  0
   26.3398   21.3550   14.6001 H   0  0  0  0  0  0  0  0  0  0  0  0
   22.7543   15.5686    6.7853 H   0  0  0  0  0  0  0  0  0  0  0  0
  1  2  1  0
  2  3  1  0
  3  4  2  0
  4  5  1  0
  5  6  1  0
  6  7  2  0
  6  8  2  0
  6  9  1  0
  9 10  2  0
 10 11  1  0
 11 12  1  0
 12 13  1  0
 13 14  2  0
 14 15  1  0
 15 16  1  0
 16 17  1  0
 17 18  2  0
 17 19  1  0
 19 20  1  0
 20 21  1  0
 21 22  1  0
 22 23  1  0
 23 24  2  0
 23 25  1  0
 25 26  1  0
 26 27  2  0
 16 28  2  0
  5 29  1  0
 29 30  2  0
 30  3  1  0
 28  9  1  0
 15 11  2  0
 26 20  1  0
  1 31  1  0
  1 32  1  0
  1 33  1  0
  2 34  1  0
  2 35  1  0
  4 36  1  0
 10 37  1  0
 12 38  1  0
 13 39  1  0
 14 40  1  0
 19 41  1  0
 20 42  1  1
 21 43  1  0
 21 44  1  0
 22 45  1  0
 22 46  1  0
 25 47  1  0
 29 48  1  0
M  END
>  <meeko>  (639) 
{"is_sidechain": [true], "free_energy": -10.64, "intermolecular_energy": 0.0, "internal_energy": -10.64, "cluster_size": 19, "cluster_id": 1, "rank_in_cluster": 1}

>  <_RMSD_MCS_to_ref>  (639) 
0.5766951823392783

$$$$
ligand
     RDKit          3D

 47 50  0  0  0  0  0  0  0  0999 V2000
   18.9090   19.1540    7.5370 C   0  0  0  0  0  0  0  0  0  0  0  0
   18.7730   17.6460    7.6780 C   0  0  0  0  0  0  0  0  0  0  0  0
   20.0940   16.9670    7.7820 C   0  0  0  0  0  0  0  0  0  0  0  0
   20.5420   16.0950    8.7540 C   0  0  0  0  0  0  0  0  0  0  0  0
   21.8120   15.7760    8.3630 N   0  0  0  0  0  0  0  0  0  0  0  0
   22.9320   14.9070    9.2720 S   0  0  0  0  0  6  0  0  0  0  0  0
   23.1140   13.6610    8.5500 O   0  0  0  0  0  0  0  0  0  0  0  0
   24.0290   15.8200    9.5260 O   0  0  0  0  0  0  0  0  0  0  0  0
   22.1900   14.5170   10.8180 C   0  0  0  0  0  0  0  0  0  0  0  0
   21.3030   13.4270   10.8940 C   0  0  0  0  0  0  0  0  0  0  0  0
   20.7000   13.0770   12.1100 C   0  0  0  0  0  0  0  0  0  0  0  0
   20.9580   13.7920   13.2880 C   0  0  0  0  0  0  0  0  0  0  0  0
   21.8380   14.8610   13.1650 C   0  0  0  0  0  0  0  0  0  0  0  0
   22.2590   15.7090   14.1520 O   0  0  0  0  0  0  0  0  0  0  0  0
   23.1100   16.5660   13.5030 C   0  0  0  0  0  0  0  0  0  0  0  0
   23.8040   17.6330   14.2090 C   0  0  0  0  0  0  0  0  0  0  0  0
   23.3060   18.3420   15.0780 O   0  0  0  0  0  0  0  0  0  0  0  0
   25.1250   17.7810   13.8000 N   0  0  0  0  0  0  0  0  0  0  0  0
   26.0920   18.4510   14.6500 C   0  0  2  0  0  0  0  0  0  0  0  0
   25.9240   18.0250   16.1020 C   0  0  0  0  0  0  0  0  0  0  0  0
   26.9370   18.7560   16.9670 C   0  0  0  0  0  0  0  0  0  0  0  0
   26.8170   20.2530   16.8060 C   0  0  0  0  0  0  0  0  0  0  0  0
   27.0540   21.0340   17.7240 O   0  0  0  0  0  0  0  0  0  0  0  0
   26.4620   20.7120   15.5630 N   0  0  0  0  0  0  0  0  0  0  0  0
   25.8960   19.9720   14.5500 C   0  0  0  0  0  0  0  0  0  0  0  0
   25.2960   20.5260   13.6310 O   0  0  0  0  0  0  0  0  0  0  0  0
   23.2450   16.3260   12.2090 N   0  0  0  0  0  0  0  0  0  0  0  0
   22.4510   15.2420   11.9800 C   0  0  0  0  0  0  0  0  0  0  0  0
   22.0960   16.4330    7.2050 C   0  0  0  0  0  0  0  0  0  0  0  0
   21.0810   17.1940    6.8390 N   0  0  0  0  0  0  0  0  0  0  0  0
   18.9504   19.6134    8.5356 H   0  0  0  0  0  0  0  0  0  0  0  0
   19.8320   19.3891    6.9867 H   0  0  0  0  0  0  0  0  0  0  0  0
   18.0430   19.5504    6.9867 H   0  0  0  0  0  0  0  0  0  0  0  0
   18.1901   17.4266    8.5847 H   0  0  0  0  0  0  0  0  0  0  0  0
   18.2701   17.2676    6.7759 H   0  0  0  0  0  0  0  0  0  0  0  0
   19.9997   15.7379    9.6419 H   0  0  0  0  0  0  0  0  0  0  0  0
   21.0804   12.8430    9.9888 H   0  0  0  0  0  0  0  0  0  0  0  0
   20.0087   12.2219   12.1407 H   0  0  0  0  0  0  0  0  0  0  0  0
   20.4936   13.5241   14.2485 H   0  0  0  0  0  0  0  0  0  0  0  0
   25.4200   17.4115   12.8849 H   0  0  0  0  0  0  0  0  0  0  0  0
   27.1014   18.1738   14.3118 H   0  0  0  0  0  0  0  0  0  0  0  0
   24.9070   18.2720   16.4409 H   0  0  0  0  0  0  0  0  0  0  0  0
   26.0863   16.9403   16.1861 H   0  0  0  0  0  0  0  0  0  0  0  0
   26.7636   18.4939   18.0211 H   0  0  0  0  0  0  0  0  0  0  0  0
   27.9462   18.4526   16.6516 H   0  0  0  0  0  0  0  0  0  0  0  0
   26.6362   21.7084   15.3687 H   0  0  0  0  0  0  0  0  0  0  0  0
   23.0415   16.3423    6.6502 H   0  0  0  0  0  0  0  0  0  0  0  0
  1  2  1  0
  2  3  1  0
  3  4  2  0
  4  5  1  0
  5  6  1  0
  6  7  2  0
  6  8  2  0
  6  9  1  0
  9 10  2  0
 10 11  1  0
 11 12  2  0
 12 13  1  0
 13 14  1  0
 14 15  1  0
 15 16  1  0
 16 17  2  0
 16 18  1  0
 18 19  1  0
 19 20  1  0
 20 21  1  0
 21 22  1  0
 22 23  2  0
 22 24  1  0
 24 25  1  0
 25 26  2  0
 15 27  2  0
 27 28  1  0
  5 29  1  0
 29 30  2  0
 30  3  1  0
 28  9  1  0
 28 13  2  0
 25 19  1  0
  1 31  1  0
  1 32  1  0
  1 33  1  0
  2 34  1  0
  2 35  1  0
  4 36  1  0
 10 37  1  0
 11 38  1  0
 12 39  1  0
 18 40  1  0
 19 41  1  6
 20 42  1  0
 20 43  1  0
 21 44  1  0
 21 45  1  0
 24 46  1  0
 29 47  1  0
M  END
>  <meeko>  (640) 
{"is_sidechain": [true], "free_energy": -10.64, "intermolecular_energy": 0.0, "internal_energy": -10.64, "cluster_size": 19, "cluster_id": 1, "rank_in_cluster": 1}

>  <_RMSD_MCS_to_ref>  (640) 
0.7553047214351452

$$$$
ligand
     RDKit          3D

 47 50  0  0  0  0  0  0  0  0999 V2000
   18.9090   19.1540    7.5370 C   0  0  0  0  0  0  0  0  0  0  0  0
   18.7730   17.6460    7.6780 C   0  0  0  0  0  0  0  0  0  0  0  0
   20.0900   16.9690    7.8250 C   0  0  0  0  0  0  0  0  0  0  0  0
   20.5400   16.1710    8.8580 C   0  0  0  0  0  0  0  0  0  0  0  0
   21.8050   15.8140    8.4850 N   0  0  0  0  0  0  0  0  0  0  0  0
   22.9340   15.0530    9.4710 S   0  0  0  0  0  6  0  0  0  0  0  0
   23.3150   13.8550    8.7480 O   0  0  0  0  0  0  0  0  0  0  0  0
   23.8920   16.0750    9.8410 O   0  0  0  0  0  0  0  0  0  0  0  0
   22.0960   14.5480   10.9260 C   0  0  0  0  0  0  0  0  0  0  0  0
   21.2350   13.4470   10.8580 C   0  0  0  0  0  0  0  0  0  0  0  0
   20.5730   13.0290   12.0070 C   0  0  0  0  0  0  0  0  0  0  0  0
   20.6860   13.5980   13.2270 N   0  0  0  0  0  0  0  0  0  0  0  0
   21.5260   14.6590   13.2820 C   0  0  0  0  0  0  0  0  0  0  0  0
   21.9060   15.4760   14.3700 C   0  0  0  0  0  0  0  0  0  0  0  0
   22.7930   16.4130   13.8700 C   0  0  0  0  0  0  0  0  0  0  0  0
   23.5370   17.4710   14.5220 C   0  0  0  0  0  0  0  0  0  0  0  0
   23.1210   18.0800   15.5030 O   0  0  0  0  0  0  0  0  0  0  0  0
   24.7660   17.7410   13.9510 N   0  0  0  0  0  0  0  0  0  0  0  0
   25.8160   18.3780   14.7280 C   0  0  2  0  0  0  0  0  0  0  0  0
   25.6990   18.0250   16.2050 C   0  0  0  0  0  0  0  0  0  0  0  0
   26.7990   18.7300   16.9820 C   0  0  0  0  0  0  0  0  0  0  0  0
   26.7560   20.2230   16.7590 C   0  0  0  0  0  0  0  0  0  0  0  0
   27.0810   21.0260   17.6280 O   0  0  0  0  0  0  0  0  0  0  0  0
   26.3660   20.6490   15.5140 N   0  0  0  0  0  0  0  0  0  0  0  0
   25.7030   19.9020   14.5680 C   0  0  0  0  0  0  0  0  0  0  0  0
   25.0840   20.4510   13.6580 O   0  0  0  0  0  0  0  0  0  0  0  0
   22.9650   16.2090   12.5260 O   0  0  0  0  0  0  0  0  0  0  0  0
   22.2110   15.1380   12.1740 C   0  0  0  0  0  0  0  0  0  0  0  0
   22.0900   16.3790    7.2810 C   0  0  0  0  0  0  0  0  0  0  0  0
   21.0810   17.1240    6.8710 N   0  0  0  0  0  0  0  0  0  0  0  0
   18.9504   19.6134    8.5356 H   0  0  0  0  0  0  0  0  0  0  0  0
   19.8320   19.3891    6.9867 H   0  0  0  0  0  0  0  0  0  0  0  0
   18.0430   19.5504    6.9867 H   0  0  0  0  0  0  0  0  0  0  0  0
   18.1625   17.4279    8.5667 H   0  0  0  0  0  0  0  0  0  0  0  0
   18.3003   17.2646    6.7609 H   0  0  0  0  0  0  0  0  0  0  0  0
   20.0017   15.8869    9.7742 H   0  0  0  0  0  0  0  0  0  0  0  0
   21.0835   12.9178    9.9056 H   0  0  0  0  0  0  0  0  0  0  0  0
   19.9013   12.1628   11.9149 H   0  0  0  0  0  0  0  0  0  0  0  0
   21.5636   15.3851   15.4114 H   0  0  0  0  0  0  0  0  0  0  0  0
   24.9392   17.4889   12.9675 H   0  0  0  0  0  0  0  0  0  0  0  0
   26.7884   18.0196   14.3593 H   0  0  0  0  0  0  0  0  0  0  0  0
   24.7179   18.3484   16.5829 H   0  0  0  0  0  0  0  0  0  0  0  0
   25.7996   16.9369   16.3315 H   0  0  0  0  0  0  0  0  0  0  0  0
   26.6690   18.5238   18.0546 H   0  0  0  0  0  0  0  0  0  0  0  0
   27.7704   18.3534   16.6289 H   0  0  0  0  0  0  0  0  0  0  0  0
   26.5916   21.6223   15.2637 H   0  0  0  0  0  0  0  0  0  0  0  0
   23.0294   16.2351    6.7271 H   0  0  0  0  0  0  0  0  0  0  0  0
  1  2  1  0
  2  3  1  0
  3  4  2  0
  4  5  1  0
  5  6  1  0
  6  7  2  0
  6  8  2  0
  6  9  1  0
  9 10  2  0
 10 11  1  0
 11 12  2  0
 12 13  1  0
 13 14  1  0
 14 15  2  0
 15 16  1  0
 16 17  2  0
 16 18  1  0
 18 19  1  0
 19 20  1  0
 20 21  1  0
 21 22  1  0
 22 23  2  0
 22 24  1  0
 24 25  1  0
 25 26  2  0
 15 27  1  0
 27 28  1  0
  5 29  1  0
 29 30  2  0
 30  3  1  0
 28  9  1  0
 28 13  2  0
 25 19  1  0
  1 31  1  0
  1 32  1  0
  1 33  1  0
  2 34  1  0
  2 35  1  0
  4 36  1  0
 10 37  1  0
 11 38  1  0
 14 39  1  0
 18 40  1  0
 19 41  1  6
 20 42  1  0
 20 43  1  0
 21 44  1  0
 21 45  1  0
 24 46  1  0
 29 47  1  0
M  END
>  <meeko>  (641) 
{"is_sidechain": [true], "free_energy": -10.64, "intermolecular_energy": 0.0, "internal_energy": -10.64, "cluster_size": 12, "cluster_id": 1, "rank_in_cluster": 1}

>  <_RMSD_MCS_to_ref>  (641) 
0.6242977387966947

$$$$
ligand
     RDKit          3D

 47 50  0  0  0  0  0  0  0  0999 V2000
   18.9090   19.1540    7.5370 C   0  0  0  0  0  0  0  0  0  0  0  0
   18.7730   17.6460    7.6780 C   0  0  0  0  0  0  0  0  0  0  0  0
   20.0940   16.9610    7.6930 C   0  0  0  0  0  0  0  0  0  0  0  0
   20.9150   16.6810    8.7680 C   0  0  0  0  0  0  0  0  0  0  0  0
   21.9990   16.0680    8.2080 N   0  0  0  0  0  0  0  0  0  0  0  0
   23.3210   15.4490    9.0530 S   0  0  0  0  0  6  0  0  0  0  0  0
   24.3500   16.4580    8.8560 O   0  0  0  0  0  0  0  0  0  0  0  0
   23.5180   14.1080    8.5290 O   0  0  0  0  0  0  0  0  0  0  0  0
   22.9570   15.3530   10.7390 C   0  0  0  0  0  0  0  0  0  0  0  0
   23.8700   15.8030   11.6150 C   0  0  0  0  0  0  0  0  0  0  0  0
   23.5370   15.6720   13.0580 C   0  0  0  0  0  0  0  0  0  0  0  0
   24.5790   16.2000   14.0490 C   0  0  0  0  0  0  0  0  0  0  0  0
   25.2070   15.4320   14.7590 O   0  0  0  0  0  0  0  0  0  0  0  0
   24.7220   17.5640   14.0290 N   0  0  0  0  0  0  0  0  0  0  0  0
   25.7800   18.2450   14.7540 C   0  0  2  0  0  0  0  0  0  0  0  0
   25.7220   17.9600   16.2520 C   0  0  0  0  0  0  0  0  0  0  0  0
   26.8330   18.7230   16.9570 C   0  0  0  0  0  0  0  0  0  0  0  0
   26.7550   20.2020   16.6640 C   0  0  0  0  0  0  0  0  0  0  0  0
   27.0830   21.0550   17.4820 O   0  0  0  0  0  0  0  0  0  0  0  0
   26.3260   20.5580   15.4100 N   0  0  0  0  0  0  0  0  0  0  0  0
   25.6510   19.7530   14.5240 C   0  0  0  0  0  0  0  0  0  0  0  0
   25.0030   20.2340   13.5950 O   0  0  0  0  0  0  0  0  0  0  0  0
   22.4460   15.1490   13.5410 N   0  0  0  0  0  0  0  0  0  0  0  0
   21.5950   14.7100   12.5770 N   0  0  0  0  0  0  0  0  0  0  0  0
   20.3850   14.1190   12.8040 C   0  0  0  0  0  0  0  0  0  0  0  0
   19.8730   13.8370   11.5590 C   0  0  0  0  0  0  0  0  0  0  0  0
   20.7390   14.2420   10.5750 N   0  0  0  0  0  0  0  0  0  0  0  0
   21.7660   14.7680   11.2050 C   0  0  0  0  0  0  0  0  0  0  0  0
   21.8040   15.9510    6.8690 C   0  0  0  0  0  0  0  0  0  0  0  0
   20.6610   16.5060    6.5190 N   0  0  0  0  0  0  0  0  0  0  0  0
   18.9504   19.6134    8.5356 H   0  0  0  0  0  0  0  0  0  0  0  0
   19.8320   19.3891    6.9867 H   0  0  0  0  0  0  0  0  0  0  0  0
   18.0430   19.5504    6.9867 H   0  0  0  0  0  0  0  0  0  0  0  0
   18.2483   17.4242    8.6190 H   0  0  0  0  0  0  0  0  0  0  0  0
   18.2103   17.2751    6.8086 H   0  0  0  0  0  0  0  0  0  0  0  0
   20.7365   16.9012    9.8309 H   0  0  0  0  0  0  0  0  0  0  0  0
   24.8191   16.2474   11.2808 H   0  0  0  0  0  0  0  0  0  0  0  0
   24.0552   18.1253   13.4802 H   0  0  0  0  0  0  0  0  0  0  0  0
   26.7439   17.8719   14.3777 H   0  0  0  0  0  0  0  0  0  0  0  0
   24.7477   18.2812   16.6488 H   0  0  0  0  0  0  0  0  0  0  0  0
   25.8511   16.8814   16.4252 H   0  0  0  0  0  0  0  0  0  0  0  0
   26.7416   18.5675   18.0421 H   0  0  0  0  0  0  0  0  0  0  0  0
   27.7993   18.3470   16.5897 H   0  0  0  0  0  0  0  0  0  0  0  0
   26.5293   21.5202   15.1037 H   0  0  0  0  0  0  0  0  0  0  0  0
   19.9179   13.9119   13.7781 H   0  0  0  0  0  0  0  0  0  0  0  0
   18.9021   13.3530   11.3771 H   0  0  0  0  0  0  0  0  0  0  0  0
   22.5022   15.4616    6.1740 H   0  0  0  0  0  0  0  0  0  0  0  0
  1  2  1  0
  2  3  1  0
  3  4  2  0
  4  5  1  0
  5  6  1  0
  6  7  2  0
  6  8  2  0
  6  9  1  0
  9 10  2  0
 10 11  1  0
 11 12  1  0
 12 13  2  0
 12 14  1  0
 14 15  1  0
 15 16  1  0
 16 17  1  0
 17 18  1  0
 18 19  2  0
 18 20  1  0
 20 21  1  0
 21 22  2  0
 11 23  2  0
 23 24  1  0
 24 25  1  0
 25 26  2  0
 26 27  1  0
 27 28  2  0
  5 29  1  0
 29 30  2  0
 30  3  1  0
 28  9  1  0
 21 15  1  0
 28 24  1  0
  1 31  1  0
  1 32  1  0
  1 33  1  0
  2 34  1  0
  2 35  1  0
  4 36  1  0
 10 37  1  0
 14 38  1  0
 15 39  1  6
 16 40  1  0
 16 41  1  0
 17 42  1  0
 17 43  1  0
 20 44  1  0
 25 45  1  0
 26 46  1  0
 29 47  1  0
M  END
>  <meeko>  (642) 
{"is_sidechain": [true], "free_energy": -10.64, "intermolecular_energy": 0.0, "internal_energy": -10.64, "cluster_size": 17, "cluster_id": 1, "rank_in_cluster": 1}

>  <_RMSD_MCS_to_ref>  (642) 
0.5759186863901304

$$$$
ligand
     RDKit          3D

 46 49  0  0  0  0  0  0  0  0999 V2000
   18.9090   19.1540    7.5370 C   0  0  0  0  0  0  0  0  0  0  0  0
   18.7730   17.6460    7.6780 C   0  0  0  0  0  0  0  0  0  0  0  0
   20.0330   16.9330    7.3320 C   0  0  0  0  0  0  0  0  0  0  0  0
   20.7550   16.0290    8.0850 C   0  0  0  0  0  0  0  0  0  0  0  0
   21.8310   15.7230    7.3010 N   0  0  0  0  0  0  0  0  0  0  0  0
   22.9420   14.4900    7.5910 S   0  0  0  0  0  6  0  0  0  0  0  0
   22.1400   13.3690    8.0420 O   0  0  0  0  0  0  0  0  0  0  0  0
   23.7370   14.4170    6.3790 O   0  0  0  0  0  0  0  0  0  0  0  0
   23.8790   15.0090    8.8190 O   0  0  0  0  0  0  0  0  0  0  0  0
   23.3890   15.2410   10.0780 C   0  0  0  0  0  0  0  0  0  0  0  0
   22.2670   14.6300   10.6390 C   0  0  0  0  0  0  0  0  0  0  0  0
   21.8710   14.9550   11.9440 C   0  0  0  0  0  0  0  0  0  0  0  0
   22.5840   15.8880   12.7040 C   0  0  0  0  0  0  0  0  0  0  0  0
   22.1550   16.1750   14.0050 N   0  0  0  0  0  0  0  0  0  0  0  0
   22.7920   16.9890   14.7040 N   0  0  0  0  0  0  0  0  0  0  0  0
   23.8710   17.6730   14.2120 N   0  0  0  0  0  0  0  0  0  0  0  0
   24.6010   18.5190   15.1540 C   0  0  1  0  0  0  0  0  0  0  0  0
   25.8410   17.8430   15.7400 C   0  0  0  0  0  0  0  0  0  0  0  0
   26.5100   18.7850   16.7280 C   0  0  0  0  0  0  0  0  0  0  0  0
   26.8550   20.1040   16.0770 C   0  0  0  0  0  0  0  0  0  0  0  0
   27.8100   20.7860   16.4400 O   0  0  0  0  0  0  0  0  0  0  0  0
   26.0150   20.5360   15.0810 N   0  0  0  0  0  0  0  0  0  0  0  0
   25.0040   19.8280   14.4660 C   0  0  0  0  0  0  0  0  0  0  0  0
   24.4600   20.2820   13.4620 O   0  0  0  0  0  0  0  0  0  0  0  0
   24.4040   17.4530   12.9550 C   0  0  0  0  0  0  0  0  0  0  0  0
   25.3960   18.0230   12.5090 O   0  0  0  0  0  0  0  0  0  0  0  0
   23.6920   16.4830   12.1310 C   0  0  0  0  0  0  0  0  0  0  0  0
   24.1060   16.1720   10.8300 C   0  0  0  0  0  0  0  0  0  0  0  0
   21.7030   16.3540    6.1060 C   0  0  0  0  0  0  0  0  0  0  0  0
   20.6310   17.1210    6.1010 N   0  0  0  0  0  0  0  0  0  0  0  0
   18.9504   19.6134    8.5356 H   0  0  0  0  0  0  0  0  0  0  0  0
   19.8320   19.3891    6.9867 H   0  0  0  0  0  0  0  0  0  0  0  0
   18.0430   19.5504    6.9867 H   0  0  0  0  0  0  0  0  0  0  0  0
   18.5069   17.4101    8.7189 H   0  0  0  0  0  0  0  0  0  0  0  0
   17.9924   17.3106    6.9793 H   0  0  0  0  0  0  0  0  0  0  0  0
   20.5180   15.6431    9.0875 H   0  0  0  0  0  0  0  0  0  0  0  0
   21.6933   13.8934   10.0574 H   0  0  0  0  0  0  0  0  0  0  0  0
   20.9849   14.4682   12.3774 H   0  0  0  0  0  0  0  0  0  0  0  0
   23.9205   18.7168   15.9953 H   0  0  0  0  0  0  0  0  0  0  0  0
   25.5451   16.9184   16.2572 H   0  0  0  0  0  0  0  0  0  0  0  0
   26.5444   17.5999   14.9300 H   0  0  0  0  0  0  0  0  0  0  0  0
   25.8252   18.9682   17.5692 H   0  0  0  0  0  0  0  0  0  0  0  0
   27.4407   18.3165   17.0807 H   0  0  0  0  0  0  0  0  0  0  0  0
   26.1565   21.5026   14.7546 H   0  0  0  0  0  0  0  0  0  0  0  0
   24.9940   16.6603   10.4021 H   0  0  0  0  0  0  0  0  0  0  0  0
   22.3969   16.2411    5.2600 H   0  0  0  0  0  0  0  0  0  0  0  0
  1  2  1  0
  2  3  1  0
  3  4  2  0
  4  5  1  0
  5  6  1  0
  6  7  2  0
  6  8  2  0
  6  9  1  0
  9 10  1  0
 10 11  2  0
 11 12  1  0
 12 13  2  0
 13 14  1  0
 14 15  2  0
 15 16  1  0
 16 17  1  0
 17 18  1  0
 18 19  1  0
 19 20  1  0
 20 21  2  0
 20 22  1  0
 22 23  1  0
 23 24  2  0
 16 25  1  0
 25 26  2  0
 25 27  1  0
 27 28  2  0
  5 29  1  0
 29 30  2  0
 30  3  1  0
 28 10  1  0
 27 13  1  0
 23 17  1  0
  1 31  1  0
  1 32  1  0
  1 33  1  0
  2 34  1  0
  2 35  1  0
  4 36  1  0
 11 37  1  0
 12 38  1  0
 17 39  1  1
 18 40  1  0
 18 41  1  0
 19 42  1  0
 19 43  1  0
 22 44  1  0
 28 45  1  0
 29 46  1  0
M  END
>  <meeko>  (643) 
{"is_sidechain": [true], "free_energy": -10.64, "intermolecular_energy": 0.0, "internal_energy": -10.64, "cluster_size": 20, "cluster_id": 1, "rank_in_cluster": 1}

>  <_RMSD_MCS_to_ref>  (643) 
0.5298259672341055

$$$$
ligand
     RDKit          3D

 50 53  0  0  0  0  0  0  0  0999 V2000
   18.9090   19.1540    7.5370 C   0  0  0  0  0  0  0  0  0  0  0  0
   18.7730   17.6460    7.6780 C   0  0  0  0  0  0  0  0  0  0  0  0
   20.0920   16.9570    7.6460 C   0  0  0  0  0  0  0  0  0  0  0  0
   21.0180   16.8100    8.6600 C   0  0  0  0  0  0  0  0  0  0  0  0
   22.0300   16.0920    8.0900 N   0  0  0  0  0  0  0  0  0  0  0  0
   23.2660   15.3250    8.9270 S   0  0  0  0  0  6  0  0  0  0  0  0
   23.1190   13.9040    8.6840 O   0  0  0  0  0  0  0  0  0  0  0  0
   24.4810   16.0600    8.6410 O   0  0  0  0  0  0  0  0  0  0  0  0
   22.9540   15.5520   10.6650 C   0  0  0  0  0  0  0  0  0  0  0  0
   23.6920   16.4510   11.4080 O   0  0  0  0  0  0  0  0  0  0  0  0
   23.2480   16.4340   12.7040 C   0  0  0  0  0  0  0  0  0  0  0  0
   23.8920   17.2950   13.6750 C   0  0  0  0  0  0  0  0  0  0  0  0
   23.3270   17.7670   14.6580 O   0  0  0  0  0  0  0  0  0  0  0  0
   25.2200   17.5410   13.4060 N   0  0  0  0  0  0  0  0  0  0  0  0
   26.0900   18.2430   14.3300 C   0  0  2  0  0  0  0  0  0  0  0  0
   25.8210   17.8540   15.7790 C   0  0  0  0  0  0  0  0  0  0  0  0
   26.7370   18.6490   16.6970 C   0  0  0  0  0  0  0  0  0  0  0  0
   26.5820   20.1350   16.4760 C   0  0  0  0  0  0  0  0  0  0  0  0
   26.7120   20.9520   17.3820 O   0  0  0  0  0  0  0  0  0  0  0  0
   26.3180   20.5410   15.1920 N   0  0  0  0  0  0  0  0  0  0  0  0
   25.8650   19.7510   14.1650 C   0  0  0  0  0  0  0  0  0  0  0  0
   25.3310   20.2430   13.1710 O   0  0  0  0  0  0  0  0  0  0  0  0
   22.2140   15.5300   12.8070 C   0  0  0  0  0  0  0  0  0  0  0  0
   22.0290   14.9650   11.5160 C   0  0  0  0  0  0  0  0  0  0  0  0
   20.9800   13.9470   11.2390 C   0  0  0  0  0  0  0  0  0  0  0  0
   20.4580   13.3760   12.4570 O   0  0  0  0  0  0  0  0  0  0  0  0
   20.1240   14.3760   13.4390 C   0  0  0  0  0  0  0  0  0  0  0  0
   21.3840   15.0950   13.9620 C   0  0  0  0  0  0  0  0  0  0  0  0
   21.6920   15.7890    6.8100 C   0  0  0  0  0  0  0  0  0  0  0  0
   20.5270   16.3190    6.5000 N   0  0  0  0  0  0  0  0  0  0  0  0
   18.9504   19.6134    8.5356 H   0  0  0  0  0  0  0  0  0  0  0  0
   19.8320   19.3891    6.9867 H   0  0  0  0  0  0  0  0  0  0  0  0
   18.0430   19.5504    6.9867 H   0  0  0  0  0  0  0  0  0  0  0  0
   18.2799   17.4228    8.6356 H   0  0  0  0  0  0  0  0  0  0  0  0
   18.1798   17.2795    6.8272 H   0  0  0  0  0  0  0  0  0  0  0  0
   20.9547   17.1858    9.6919 H   0  0  0  0  0  0  0  0  0  0  0  0
   25.6116   17.2129   12.5116 H   0  0  0  0  0  0  0  0  0  0  0  0
   27.1295   17.9681   14.0980 H   0  0  0  0  0  0  0  0  0  0  0  0
   24.7723   18.0729   16.0286 H   0  0  0  0  0  0  0  0  0  0  0  0
   26.0132   16.7790   15.9113 H   0  0  0  0  0  0  0  0  0  0  0  0
   26.4876   18.4145   17.7424 H   0  0  0  0  0  0  0  0  0  0  0  0
   27.7777   18.3719   16.4730 H   0  0  0  0  0  0  0  0  0  0  0  0
   26.4752   21.5362   14.9779 H   0  0  0  0  0  0  0  0  0  0  0  0
   20.1567   14.4241   10.6871 H   0  0  0  0  0  0  0  0  0  0  0  0
   21.4336   13.1383   10.6472 H   0  0  0  0  0  0  0  0  0  0  0  0
   19.4532   15.1176   12.9806 H   0  0  0  0  0  0  0  0  0  0  0  0
   19.6332   13.8771   14.2876 H   0  0  0  0  0  0  0  0  0  0  0  0
   21.0873   15.9737   14.5535 H   0  0  0  0  0  0  0  0  0  0  0  0
   21.9643   14.4089   14.5964 H   0  0  0  0  0  0  0  0  0  0  0  0
   22.3064   15.1844    6.1266 H   0  0  0  0  0  0  0  0  0  0  0  0
  1  2  1  0
  2  3  1  0
  3  4  2  0
  4  5  1  0
  5  6  1  0
  6  7  2  0
  6  8  2  0
  6  9  1  0
  9 10  1  0
 10 11  1  0
 11 12  1  0
 12 13  2  0
 12 14  1  0
 14 15  1  0
 15 16  1  0
 16 17  1  0
 17 18  1  0
 18 19  2  0
 18 20  1  0
 20 21  1  0
 21 22  2  0
 11 23  2  0
 23 24  1  0
 24 25  1  0
 25 26  1  0
 26 27  1  0
 27 28  1  0
  5 29  1  0
 29 30  2  0
 30  3  1  0
 24  9  2  0
 21 15  1  0
 28 23  1  0
  1 31  1  0
  1 32  1  0
  1 33  1  0
  2 34  1  0
  2 35  1  0
  4 36  1  0
 14 37  1  0
 15 38  1  6
 16 39  1  0
 16 40  1  0
 17 41  1  0
 17 42  1  0
 20 43  1  0
 25 44  1  0
 25 45  1  0
 27 46  1  0
 27 47  1  0
 28 48  1  0
 28 49  1  0
 29 50  1  0
M  END
>  <meeko>  (644) 
{"is_sidechain": [true], "free_energy": -10.64, "intermolecular_energy": 0.0, "internal_energy": -10.64, "cluster_size": 20, "cluster_id": 1, "rank_in_cluster": 1}

>  <_RMSD_MCS_to_ref>  (644) 
0.6770383215807569

$$$$
ligand
     RDKit          3D

 41 43  0  0  0  0  0  0  0  0999 V2000
   18.9090   19.1540    7.5370 C   0  0  0  0  0  0  0  0  0  0  0  0
   18.7730   17.6460    7.6780 C   0  0  0  0  0  0  0  0  0  0  0  0
   20.0960   16.9630    7.7040 C   0  0  0  0  0  0  0  0  0  0  0  0
   20.8320   16.5360    8.7920 C   0  0  0  0  0  0  0  0  0  0  0  0
   21.9420   15.9640    8.2390 N   0  0  0  0  0  0  0  0  0  0  0  0
   23.2740   15.3950    9.0730 S   0  0  0  0  0  6  0  0  0  0  0  0
   23.3200   13.9600    8.8650 O   0  0  0  0  0  0  0  0  0  0  0  0
   24.3860   16.2610    8.7330 O   0  0  0  0  0  0  0  0  0  0  0  0
   23.0270   15.6010   10.7840 C   0  0  0  0  0  0  0  0  0  0  0  0
   22.0040   15.1670   11.4930 N   0  0  0  0  0  0  0  0  0  0  0  0
   22.2110   15.5440   12.8030 N   0  0  0  0  0  0  0  0  0  0  0  0
   23.3550   16.2000   12.8610 C   0  0  0  0  0  0  0  0  0  0  0  0
   23.9400   16.7650   14.0500 C   0  0  0  0  0  0  0  0  0  0  0  0
   24.0360   16.1420   15.1030 O   0  0  0  0  0  0  0  0  0  0  0  0
   24.3750   18.0610   13.9100 N   0  0  0  0  0  0  0  0  0  0  0  0
   24.8720   18.8440   15.0280 C   0  0  1  0  0  0  0  0  0  0  0  0
   25.9130   18.0790   15.8410 C   0  0  0  0  0  0  0  0  0  0  0  0
   26.4110   18.9540   16.9800 C   0  0  0  0  0  0  0  0  0  0  0  0
   26.9540   20.2670   16.4670 C   0  0  0  0  0  0  0  0  0  0  0  0
   27.8840   20.8540   17.0130 O   0  0  0  0  0  0  0  0  0  0  0  0
   26.3310   20.8020   15.3680 N   0  0  0  0  0  0  0  0  0  0  0  0
   25.5010   20.1360   14.4990 C   0  0  0  0  0  0  0  0  0  0  0  0
   25.2740   20.5790   13.3740 O   0  0  0  0  0  0  0  0  0  0  0  0
   23.8980   16.2550   11.6070 N   0  0  0  0  0  0  0  0  0  0  0  0
   21.8930   16.1080    6.8900 C   0  0  0  0  0  0  0  0  0  0  0  0
   20.7670   16.6870    6.5290 N   0  0  0  0  0  0  0  0  0  0  0  0
   18.9504   19.6134    8.5356 H   0  0  0  0  0  0  0  0  0  0  0  0
   19.8320   19.3891    6.9867 H   0  0  0  0  0  0  0  0  0  0  0  0
   18.0430   19.5504    6.9867 H   0  0  0  0  0  0  0  0  0  0  0  0
   18.2411   17.4241    8.6149 H   0  0  0  0  0  0  0  0  0  0  0  0
   18.2172   17.2735    6.8049 H   0  0  0  0  0  0  0  0  0  0  0  0
   20.5817   16.6341    9.8586 H   0  0  0  0  0  0  0  0  0  0  0  0
   24.3476   18.4941   12.9759 H   0  0  0  0  0  0  0  0  0  0  0  0
   24.0210   19.0667   15.6884 H   0  0  0  0  0  0  0  0  0  0  0  0
   25.4581   17.1658   16.2523 H   0  0  0  0  0  0  0  0  0  0  0  0
   26.7581   17.8076   15.1912 H   0  0  0  0  0  0  0  0  0  0  0  0
   25.5767   19.1557   17.6680 H   0  0  0  0  0  0  0  0  0  0  0  0
   27.2225   18.4214   17.4975 H   0  0  0  0  0  0  0  0  0  0  0  0
   26.5020   21.7993   15.1758 H   0  0  0  0  0  0  0  0  0  0  0  0
   24.7865   16.7008   11.3374 H   0  0  0  0  0  0  0  0  0  0  0  0
   22.6833   15.7861    6.1959 H   0  0  0  0  0  0  0  0  0  0  0  0
  1  2  1  0
  2  3  1  0
  3  4  2  0
  4  5  1  0
  5  6  1  0
  6  7  2  0
  6  8  2  0
  6  9  1  0
  9 10  2  0
 10 11  1  0
 11 12  2  0
 12 13  1  0
 13 14  2  0
 13 15  1  0
 15 16  1  0
 16 17  1  0
 17 18  1  0
 18 19  1  0
 19 20  2  0
 19 21  1  0
 21 22  1  0
 22 23  2  0
 12 24  1  0
  5 25  1  0
 25 26  2  0
 26  3  1  0
 24  9  1  0
 22 16  1  0
  1 27  1  0
  1 28  1  0
  1 29  1  0
  2 30  1  0
  2 31  1  0
  4 32  1  0
 15 33  1  0
 16 34  1  1
 17 35  1  0
 17 36  1  0
 18 37  1  0
 18 38  1  0
 21 39  1  0
 24 40  1  0
 25 41  1  0
M  END
>  <meeko>  (645) 
{"is_sidechain": [true], "free_energy": -10.64, "intermolecular_energy": 0.0, "internal_energy": -10.64, "cluster_size": 20, "cluster_id": 1, "rank_in_cluster": 1}

>  <_RMSD_MCS_to_ref>  (645) 
0.5626958918160566

$$$$
ligand
     RDKit          3D

 47 50  0  0  0  0  0  0  0  0999 V2000
   18.9090   19.1540    7.5370 C   0  0  0  0  0  0  0  0  0  0  0  0
   18.7730   17.6460    7.6780 C   0  0  0  0  0  0  0  0  0  0  0  0
   20.0110   16.9290    7.2680 C   0  0  0  0  0  0  0  0  0  0  0  0
   20.9460   16.2930    8.0620 C   0  0  0  0  0  0  0  0  0  0  0  0
   21.8610   15.8080    7.1760 N   0  0  0  0  0  0  0  0  0  0  0  0
   23.1320   14.7500    7.5120 S   0  0  0  0  0  6  0  0  0  0  0  0
   23.7240   14.4360    6.2250 O   0  0  0  0  0  0  0  0  0  0  0  0
   22.4960   13.6990    8.2910 O   0  0  0  0  0  0  0  0  0  0  0  0
   24.2860   15.5620    8.5010 C   0  0  0  0  0  0  0  0  0  0  0  0
   25.3280   16.1890    7.9300 C   0  0  0  0  0  0  0  0  0  0  0  0
   26.2420   16.8580    8.7180 N   0  0  0  0  0  0  0  0  0  0  0  0
   26.1680   16.9470   10.0980 C   0  0  0  0  0  0  0  0  0  0  0  0
   27.0110   17.5720   10.7320 O   0  0  0  0  0  0  0  0  0  0  0  0
   25.0510   16.2660   10.6850 C   0  0  0  0  0  0  0  0  0  0  0  0
   24.6060   16.0830   11.9800 C   0  0  0  0  0  0  0  0  0  0  0  0
   25.1400   16.5190   13.2710 C   0  0  0  0  0  0  0  0  0  0  0  0
   25.0130   15.8380   14.2860 O   0  0  0  0  0  0  0  0  0  0  0  0
   25.8060   17.7220   13.3090 N   0  0  0  0  0  0  0  0  0  0  0  0
   26.4280   18.2170   14.5260 C   0  0  2  0  0  0  0  0  0  0  0  0
   25.4600   18.1620   15.7030 C   0  0  0  0  0  0  0  0  0  0  0  0
   26.1430   18.7050   16.9500 C   0  0  0  0  0  0  0  0  0  0  0  0
   26.6670   20.1020   16.7220 C   0  0  0  0  0  0  0  0  0  0  0  0
   26.7100   20.9430   17.6150 O   0  0  0  0  0  0  0  0  0  0  0  0
   27.1310   20.3860   15.4630 N   0  0  0  0  0  0  0  0  0  0  0  0
   26.8990   19.6600   14.3190 C   0  0  0  0  0  0  0  0  0  0  0  0
   27.0960   20.1550   13.2110 O   0  0  0  0  0  0  0  0  0  0  0  0
   23.4430   15.3500   11.9200 N   0  0  0  0  0  0  0  0  0  0  0  0
   23.1730   15.0700   10.6570 N   0  0  0  0  0  0  0  0  0  0  0  0
   24.1330   15.6050    9.8770 N   0  0  0  0  0  0  0  0  0  0  0  0
   21.4760   16.1290    5.9140 C   0  0  0  0  0  0  0  0  0  0  0  0
   20.3520   16.8140    5.9350 N   0  0  0  0  0  0  0  0  0  0  0  0
   18.9504   19.6134    8.5356 H   0  0  0  0  0  0  0  0  0  0  0  0
   19.8320   19.3891    6.9867 H   0  0  0  0  0  0  0  0  0  0  0  0
   18.0430   19.5504    6.9867 H   0  0  0  0  0  0  0  0  0  0  0  0
   18.5568   17.4066    8.7297 H   0  0  0  0  0  0  0  0  0  0  0  0
   17.9577   17.3172    7.0168 H   0  0  0  0  0  0  0  0  0  0  0  0
   20.9508   16.1995    9.1580 H   0  0  0  0  0  0  0  0  0  0  0  0
   25.4522   16.1691    6.8372 H   0  0  0  0  0  0  0  0  0  0  0  0
   27.0324   17.3224    8.2483 H   0  0  0  0  0  0  0  0  0  0  0  0
   25.8657   18.2882   12.4506 H   0  0  0  0  0  0  0  0  0  0  0  0
   27.2894   17.5722   14.7547 H   0  0  0  0  0  0  0  0  0  0  0  0
   24.5728   18.7716   15.4764 H   0  0  0  0  0  0  0  0  0  0  0  0
   25.1551   17.1196   15.8775 H   0  0  0  0  0  0  0  0  0  0  0  0
   25.4175   18.7246   17.7766 H   0  0  0  0  0  0  0  0  0  0  0  0
   26.9925   18.0503   17.1944 H   0  0  0  0  0  0  0  0  0  0  0  0
   27.7131   21.2300   15.3646 H   0  0  0  0  0  0  0  0  0  0  0  0
   22.0263   15.8550    5.0018 H   0  0  0  0  0  0  0  0  0  0  0  0
  1  2  1  0
  2  3  1  0
  3  4  2  0
  4  5  1  0
  5  6  1  0
  6  7  2  0
  6  8  2  0
  6  9  1  0
  9 10  2  0
 10 11  1  0
 11 12  1  0
 12 13  2  0
 12 14  1  0
 14 15  2  0
 15 16  1  0
 16 17  2  0
 16 18  1  0
 18 19  1  0
 19 20  1  0
 20 21  1  0
 21 22  1  0
 22 23  2  0
 22 24  1  0
 24 25  1  0
 25 26  2  0
 15 27  1  0
 27 28  2  0
 28 29  1  0
  5 30  1  0
 30 31  2  0
 31  3  1  0
 29  9  1  0
 29 14  1  0
 25 19  1  0
  1 32  1  0
  1 33  1  0
  1 34  1  0
  2 35  1  0
  2 36  1  0
  4 37  1  0
 10 38  1  0
 11 39  1  0
 18 40  1  0
 19 41  1  1
 20 42  1  0
 20 43  1  0
 21 44  1  0
 21 45  1  0
 24 46  1  0
 30 47  1  0
M  END
>  <meeko>  (646) 
{"is_sidechain": [true], "free_energy": -10.64, "intermolecular_energy": 0.0, "internal_energy": -10.64, "cluster_size": 19, "cluster_id": 1, "rank_in_cluster": 1}

>  <_RMSD_MCS_to_ref>  (646) 
1.312682114349599

$$$$
ligand
     RDKit          3D

 52 56  0  0  0  0  0  0  0  0999 V2000
   18.9090   19.1540    7.5370 C   0  0  0  0  0  0  0  0  0  0  0  0
   18.7730   17.6460    7.6780 C   0  0  0  0  0  0  0  0  0  0  0  0
   20.0840   16.9510    7.5720 C   0  0  0  0  0  0  0  0  0  0  0  0
   20.5400   15.8460    8.2650 C   0  0  0  0  0  0  0  0  0  0  0  0
   21.7890   15.6260    7.7570 N   0  0  0  0  0  0  0  0  0  0  0  0
   22.9080   14.5210    8.3440 S   0  0  0  0  0  6  0  0  0  0  0  0
   23.6380   14.0960    7.1630 O   0  0  0  0  0  0  0  0  0  0  0  0
   22.1840   13.5640    9.1580 O   0  0  0  0  0  0  0  0  0  0  0  0
   24.0250   15.4320    9.3870 C   0  0  0  0  0  0  0  0  0  0  0  0
   23.5800   15.7500   10.6820 C   0  0  0  0  0  0  0  0  0  0  0  0
   24.4140   16.5090   11.4770 C   0  0  0  0  0  0  0  0  0  0  0  0
   25.6510   16.9740   11.0420 C   0  0  0  0  0  0  0  0  0  0  0  0
   26.0950   16.6790    9.7640 C   0  0  0  0  0  0  0  0  0  0  0  0
   25.2770   15.9000    8.9170 C   0  0  0  0  0  0  0  0  0  0  0  0
   25.7880   15.5740    7.6070 C   0  0  0  0  0  0  0  0  0  0  0  0
   26.6740   14.5700    7.2970 C   0  0  0  0  0  0  0  0  0  0  0  0
   26.8700   14.5920    5.9480 O   0  0  0  0  0  0  0  0  0  0  0  0
   26.0870   15.6220    5.5230 C   0  0  0  0  0  0  0  0  0  0  0  0
   25.4140   16.2380    6.4710 N   0  0  0  0  0  0  0  0  0  0  0  0
   26.3040   17.7780   12.1170 C   0  0  0  0  0  0  0  0  0  0  0  0
   25.3640   17.6490   13.2220 N   0  0  0  0  0  0  0  0  0  0  0  0
   25.4160   18.4760   14.4230 C   0  0  1  0  0  0  0  0  0  0  0  0
   26.3350   17.8960   15.4940 C   0  0  0  0  0  0  0  0  0  0  0  0
   26.2700   18.7680   16.7390 C   0  0  0  0  0  0  0  0  0  0  0  0
   26.6110   20.2050   16.4180 C   0  0  0  0  0  0  0  0  0  0  0  0
   27.2440   20.9180   17.1890 O   0  0  0  0  0  0  0  0  0  0  0  0
   26.1610   20.6860   15.2140 N   0  0  0  0  0  0  0  0  0  0  0  0
   25.8570   19.9170   14.1150 C   0  0  0  0  0  0  0  0  0  0  0  0
   25.9620   20.3830   12.9810 O   0  0  0  0  0  0  0  0  0  0  0  0
   24.2090   16.9780   12.8510 C   0  0  0  0  0  0  0  0  0  0  0  0
   23.2030   16.7900   13.5060 O   0  0  0  0  0  0  0  0  0  0  0  0
   22.0890   16.6140    6.8740 C   0  0  0  0  0  0  0  0  0  0  0  0
   21.0570   17.4170    6.7080 N   0  0  0  0  0  0  0  0  0  0  0  0
   18.9504   19.6134    8.5356 H   0  0  0  0  0  0  0  0  0  0  0  0
   19.8320   19.3891    6.9867 H   0  0  0  0  0  0  0  0  0  0  0  0
   18.0430   19.5504    6.9867 H   0  0  0  0  0  0  0  0  0  0  0  0
   18.3309   17.4205    8.6597 H   0  0  0  0  0  0  0  0  0  0  0  0
   18.1332   17.2866    6.8586 H   0  0  0  0  0  0  0  0  0  0  0  0
   20.0174   15.2747    9.0463 H   0  0  0  0  0  0  0  0  0  0  0  0
   22.6016   15.4059   11.0485 H   0  0  0  0  0  0  0  0  0  0  0  0
   27.0709   17.0463    9.4137 H   0  0  0  0  0  0  0  0  0  0  0  0
   27.1410   13.8739    8.0093 H   0  0  0  0  0  0  0  0  0  0  0  0
   26.0220   15.9171    4.4653 H   0  0  0  0  0  0  0  0  0  0  0  0
   27.2879   17.3633   12.3816 H   0  0  0  0  0  0  0  0  0  0  0  0
   26.4997   18.8209   11.8271 H   0  0  0  0  0  0  0  0  0  0  0  0
   24.3867   18.4881   14.8107 H   0  0  0  0  0  0  0  0  0  0  0  0
   26.0101   16.8750   15.7432 H   0  0  0  0  0  0  0  0  0  0  0  0
   27.3681   17.8684   15.1172 H   0  0  0  0  0  0  0  0  0  0  0  0
   25.2524   18.7249   17.1546 H   0  0  0  0  0  0  0  0  0  0  0  0
   27.0027   18.3904   17.4674 H   0  0  0  0  0  0  0  0  0  0  0  0
   26.0413   21.7053   15.1263 H   0  0  0  0  0  0  0  0  0  0  0  0
   23.0589   16.7280    6.3677 H   0  0  0  0  0  0  0  0  0  0  0  0
  1  2  1  0
  2  3  1  0
  3  4  2  0
  4  5  1  0
  5  6  1  0
  6  7  2  0
  6  8  2  0
  6  9  1  0
  9 10  2  0
 10 11  1  0
 11 12  2  0
 12 13  1  0
 13 14  2  0
 14 15  1  0
 15 16  2  0
 16 17  1  0
 17 18  1  0
 18 19  2  0
 12 20  1  0
 20 21  1  0
 21 22  1  0
 22 23  1  0
 23 24  1  0
 24 25  1  0
 25 26  2  0
 25 27  1  0
 27 28  1  0
 28 29  2  0
 21 30  1  0
 30 31  2  0
  5 32  1  0
 32 33  2  0
 33  3  1  0
 14  9  1  0
 19 15  1  0
 28 22  1  0
 30 11  1  0
  1 34  1  0
  1 35  1  0
  1 36  1  0
  2 37  1  0
  2 38  1  0
  4 39  1  0
 10 40  1  0
 13 41  1  0
 16 42  1  0
 18 43  1  0
 20 44  1  0
 20 45  1  0
 22 46  1  1
 23 47  1  0
 23 48  1  0
 24 49  1  0
 24 50  1  0
 27 51  1  0
 32 52  1  0
M  END
>  <meeko>  (647) 
{"is_sidechain": [true], "free_energy": -10.64, "intermolecular_energy": 0.0, "internal_energy": -10.64, "cluster_size": 20, "cluster_id": 1, "rank_in_cluster": 1}

>  <_RMSD_MCS_to_ref>  (647) 
0.7649497078602981

$$$$
ligand
     RDKit          3D

 50 53  0  0  0  0  0  0  0  0999 V2000
   18.8250   19.0180    7.5350 C   0  0  0  0  0  0  0  0  0  0  0  0
   18.5200   17.5410    7.7330 C   0  0  0  0  0  0  0  0  0  0  0  0
   19.7200   16.7740    8.1640 C   0  0  0  0  0  0  0  0  0  0  0  0
   19.9180   16.0580    9.3290 C   0  0  0  0  0  0  0  0  0  0  0  0
   21.1680   15.5280    9.1890 N   0  0  0  0  0  0  0  0  0  0  0  0
   22.0410   14.7120   10.3740 S   0  0  0  0  0  6  0  0  0  0  0  0
   21.4950   15.1660   11.6400 O   0  0  0  0  0  0  0  0  0  0  0  0
   22.0160   13.3180    9.9710 O   0  0  0  0  0  0  0  0  0  0  0  0
   23.7080   15.3120   10.2210 C   0  0  0  0  0  0  0  0  0  0  0  0
   24.0820   16.1020   11.2620 N   0  0  0  0  0  0  0  0  0  0  0  0
   25.3230   16.6360   11.1870 C   0  0  0  0  0  0  0  0  0  0  0  0
   25.7240   17.5280   12.3230 C   0  0  0  0  0  0  0  0  0  0  0  0
   26.7960   18.1200   12.3270 O   0  0  0  0  0  0  0  0  0  0  0  0
   24.7950   17.6180   13.3350 N   0  0  0  0  0  0  0  0  0  0  0  0
   25.0030   18.4250   14.5230 C   0  0  1  0  0  0  0  0  0  0  0  0
   26.0700   17.8070   15.4190 C   0  0  0  0  0  0  0  0  0  0  0  0
   26.2760   18.6830   16.6450 C   0  0  0  0  0  0  0  0  0  0  0  0
   26.6250   20.1000   16.2560 C   0  0  0  0  0  0  0  0  0  0  0  0
   27.3280   20.8200   16.9580 O   0  0  0  0  0  0  0  0  0  0  0  0
   26.0750   20.5720   15.0910 N   0  0  0  0  0  0  0  0  0  0  0  0
   25.4210   19.8450   14.1240 C   0  0  0  0  0  0  0  0  0  0  0  0
   25.1670   20.3460   13.0290 O   0  0  0  0  0  0  0  0  0  0  0  0
   26.1950   16.4120   10.1330 C   0  0  0  0  0  0  0  0  0  0  0  0
   25.7850   15.5840    9.0780 C   0  0  0  0  0  0  0  0  0  0  0  0
   26.6460   15.3350    7.9980 C   0  0  0  0  0  0  0  0  0  0  0  0
   26.2500   14.5190    6.9390 C   0  0  0  0  0  0  0  0  0  0  0  0
   24.9870   13.9410    6.9440 C   0  0  0  0  0  0  0  0  0  0  0  0
   24.1160   14.1760    8.0090 C   0  0  0  0  0  0  0  0  0  0  0  0
   24.4960   15.0010    9.0970 C   0  0  0  0  0  0  0  0  0  0  0  0
   21.7010   15.9510    8.0110 C   0  0  0  0  0  0  0  0  0  0  0  0
   20.8470   16.7190    7.3660 N   0  0  0  0  0  0  0  0  0  0  0  0
   18.9258   19.5062    8.5155 H   0  0  0  0  0  0  0  0  0  0  0  0
   19.7645   19.1263    6.9731 H   0  0  0  0  0  0  0  0  0  0  0  0
   18.0053   19.4896    6.9731 H   0  0  0  0  0  0  0  0  0  0  0  0
   17.7397   17.4400    8.5017 H   0  0  0  0  0  0  0  0  0  0  0  0
   18.1855   17.1321    6.7682 H   0  0  0  0  0  0  0  0  0  0  0  0
   19.2260   15.9416   10.1761 H   0  0  0  0  0  0  0  0  0  0  0  0
   23.9151   17.0902   13.2451 H   0  0  0  0  0  0  0  0  0  0  0  0
   24.0571   18.4653   15.0831 H   0  0  0  0  0  0  0  0  0  0  0  0
   25.7466   16.8044   15.7355 H   0  0  0  0  0  0  0  0  0  0  0  0
   27.0153   17.7299   14.8618 H   0  0  0  0  0  0  0  0  0  0  0  0
   25.3497   18.6923   17.2382 H   0  0  0  0  0  0  0  0  0  0  0  0
   27.1099   18.2689   17.2308 H   0  0  0  0  0  0  0  0  0  0  0  0
   26.1616   21.5843   14.9217 H   0  0  0  0  0  0  0  0  0  0  0  0
   27.1923   16.8761   10.1243 H   0  0  0  0  0  0  0  0  0  0  0  0
   27.6474   15.7900    7.9868 H   0  0  0  0  0  0  0  0  0  0  0  0
   26.9372   14.3332    6.1004 H   0  0  0  0  0  0  0  0  0  0  0  0
   24.6732   13.2980    6.1085 H   0  0  0  0  0  0  0  0  0  0  0  0
   23.1181   13.7132    8.0038 H   0  0  0  0  0  0  0  0  0  0  0  0
   22.7055   15.6882    7.6476 H   0  0  0  0  0  0  0  0  0  0  0  0
  1  2  1  0
  2  3  1  0
  3  4  2  0
  4  5  1  0
  5  6  1  0
  6  7  2  0
  6  8  2  0
  6  9  1  0
  9 10  2  0
 10 11  1  0
 11 12  1  0
 12 13  2  0
 12 14  1  0
 14 15  1  0
 15 16  1  0
 16 17  1  0
 17 18  1  0
 18 19  2  0
 18 20  1  0
 20 21  1  0
 21 22  2  0
 11 23  2  0
 23 24  1  0
 24 25  2  0
 25 26  1  0
 26 27  2  0
 27 28  1  0
 28 29  2  0
  5 30  1  0
 30 31  2  0
 31  3  1  0
 29  9  1  0
 21 15  1  0
 29 24  1  0
  1 32  1  0
  1 33  1  0
  1 34  1  0
  2 35  1  0
  2 36  1  0
  4 37  1  0
 14 38  1  0
 15 39  1  1
 16 40  1  0
 16 41  1  0
 17 42  1  0
 17 43  1  0
 20 44  1  0
 23 45  1  0
 25 46  1  0
 26 47  1  0
 27 48  1  0
 28 49  1  0
 30 50  1  0
M  END
>  <meeko>  (648) 
{"is_sidechain": [true], "free_energy": -10.63, "intermolecular_energy": 0.0, "internal_energy": -10.63, "cluster_size": 11, "cluster_id": 1, "rank_in_cluster": 1}

>  <_RMSD_MCS_to_ref>  (648) 
0.4529531494046108

$$$$
ligand
     RDKit          3D

 48 51  0  0  0  0  0  0  0  0999 V2000
   18.9090   19.1540    7.5370 C   0  0  0  0  0  0  0  0  0  0  0  0
   18.7730   17.6460    7.6780 C   0  0  0  0  0  0  0  0  0  0  0  0
   19.9940   16.9270    7.2240 C   0  0  0  0  0  0  0  0  0  0  0  0
   21.0310   16.4140    7.9780 C   0  0  0  0  0  0  0  0  0  0  0  0
   21.8640   15.8430    7.0580 N   0  0  0  0  0  0  0  0  0  0  0  0
   23.4350   15.2990    7.3580 S   0  0  0  0  0  6  0  0  0  0  0  0
   23.3970   13.8880    7.0130 O   0  0  0  0  0  0  0  0  0  0  0  0
   24.2780   16.2210    6.6170 O   0  0  0  0  0  0  0  0  0  0  0  0
   23.6990   15.4960    9.0670 C   0  0  0  0  0  0  0  0  0  0  0  0
   24.8820   16.1660    9.5910 C   0  0  0  0  0  0  0  0  0  0  0  0
   25.0630   16.3320   10.9150 C   0  0  0  0  0  0  0  0  0  0  0  0
   24.0840   15.8420   11.8310 C   0  0  0  0  0  0  0  0  0  0  0  0
   23.9460   15.8430   13.2100 C   0  0  0  0  0  0  0  0  0  0  0  0
   24.8770   16.4060   14.1750 C   0  0  0  0  0  0  0  0  0  0  0  0
   25.4960   15.7160   14.9800 O   0  0  0  0  0  0  0  0  0  0  0  0
   25.0340   17.7710   14.1210 N   0  0  0  0  0  0  0  0  0  0  0  0
   26.0390   18.4500   14.9270 C   0  0  2  0  0  0  0  0  0  0  0  0
   25.8550   18.1940   16.4200 C   0  0  0  0  0  0  0  0  0  0  0  0
   26.9060   18.9680   17.1990 C   0  0  0  0  0  0  0  0  0  0  0  0
   26.8620   20.4420   16.8690 C   0  0  0  0  0  0  0  0  0  0  0  0
   27.1130   21.3110   17.6990 O   0  0  0  0  0  0  0  0  0  0  0  0
   26.5520   20.7720   15.5740 N   0  0  0  0  0  0  0  0  0  0  0  0
   25.9290   19.9540   14.6650 C   0  0  0  0  0  0  0  0  0  0  0  0
   25.3310   20.4140   13.6920 O   0  0  0  0  0  0  0  0  0  0  0  0
   22.7220   15.1670   13.4130 C   0  0  0  0  0  0  0  0  0  0  0  0
   22.1290   14.7860   12.2820 N   0  0  0  0  0  0  0  0  0  0  0  0
   22.9660   15.1930   11.3010 N   0  0  0  0  0  0  0  0  0  0  0  0
   22.7820   15.0240    9.9300 C   0  0  0  0  0  0  0  0  0  0  0  0
   21.3700   16.0650    5.8130 C   0  0  0  0  0  0  0  0  0  0  0  0
   20.2240   16.7100    5.8790 N   0  0  0  0  0  0  0  0  0  0  0  0
   18.9504   19.6134    8.5356 H   0  0  0  0  0  0  0  0  0  0  0  0
   19.8320   19.3891    6.9867 H   0  0  0  0  0  0  0  0  0  0  0  0
   18.0430   19.5504    6.9867 H   0  0  0  0  0  0  0  0  0  0  0  0
   18.5920   17.4039    8.7357 H   0  0  0  0  0  0  0  0  0  0  0  0
   17.9346   17.3217    7.0441 H   0  0  0  0  0  0  0  0  0  0  0  0
   21.1574   16.4556    9.0699 H   0  0  0  0  0  0  0  0  0  0  0  0
   25.6422   16.5436    8.8913 H   0  0  0  0  0  0  0  0  0  0  0  0
   25.9621   16.8434   11.2893 H   0  0  0  0  0  0  0  0  0  0  0  0
   24.4286   18.3243   13.4979 H   0  0  0  0  0  0  0  0  0  0  0  0
   27.0274   18.0596   14.6428 H   0  0  0  0  0  0  0  0  0  0  0  0
   24.8523   18.5250   16.7281 H   0  0  0  0  0  0  0  0  0  0  0  0
   25.9645   17.1187   16.6243 H   0  0  0  0  0  0  0  0  0  0  0  0
   26.7225   18.8366   18.2756 H   0  0  0  0  0  0  0  0  0  0  0  0
   27.8975   18.5805   16.9220 H   0  0  0  0  0  0  0  0  0  0  0  0
   26.8096   21.7172   15.2558 H   0  0  0  0  0  0  0  0  0  0  0  0
   22.2988   14.9736   14.4098 H   0  0  0  0  0  0  0  0  0  0  0  0
   21.8878   14.5052    9.5542 H   0  0  0  0  0  0  0  0  0  0  0  0
   21.8590   15.7500    4.8794 H   0  0  0  0  0  0  0  0  0  0  0  0
  1  2  1  0
  2  3  1  0
  3  4  2  0
  4  5  1  0
  5  6  1  0
  6  7  2  0
  6  8  2  0
  6  9  1  0
  9 10  1  0
 10 11  2  0
 11 12  1  0
 12 13  2  0
 13 14  1  0
 14 15  2  0
 14 16  1  0
 16 17  1  0
 17 18  1  0
 18 19  1  0
 19 20  1  0
 20 21  2  0
 20 22  1  0
 22 23  1  0
 23 24  2  0
 13 25  1  0
 25 26  2  0
 26 27  1  0
 27 28  1  0
  5 29  1  0
 29 30  2  0
 30  3  1  0
 28  9  2  0
 27 12  1  0
 23 17  1  0
  1 31  1  0
  1 32  1  0
  1 33  1  0
  2 34  1  0
  2 35  1  0
  4 36  1  0
 10 37  1  0
 11 38  1  0
 16 39  1  0
 17 40  1  6
 18 41  1  0
 18 42  1  0
 19 43  1  0
 19 44  1  0
 22 45  1  0
 25 46  1  0
 28 47  1  0
 29 48  1  0
M  END
>  <meeko>  (649) 
{"is_sidechain": [true], "free_energy": -10.63, "intermolecular_energy": 0.0, "internal_energy": -10.63, "cluster_size": 14, "cluster_id": 1, "rank_in_cluster": 1}

>  <_RMSD_MCS_to_ref>  (649) 
0.8537993519166747

$$$$
ligand
     RDKit          3D

 48 51  0  0  0  0  0  0  0  0999 V2000
   18.9090   19.1540    7.5370 C   0  0  0  0  0  0  0  0  0  0  0  0
   18.7730   17.6460    7.6780 C   0  0  0  0  0  0  0  0  0  0  0  0
   20.0590   16.9550    7.9840 C   0  0  0  0  0  0  0  0  0  0  0  0
   20.3130   16.0420    8.9890 C   0  0  0  0  0  0  0  0  0  0  0  0
   21.6310   15.7190    8.8260 N   0  0  0  0  0  0  0  0  0  0  0  0
   22.5510   14.7840    9.8920 S   0  0  0  0  0  6  0  0  0  0  0  0
   22.0230   13.4380    9.7520 O   0  0  0  0  0  0  0  0  0  0  0  0
   22.4050   15.4870   11.1570 O   0  0  0  0  0  0  0  0  0  0  0  0
   24.2140   14.7940    9.4350 C   0  0  0  0  0  0  0  0  0  0  0  0
   24.6300   13.9590    8.4620 C   0  0  0  0  0  0  0  0  0  0  0  0
   26.0270   13.9850    8.0610 C   0  0  0  0  0  0  0  0  0  0  0  0
   26.9070   14.8260    8.6350 C   0  0  0  0  0  0  0  0  0  0  0  0
   26.4630   15.7090    9.6590 C   0  0  0  0  0  0  0  0  0  0  0  0
   27.0740   16.6540   10.4470 C   0  0  0  0  0  0  0  0  0  0  0  0
   26.0530   17.1580   11.2820 C   0  0  0  0  0  0  0  0  0  0  0  0
   26.1790   18.1660   12.3460 C   0  0  0  0  0  0  0  0  0  0  0  0
   27.1030   18.9710   12.3950 O   0  0  0  0  0  0  0  0  0  0  0  0
   25.1660   18.1040   13.2820 N   0  0  0  0  0  0  0  0  0  0  0  0
   25.2900   18.7620   14.5670 C   0  0  1  0  0  0  0  0  0  0  0  0
   26.3210   18.0520   15.4360 C   0  0  0  0  0  0  0  0  0  0  0  0
   26.4500   18.7690   16.7700 C   0  0  0  0  0  0  0  0  0  0  0  0
   26.7930   20.2270   16.5760 C   0  0  0  0  0  0  0  0  0  0  0  0
   27.4870   20.8510   17.3740 O   0  0  0  0  0  0  0  0  0  0  0  0
   26.2550   20.8430   15.4760 N   0  0  0  0  0  0  0  0  0  0  0  0
   25.7130   20.2270   14.3710 C   0  0  0  0  0  0  0  0  0  0  0  0
   25.5680   20.8520   13.3220 O   0  0  0  0  0  0  0  0  0  0  0  0
   24.8710   16.5800   11.0020 N   0  0  0  0  0  0  0  0  0  0  0  0
   25.1140   15.6750   10.0280 N   0  0  0  0  0  0  0  0  0  0  0  0
   22.1320   16.4130    7.7710 C   0  0  0  0  0  0  0  0  0  0  0  0
   21.2100   17.2030    7.2550 N   0  0  0  0  0  0  0  0  0  0  0  0
   18.9504   19.6134    8.5356 H   0  0  0  0  0  0  0  0  0  0  0  0
   19.8320   19.3891    6.9867 H   0  0  0  0  0  0  0  0  0  0  0  0
   18.0430   19.5504    6.9867 H   0  0  0  0  0  0  0  0  0  0  0  0
   18.0633   17.4357    8.4917 H   0  0  0  0  0  0  0  0  0  0  0  0
   18.4242   17.2621    6.7080 H   0  0  0  0  0  0  0  0  0  0  0  0
   19.6136   15.6614    9.7479 H   0  0  0  0  0  0  0  0  0  0  0  0
   23.9231   13.2685    7.9788 H   0  0  0  0  0  0  0  0  0  0  0  0
   26.3725   13.3021    7.2709 H   0  0  0  0  0  0  0  0  0  0  0  0
   27.9596   14.8309    8.3157 H   0  0  0  0  0  0  0  0  0  0  0  0
   28.1322   16.9539   10.4309 H   0  0  0  0  0  0  0  0  0  0  0  0
   24.3065   17.5805   13.0629 H   0  0  0  0  0  0  0  0  0  0  0  0
   24.3117   18.7249   15.0686 H   0  0  0  0  0  0  0  0  0  0  0  0
   26.0006   17.0139   15.6086 H   0  0  0  0  0  0  0  0  0  0  0  0
   27.2946   18.0587   14.9240 H   0  0  0  0  0  0  0  0  0  0  0  0
   25.4954   18.6940   17.3113 H   0  0  0  0  0  0  0  0  0  0  0  0
   27.2597   18.2942   17.3435 H   0  0  0  0  0  0  0  0  0  0  0  0
   26.2565   21.8730   15.4764 H   0  0  0  0  0  0  0  0  0  0  0  0
   23.1635   16.3280    7.3986 H   0  0  0  0  0  0  0  0  0  0  0  0
  1  2  1  0
  2  3  1  0
  3  4  2  0
  4  5  1  0
  5  6  1  0
  6  7  2  0
  6  8  2  0
  6  9  1  0
  9 10  2  0
 10 11  1  0
 11 12  2  0
 12 13  1  0
 13 14  2  0
 14 15  1  0
 15 16  1  0
 16 17  2  0
 16 18  1  0
 18 19  1  0
 19 20  1  0
 20 21  1  0
 21 22  1  0
 22 23  2  0
 22 24  1  0
 24 25  1  0
 25 26  2  0
 15 27  2  0
 27 28  1  0
  5 29  1  0
 29 30  2  0
 30  3  1  0
 28  9  1  0
 28 13  1  0
 25 19  1  0
  1 31  1  0
  1 32  1  0
  1 33  1  0
  2 34  1  0
  2 35  1  0
  4 36  1  0
 10 37  1  0
 11 38  1  0
 12 39  1  0
 14 40  1  0
 18 41  1  0
 19 42  1  1
 20 43  1  0
 20 44  1  0
 21 45  1  0
 21 46  1  0
 24 47  1  0
 29 48  1  0
M  END
>  <meeko>  (650) 
{"is_sidechain": [true], "free_energy": -10.63, "intermolecular_energy": 0.0, "internal_energy": -10.63, "cluster_size": 9, "cluster_id": 1, "rank_in_cluster": 1}

>  <_RMSD_MCS_to_ref>  (650) 
0.6502704565537842

$$$$
ligand
     RDKit          3D

 50 53  0  0  0  0  0  0  0  0999 V2000
   18.9090   19.1540    7.5370 C   0  0  0  0  0  0  0  0  0  0  0  0
   18.7730   17.6460    7.6780 C   0  0  0  0  0  0  0  0  0  0  0  0
   20.0690   16.9440    7.4780 C   0  0  0  0  0  0  0  0  0  0  0  0
   20.7620   16.1300    8.3520 C   0  0  0  0  0  0  0  0  0  0  0  0
   21.8870   15.7770    7.6630 N   0  0  0  0  0  0  0  0  0  0  0  0
   23.0720   14.7170    8.2030 S   0  0  0  0  0  6  0  0  0  0  0  0
   24.1730   14.9040    7.2740 O   0  0  0  0  0  0  0  0  0  0  0  0
   22.4360   13.4280    8.3870 O   0  0  0  0  0  0  0  0  0  0  0  0
   23.5890   15.3210    9.7750 C   0  0  0  0  0  0  0  0  0  0  0  0
   22.8370   15.0200   10.9160 C   0  0  0  0  0  0  0  0  0  0  0  0
   23.2430   15.4950   12.1750 C   0  0  0  0  0  0  0  0  0  0  0  0
   24.4040   16.2760   12.3080 C   0  0  0  0  0  0  0  0  0  0  0  0
   24.8290   16.8140   13.6300 C   0  0  0  0  0  0  0  0  0  0  0  0
   24.9440   16.0770   14.6020 O   0  0  0  0  0  0  0  0  0  0  0  0
   25.0470   18.1720   13.6930 N   0  0  0  0  0  0  0  0  0  0  0  0
   25.3170   18.8330   14.9640 C   0  0  1  0  0  0  0  0  0  0  0  0
   26.4000   18.1200   15.7670 C   0  0  0  0  0  0  0  0  0  0  0  0
   26.6610   18.8840   17.0560 C   0  0  0  0  0  0  0  0  0  0  0  0
   27.0210   20.3250   16.7770 C   0  0  0  0  0  0  0  0  0  0  0  0
   27.8090   20.9540   17.4760 O   0  0  0  0  0  0  0  0  0  0  0  0
   26.3960   20.9190   15.7100 N   0  0  0  0  0  0  0  0  0  0  0  0
   25.7700   20.2670   14.6770 C   0  0  0  0  0  0  0  0  0  0  0  0
   25.5800   20.8200   13.5930 O   0  0  0  0  0  0  0  0  0  0  0  0
   25.1310   16.5670   11.1580 C   0  0  0  0  0  0  0  0  0  0  0  0
   24.7250   16.0930    9.9140 C   0  0  0  0  0  0  0  0  0  0  0  0
   25.5400   16.4980    8.8930 O   0  0  0  0  0  0  0  0  0  0  0  0
   26.7130   17.0230    9.5560 C   0  0  0  0  0  0  0  0  0  0  0  0
   26.3340   17.4200   10.9790 C   0  0  0  0  0  0  0  0  0  0  0  0
   21.8490   16.3400    6.4290 C   0  0  0  0  0  0  0  0  0  0  0  0
   20.7540   17.0600    6.2840 N   0  0  0  0  0  0  0  0  0  0  0  0
   18.9504   19.6134    8.5356 H   0  0  0  0  0  0  0  0  0  0  0  0
   19.8320   19.3891    6.9867 H   0  0  0  0  0  0  0  0  0  0  0  0
   18.0430   19.5504    6.9867 H   0  0  0  0  0  0  0  0  0  0  0  0
   18.3979   17.4169    8.6864 H   0  0  0  0  0  0  0  0  0  0  0  0
   18.0759   17.2957    6.9025 H   0  0  0  0  0  0  0  0  0  0  0  0
   20.4735   15.8334    9.3712 H   0  0  0  0  0  0  0  0  0  0  0  0
   21.9258   14.4101   10.8274 H   0  0  0  0  0  0  0  0  0  0  0  0
   22.6454   15.2528   13.0662 H   0  0  0  0  0  0  0  0  0  0  0  0
   25.0189   18.7301   12.8278 H   0  0  0  0  0  0  0  0  0  0  0  0
   24.3945   18.8153   15.5629 H   0  0  0  0  0  0  0  0  0  0  0  0
   26.0668   17.0994   16.0067 H   0  0  0  0  0  0  0  0  0  0  0  0
   27.3255   18.0738   15.1743 H   0  0  0  0  0  0  0  0  0  0  0  0
   25.7551   18.8552   17.6793 H   0  0  0  0  0  0  0  0  0  0  0  0
   27.5063   18.4094   17.5758 H   0  0  0  0  0  0  0  0  0  0  0  0
   26.3965   21.9486   15.6814 H   0  0  0  0  0  0  0  0  0  0  0  0
   27.4984   16.2533    9.5832 H   0  0  0  0  0  0  0  0  0  0  0  0
   27.0908   17.9002    9.0103 H   0  0  0  0  0  0  0  0  0  0  0  0
   27.1261   17.1692   11.6999 H   0  0  0  0  0  0  0  0  0  0  0  0
   26.1732   18.4965   11.1382 H   0  0  0  0  0  0  0  0  0  0  0  0
   22.6231   16.2135    5.6578 H   0  0  0  0  0  0  0  0  0  0  0  0
  1  2  1  0
  2  3  1  0
  3  4  2  0
  4  5  1  0
  5  6  1  0
  6  7  2  0
  6  8  2  0
  6  9  1  0
  9 10  2  0
 10 11  1  0
 11 12  2  0
 12 13  1  0
 13 14  2  0
 13 15  1  0
 15 16  1  0
 16 17  1  0
 17 18  1  0
 18 19  1  0
 19 20  2  0
 19 21  1  0
 21 22  1  0
 22 23  2  0
 12 24  1  0
 24 25  2  0
 25 26  1  0
 26 27  1  0
 27 28  1  0
  5 29  1  0
 29 30  2  0
 30  3  1  0
 25  9  1  0
 22 16  1  0
 28 24  1  0
  1 31  1  0
  1 32  1  0
  1 33  1  0
  2 34  1  0
  2 35  1  0
  4 36  1  0
 10 37  1  0
 11 38  1  0
 15 39  1  0
 16 40  1  1
 17 41  1  0
 17 42  1  0
 18 43  1  0
 18 44  1  0
 21 45  1  0
 27 46  1  0
 27 47  1  0
 28 48  1  0
 28 49  1  0
 29 50  1  0
M  END
>  <meeko>  (651) 
{"is_sidechain": [true], "free_energy": -10.63, "intermolecular_energy": 0.0, "internal_energy": -10.63, "cluster_size": 15, "cluster_id": 1, "rank_in_cluster": 1}

>  <_RMSD_MCS_to_ref>  (651) 
0.7639852383681537

$$$$
ligand
     RDKit          3D

 49 52  0  0  0  0  0  0  0  0999 V2000
   18.9090   19.1540    7.5370 C   0  0  0  0  0  0  0  0  0  0  0  0
   18.7730   17.6460    7.6780 C   0  0  0  0  0  0  0  0  0  0  0  0
   20.0190   16.9310    7.2880 C   0  0  0  0  0  0  0  0  0  0  0  0
   20.9900   16.3730    8.0950 C   0  0  0  0  0  0  0  0  0  0  0  0
   21.9140   15.8830    7.2170 N   0  0  0  0  0  0  0  0  0  0  0  0
   23.2160   14.8860    7.6110 S   0  0  0  0  0  6  0  0  0  0  0  0
   24.0350   14.8630    6.4140 O   0  0  0  0  0  0  0  0  0  0  0  0
   22.6090   13.6780    8.1370 O   0  0  0  0  0  0  0  0  0  0  0  0
   24.0210   15.6510    8.8030 O   0  0  0  0  0  0  0  0  0  0  0  0
   23.5870   15.6600   10.1040 C   0  0  0  0  0  0  0  0  0  0  0  0
   22.5310   14.9000   10.6120 C   0  0  0  0  0  0  0  0  0  0  0  0
   22.1800   14.9950   11.9630 C   0  0  0  0  0  0  0  0  0  0  0  0
   22.8750   15.8590   12.8150 C   0  0  0  0  0  0  0  0  0  0  0  0
   23.9380   16.6130   12.3040 C   0  0  0  0  0  0  0  0  0  0  0  0
   24.2910   16.5160   10.9540 C   0  0  0  0  0  0  0  0  0  0  0  0
   24.7050   17.5100   13.2100 C   0  0  0  0  0  0  0  0  0  0  0  0
   25.7450   18.0300   12.8170 O   0  0  0  0  0  0  0  0  0  0  0  0
   24.1760   17.7000   14.4950 N   0  0  0  0  0  0  0  0  0  0  0  0
   24.8240   18.6020   15.4540 C   0  0  1  0  0  0  0  0  0  0  0  0
   25.9700   17.9520   16.2280 C   0  0  0  0  0  0  0  0  0  0  0  0
   26.5470   18.9580   17.2100 C   0  0  0  0  0  0  0  0  0  0  0  0
   26.9980   20.2180   16.5090 C   0  0  0  0  0  0  0  0  0  0  0  0
   27.8630   20.9530   16.9760 O   0  0  0  0  0  0  0  0  0  0  0  0
   26.3360   20.5510   15.3540 N   0  0  0  0  0  0  0  0  0  0  0  0
   25.2830   19.8920   14.7600 C   0  0  0  0  0  0  0  0  0  0  0  0
   24.7090   20.3900   13.7900 O   0  0  0  0  0  0  0  0  0  0  0  0
   22.8390   17.2940   14.7960 N   0  0  0  0  0  0  0  0  0  0  0  0
   22.5510   15.9530   14.2790 C   0  0  0  0  0  0  0  0  0  0  0  0
   21.4650   16.0680    5.9490 C   0  0  0  0  0  0  0  0  0  0  0  0
   20.3250   16.7280    5.9560 N   0  0  0  0  0  0  0  0  0  0  0  0
   18.9504   19.6134    8.5356 H   0  0  0  0  0  0  0  0  0  0  0  0
   19.8320   19.3891    6.9867 H   0  0  0  0  0  0  0  0  0  0  0  0
   18.0430   19.5504    6.9867 H   0  0  0  0  0  0  0  0  0  0  0  0
   18.5410   17.4076    8.7265 H   0  0  0  0  0  0  0  0  0  0  0  0
   17.9684   17.3147    7.0051 H   0  0  0  0  0  0  0  0  0  0  0  0
   21.0140   16.3323    9.1940 H   0  0  0  0  0  0  0  0  0  0  0  0
   21.9731   14.2241    9.9473 H   0  0  0  0  0  0  0  0  0  0  0  0
   21.3527   14.3866   12.3572 H   0  0  0  0  0  0  0  0  0  0  0  0
   25.1253   17.1155   10.5607 H   0  0  0  0  0  0  0  0  0  0  0  0
   24.0615   18.8527   16.2061 H   0  0  0  0  0  0  0  0  0  0  0  0
   25.5925   17.0770   16.7775 H   0  0  0  0  0  0  0  0  0  0  0  0
   26.7537   17.6313   15.5258 H   0  0  0  0  0  0  0  0  0  0  0  0
   25.7763   19.2172   17.9508 H   0  0  0  0  0  0  0  0  0  0  0  0
   27.4210   18.5023   17.6982 H   0  0  0  0  0  0  0  0  0  0  0  0
   26.6678   21.3986   14.8719 H   0  0  0  0  0  0  0  0  0  0  0  0
   22.7128   17.2920   15.8182 H   0  0  0  0  0  0  0  0  0  0  0  0
   23.1564   15.2177   14.8293 H   0  0  0  0  0  0  0  0  0  0  0  0
   21.4787   15.7482   14.4143 H   0  0  0  0  0  0  0  0  0  0  0  0
   21.9807   15.7162    5.0433 H   0  0  0  0  0  0  0  0  0  0  0  0
  1  2  1  0
  2  3  1  0
  3  4  2  0
  4  5  1  0
  5  6  1  0
  6  7  2  0
  6  8  2  0
  6  9  1  0
  9 10  1  0
 10 11  2  0
 11 12  1  0
 12 13  2  0
 13 14  1  0
 14 15  2  0
 14 16  1  0
 16 17  2  0
 16 18  1  0
 18 19  1  0
 19 20  1  0
 20 21  1  0
 21 22  1  0
 22 23  2  0
 22 24  1  0
 24 25  1  0
 25 26  2  0
 18 27  1  0
 27 28  1  0
  5 29  1  0
 29 30  2  0
 30  3  1  0
 15 10  1  0
 25 19  1  0
 28 13  1  0
  1 31  1  0
  1 32  1  0
  1 33  1  0
  2 34  1  0
  2 35  1  0
  4 36  1  0
 11 37  1  0
 12 38  1  0
 15 39  1  0
 19 40  1  1
 20 41  1  0
 20 42  1  0
 21 43  1  0
 21 44  1  0
 24 45  1  0
 27 46  1  0
 28 47  1  0
 28 48  1  0
 29 49  1  0
M  END
>  <meeko>  (652) 
{"is_sidechain": [true], "free_energy": -10.63, "intermolecular_energy": 0.0, "internal_energy": -10.63, "cluster_size": 20, "cluster_id": 1, "rank_in_cluster": 1}

>  <_RMSD_MCS_to_ref>  (652) 
0.6253049922504487

$$$$
ligand
     RDKit          3D

 50 53  0  0  0  0  0  0  0  0999 V2000
   18.9090   19.1540    7.5370 C   0  0  0  0  0  0  0  0  0  0  0  0
   18.7730   17.6460    7.6780 C   0  0  0  0  0  0  0  0  0  0  0  0
   20.0950   16.9610    7.6940 C   0  0  0  0  0  0  0  0  0  0  0  0
   20.9850   16.8140    8.7390 C   0  0  0  0  0  0  0  0  0  0  0  0
   22.0250   16.1180    8.1970 N   0  0  0  0  0  0  0  0  0  0  0  0
   23.3650   15.5100    9.0080 S   0  0  0  0  0  6  0  0  0  0  0  0
   23.5880   14.2040    8.4170 O   0  0  0  0  0  0  0  0  0  0  0  0
   24.3800   16.5440    8.9790 O   0  0  0  0  0  0  0  0  0  0  0  0
   22.8050   15.2810   10.6870 C   0  0  0  0  0  0  0  0  0  0  0  0
   23.5120   15.9840   11.6810 C   0  0  0  0  0  0  0  0  0  0  0  0
   23.1740   15.8280   13.0250 C   0  0  0  0  0  0  0  0  0  0  0  0
   23.9030   16.5330   14.1160 C   0  0  0  0  0  0  0  0  0  0  0  0
   24.2360   15.9250   15.1250 O   0  0  0  0  0  0  0  0  0  0  0  0
   24.1410   17.8760   13.9320 N   0  0  0  0  0  0  0  0  0  0  0  0
   24.7100   18.6860   15.0020 C   0  0  1  0  0  0  0  0  0  0  0  0
   25.8400   17.9670   15.7310 C   0  0  0  0  0  0  0  0  0  0  0  0
   26.4160   18.8800   16.8010 C   0  0  0  0  0  0  0  0  0  0  0  0
   26.8740   20.1940   16.2140 C   0  0  0  0  0  0  0  0  0  0  0  0
   27.8390   20.8120   16.6530 O   0  0  0  0  0  0  0  0  0  0  0  0
   26.1350   20.6920   15.1700 N   0  0  0  0  0  0  0  0  0  0  0  0
   25.2550   19.9820   14.3920 C   0  0  0  0  0  0  0  0  0  0  0  0
   24.9200   20.3810   13.2780 O   0  0  0  0  0  0  0  0  0  0  0  0
   22.1460   14.9510   13.3730 C   0  0  0  0  0  0  0  0  0  0  0  0
   21.4190   14.2590   12.3900 C   0  0  0  0  0  0  0  0  0  0  0  0
   20.3780   13.4010   12.7530 C   0  0  0  0  0  0  0  0  0  0  0  0
   19.6130   12.7110   11.8830 N   0  0  0  0  0  0  0  0  0  0  0  0
   19.8860   12.8830   10.5790 C   0  0  0  0  0  0  0  0  0  0  0  0
   20.9010   13.7050   10.1090 C   0  0  0  0  0  0  0  0  0  0  0  0
   21.7190   14.4190   11.0160 C   0  0  0  0  0  0  0  0  0  0  0  0
   21.7610   15.8670    6.8880 C   0  0  0  0  0  0  0  0  0  0  0  0
   20.5890   16.3590    6.5530 N   0  0  0  0  0  0  0  0  0  0  0  0
   18.9504   19.6134    8.5356 H   0  0  0  0  0  0  0  0  0  0  0  0
   19.8320   19.3891    6.9867 H   0  0  0  0  0  0  0  0  0  0  0  0
   18.0430   19.5504    6.9867 H   0  0  0  0  0  0  0  0  0  0  0  0
   18.2477   17.4241    8.6186 H   0  0  0  0  0  0  0  0  0  0  0  0
   18.2109   17.2749    6.8083 H   0  0  0  0  0  0  0  0  0  0  0  0
   20.8794   17.1756    9.7725 H   0  0  0  0  0  0  0  0  0  0  0  0
   24.3333   16.6582   11.3967 H   0  0  0  0  0  0  0  0  0  0  0  0
   23.9144   18.3139   13.0277 H   0  0  0  0  0  0  0  0  0  0  0  0
   23.9169   18.8899   15.7364 H   0  0  0  0  0  0  0  0  0  0  0  0
   25.4493   17.0525   16.2011 H   0  0  0  0  0  0  0  0  0  0  0  0
   26.6293   17.7020   15.0121 H   0  0  0  0  0  0  0  0  0  0  0  0
   25.6429   19.0762   17.5585 H   0  0  0  0  0  0  0  0  0  0  0  0
   27.2856   18.3799   17.2523 H   0  0  0  0  0  0  0  0  0  0  0  0
   26.2517   21.6914   14.9500 H   0  0  0  0  0  0  0  0  0  0  0  0
   21.9008   14.7990   14.4345 H   0  0  0  0  0  0  0  0  0  0  0  0
   20.1672   13.2796   13.8258 H   0  0  0  0  0  0  0  0  0  0  0  0
   19.2717   12.3430    9.8435 H   0  0  0  0  0  0  0  0  0  0  0  0
   21.0701   13.8017    9.0264 H   0  0  0  0  0  0  0  0  0  0  0  0
   22.4335   15.3278    6.2046 H   0  0  0  0  0  0  0  0  0  0  0  0
  1  2  1  0
  2  3  1  0
  3  4  2  0
  4  5  1  0
  5  6  1  0
  6  7  2  0
  6  8  2  0
  6  9  1  0
  9 10  2  0
 10 11  1  0
 11 12  1  0
 12 13  2  0
 12 14  1  0
 14 15  1  0
 15 16  1  0
 16 17  1  0
 17 18  1  0
 18 19  2  0
 18 20  1  0
 20 21  1  0
 21 22  2  0
 11 23  2  0
 23 24  1  0
 24 25  2  0
 25 26  1  0
 26 27  2  0
 27 28  1  0
 28 29  2  0
  5 30  1  0
 30 31  2  0
 31  3  1  0
 29  9  1  0
 21 15  1  0
 29 24  1  0
  1 32  1  0
  1 33  1  0
  1 34  1  0
  2 35  1  0
  2 36  1  0
  4 37  1  0
 10 38  1  0
 14 39  1  0
 15 40  1  1
 16 41  1  0
 16 42  1  0
 17 43  1  0
 17 44  1  0
 20 45  1  0
 23 46  1  0
 25 47  1  0
 27 48  1  0
 28 49  1  0
 30 50  1  0
M  END
>  <meeko>  (653) 
{"is_sidechain": [true], "free_energy": -10.63, "intermolecular_energy": 0.0, "internal_energy": -10.63, "cluster_size": 20, "cluster_id": 1, "rank_in_cluster": 1}

>  <_RMSD_MCS_to_ref>  (653) 
0.4619350603710444

$$$$
ligand
     RDKit          3D

 54 58  0  0  0  0  0  0  0  0999 V2000
   18.9090   19.1540    7.5370 C   0  0  0  0  0  0  0  0  0  0  0  0
   18.7730   17.6460    7.6780 C   0  0  0  0  0  0  0  0  0  0  0  0
   19.6620   16.9110    6.7370 C   0  0  0  0  0  0  0  0  0  0  0  0
   20.1570   15.6250    6.8320 C   0  0  0  0  0  0  0  0  0  0  0  0
   20.8900   15.4630    5.6920 N   0  0  0  0  0  0  0  0  0  0  0  0
   21.9260   14.1820    5.3670 S   0  0  0  0  0  6  0  0  0  0  0  0
   21.1800   12.9820    5.6910 O   0  0  0  0  0  0  0  0  0  0  0  0
   22.4670   14.4310    4.0460 O   0  0  0  0  0  0  0  0  0  0  0  0
   23.2130   14.3800    6.5400 C   0  0  0  0  0  0  0  0  0  0  0  0
   24.5040   14.0780    6.1740 C   0  0  0  0  0  0  0  0  0  0  0  0
   25.5160   14.2180    7.0430 N   0  0  0  0  0  0  0  0  0  0  0  0
   25.2600   14.6800    8.3140 N   0  0  0  0  0  0  0  0  0  0  0  0
   24.0030   15.0040    8.7050 C   0  0  0  0  0  0  0  0  0  0  0  0
   23.8600   15.5040   10.0870 C   0  0  0  0  0  0  0  0  0  0  0  0
   22.7160   15.2040   10.8740 C   0  0  0  0  0  0  0  0  0  0  0  0
   22.5730   15.6790   12.1840 C   0  0  0  0  0  0  0  0  0  0  0  0
   23.5960   16.4510   12.6950 C   0  0  0  0  0  0  0  0  0  0  0  0
   24.7350   16.7630   11.9610 C   0  0  0  0  0  0  0  0  0  0  0  0
   24.8790   16.2970   10.6630 C   0  0  0  0  0  0  0  0  0  0  0  0
   25.6480   17.6200   12.7730 C   0  0  0  0  0  0  0  0  0  0  0  0
   24.9620   17.6840   14.0590 N   0  0  0  0  0  0  0  0  0  0  0  0
   25.3280   18.6150   15.1190 C   0  0  1  0  0  0  0  0  0  0  0  0
   26.2670   17.9900   16.1470 C   0  0  0  0  0  0  0  0  0  0  0  0
   26.5300   18.9890   17.2630 C   0  0  0  0  0  0  0  0  0  0  0  0
   27.0750   20.2880   16.7160 C   0  0  0  0  0  0  0  0  0  0  0  0
   27.9100   20.9550   17.3190 O   0  0  0  0  0  0  0  0  0  0  0  0
   26.5740   20.7040   15.5090 N   0  0  0  0  0  0  0  0  0  0  0  0
   25.9740   19.8980   14.5680 C   0  0  0  0  0  0  0  0  0  0  0  0
   25.9840   20.2170   13.3820 O   0  0  0  0  0  0  0  0  0  0  0  0
   23.7170   17.0740   14.0160 C   0  0  0  0  0  0  0  0  0  0  0  0
   22.8670   17.0430   14.8840 O   0  0  0  0  0  0  0  0  0  0  0  0
   22.9460   14.8660    7.8180 C   0  0  0  0  0  0  0  0  0  0  0  0
   20.8640   16.6170    4.9770 C   0  0  0  0  0  0  0  0  0  0  0  0
   20.1200   17.5190    5.5840 N   0  0  0  0  0  0  0  0  0  0  0  0
   18.9504   19.6134    8.5356 H   0  0  0  0  0  0  0  0  0  0  0  0
   19.8320   19.3891    6.9867 H   0  0  0  0  0  0  0  0  0  0  0  0
   18.0430   19.5504    6.9867 H   0  0  0  0  0  0  0  0  0  0  0  0
   19.0346   17.3614    8.7079 H   0  0  0  0  0  0  0  0  0  0  0  0
   17.7333   17.3769    7.4402 H   0  0  0  0  0  0  0  0  0  0  0  0
   19.9970   14.8976    7.6415 H   0  0  0  0  0  0  0  0  0  0  0  0
   24.7091   13.7170    5.1554 H   0  0  0  0  0  0  0  0  0  0  0  0
   21.9193   14.5805   10.4421 H   0  0  0  0  0  0  0  0  0  0  0  0
   21.6798   15.4456   12.7821 H   0  0  0  0  0  0  0  0  0  0  0  0
   25.7815   16.5431   10.0843 H   0  0  0  0  0  0  0  0  0  0  0  0
   26.6409   17.1576   12.8749 H   0  0  0  0  0  0  0  0  0  0  0  0
   25.8343   18.6078   12.3262 H   0  0  0  0  0  0  0  0  0  0  0  0
   24.3815   18.8738   15.6162 H   0  0  0  0  0  0  0  0  0  0  0  0
   25.8026   17.0852   16.5661 H   0  0  0  0  0  0  0  0  0  0  0  0
   27.2172   17.7219   15.6620 H   0  0  0  0  0  0  0  0  0  0  0  0
   25.5878   19.1903   17.7938 H   0  0  0  0  0  0  0  0  0  0  0  0
   27.2761   18.5587   17.9472 H   0  0  0  0  0  0  0  0  0  0  0  0
   26.6536   21.7067   15.2873 H   0  0  0  0  0  0  0  0  0  0  0  0
   21.9216   15.1338    8.1163 H   0  0  0  0  0  0  0  0  0  0  0  0
   21.3904   16.7764    4.0244 H   0  0  0  0  0  0  0  0  0  0  0  0
  1  2  1  0
  2  3  1  0
  3  4  2  0
  4  5  1  0
  5  6  1  0
  6  7  2  0
  6  8  2  0
  6  9  1  0
  9 10  2  0
 10 11  1  0
 11 12  2  0
 12 13  1  0
 13 14  1  0
 14 15  2  0
 15 16  1  0
 16 17  2  0
 17 18  1  0
 18 19  2  0
 18 20  1  0
 20 21  1  0
 21 22  1  0
 22 23  1  0
 23 24  1  0
 24 25  1  0
 25 26  2  0
 25 27  1  0
 27 28  1  0
 28 29  2  0
 21 30  1  0
 30 31  2  0
 13 32  2  0
  5 33  1  0
 33 34  2  0
 34  3  1  0
 32  9  1  0
 19 14  1  0
 28 22  1  0
 30 17  1  0
  1 35  1  0
  1 36  1  0
  1 37  1  0
  2 38  1  0
  2 39  1  0
  4 40  1  0
 10 41  1  0
 15 42  1  0
 16 43  1  0
 19 44  1  0
 20 45  1  0
 20 46  1  0
 22 47  1  1
 23 48  1  0
 23 49  1  0
 24 50  1  0
 24 51  1  0
 27 52  1  0
 32 53  1  0
 33 54  1  0
M  END
>  <meeko>  (654) 
{"is_sidechain": [true], "free_energy": -10.63, "intermolecular_energy": 0.0, "internal_energy": -10.63, "cluster_size": 17, "cluster_id": 1, "rank_in_cluster": 1}

>  <_RMSD_MCS_to_ref>  (654) 
0.8990238533481129

$$$$
ligand
     RDKit          3D

 47 50  0  0  0  0  0  0  0  0999 V2000
   18.7970   18.8170    7.7190 C   0  0  0  0  0  0  0  0  0  0  0  0
   18.5280   17.3290    7.8810 C   0  0  0  0  0  0  0  0  0  0  0  0
   19.7850   16.5330    7.9280 C   0  0  0  0  0  0  0  0  0  0  0  0
   20.5390   16.1620    9.0250 C   0  0  0  0  0  0  0  0  0  0  0  0
   21.5960   15.4820    8.4880 N   0  0  0  0  0  0  0  0  0  0  0  0
   22.7260   14.5810    9.3540 S   0  0  0  0  0  6  0  0  0  0  0  0
   23.7560   15.5330    9.7240 O   0  0  0  0  0  0  0  0  0  0  0  0
   23.0210   13.4390    8.5070 O   0  0  0  0  0  0  0  0  0  0  0  0
   21.9620   14.0700   10.7000 O   0  0  0  0  0  0  0  0  0  0  0  0
   22.4840   14.2450   11.9570 C   0  0  0  0  0  0  0  0  0  0  0  0
   22.4380   13.1130   12.7750 C   0  0  0  0  0  0  0  0  0  0  0  0
   22.9330   13.1620   14.0770 C   0  0  0  0  0  0  0  0  0  0  0  0
   23.4780   14.3470   14.5670 C   0  0  0  0  0  0  0  0  0  0  0  0
   23.5260   15.4880   13.7570 C   0  0  0  0  0  0  0  0  0  0  0  0
   24.1130   16.7320   14.3120 C   0  0  0  0  0  0  0  0  0  0  0  0
   23.4490   17.5590   15.0540 N   0  0  0  0  0  0  0  0  0  0  0  0
   24.3150   18.6290   15.3700 O   0  0  0  0  0  0  0  0  0  0  0  0
   25.6610   18.2150   15.0960 C   0  0  2  0  0  0  0  0  0  0  0  0
   26.3140   17.7240   16.3900 C   0  0  0  0  0  0  0  0  0  0  0  0
   26.3270   18.8380   17.4300 C   0  0  0  0  0  0  0  0  0  0  0  0
   26.9660   20.0930   16.8850 C   0  0  0  0  0  0  0  0  0  0  0  0
   27.6580   20.8340   17.5780 O   0  0  0  0  0  0  0  0  0  0  0  0
   26.7350   20.3790   15.5640 N   0  0  0  0  0  0  0  0  0  0  0  0
   26.4140   19.4490   14.6010 C   0  0  0  0  0  0  0  0  0  0  0  0
   26.7700   19.6180   13.4370 O   0  0  0  0  0  0  0  0  0  0  0  0
   25.5240   17.1320   14.0420 C   0  0  0  0  0  0  0  0  0  0  0  0
   23.0210   15.4370   12.4510 C   0  0  0  0  0  0  0  0  0  0  0  0
   21.4260   15.3820    7.1460 C   0  0  0  0  0  0  0  0  0  0  0  0
   20.3450   16.0340    6.7680 N   0  0  0  0  0  0  0  0  0  0  0  0
   18.8815   19.2845    8.7111 H   0  0  0  0  0  0  0  0  0  0  0  0
   19.7359   18.9616    7.1643 H   0  0  0  0  0  0  0  0  0  0  0  0
   17.9682   19.2812    7.1643 H   0  0  0  0  0  0  0  0  0  0  0  0
   17.9721   17.1692    8.8166 H   0  0  0  0  0  0  0  0  0  0  0  0
   17.9478   16.9934    7.0088 H   0  0  0  0  0  0  0  0  0  0  0  0
   20.3353   16.3669   10.0864 H   0  0  0  0  0  0  0  0  0  0  0  0
   22.0083   12.1770   12.3888 H   0  0  0  0  0  0  0  0  0  0  0  0
   22.8935   12.2675   14.7160 H   0  0  0  0  0  0  0  0  0  0  0  0
   23.8718   14.3862   15.5934 H   0  0  0  0  0  0  0  0  0  0  0  0
   25.7450   16.8680   16.7818 H   0  0  0  0  0  0  0  0  0  0  0  0
   27.3496   17.4211   16.1763 H   0  0  0  0  0  0  0  0  0  0  0  0
   25.2919   19.0631   17.7263 H   0  0  0  0  0  0  0  0  0  0  0  0
   26.9153   18.4974   18.2948 H   0  0  0  0  0  0  0  0  0  0  0  0
   26.8071   21.3636   15.2701 H   0  0  0  0  0  0  0  0  0  0  0  0
   25.6545   17.5269   13.0236 H   0  0  0  0  0  0  0  0  0  0  0  0
   26.2664   16.3219   14.0925 H   0  0  0  0  0  0  0  0  0  0  0  0
   23.0472   16.3342   11.8152 H   0  0  0  0  0  0  0  0  0  0  0  0
   22.0966   14.8335    6.4682 H   0  0  0  0  0  0  0  0  0  0  0  0
  1  2  1  0
  2  3  1  0
  3  4  2  0
  4  5  1  0
  5  6  1  0
  6  7  2  0
  6  8  2  0
  6  9  1  0
  9 10  1  0
 10 11  2  0
 11 12  1  0
 12 13  2  0
 13 14  1  0
 14 15  1  0
 15 16  2  0
 16 17  1  0
 18 17  1  1
 18 19  1  0
 19 20  1  0
 20 21  1  0
 21 22  2  0
 21 23  1  0
 23 24  1  0
 24 25  2  0
 18 26  1  0
 14 27  2  0
  5 28  1  0
 28 29  2  0
 29  3  1  0
 27 10  1  0
 26 15  1  0
 24 18  1  0
  1 30  1  0
  1 31  1  0
  1 32  1  0
  2 33  1  0
  2 34  1  0
  4 35  1  0
 11 36  1  0
 12 37  1  0
 13 38  1  0
 19 39  1  0
 19 40  1  0
 20 41  1  0
 20 42  1  0
 23 43  1  0
 26 44  1  0
 26 45  1  0
 27 46  1  0
 28 47  1  0
M  END
>  <meeko>  (655) 
{"is_sidechain": [true], "free_energy": -10.62, "intermolecular_energy": 0.0, "internal_energy": -10.62, "cluster_size": 20, "cluster_id": 1, "rank_in_cluster": 1}

>  <_RMSD_MCS_to_ref>  (655) 
0.8860373158056046

$$$$
ligand
     RDKit          3D

 47 50  0  0  0  0  0  0  0  0999 V2000
   18.7970   18.8170    7.7190 C   0  0  0  0  0  0  0  0  0  0  0  0
   18.5280   17.3290    7.8810 C   0  0  0  0  0  0  0  0  0  0  0  0
   19.7830   16.5310    7.9140 C   0  0  0  0  0  0  0  0  0  0  0  0
   20.0610   15.3760    8.6210 C   0  0  0  0  0  0  0  0  0  0  0  0
   21.3400   15.0640    8.2610 N   0  0  0  0  0  0  0  0  0  0  0  0
   22.3040   13.8910    8.9790 S   0  0  0  0  0  6  0  0  0  0  0  0
   21.4140   13.0770    9.7820 O   0  0  0  0  0  0  0  0  0  0  0  0
   23.1160   13.3370    7.9140 O   0  0  0  0  0  0  0  0  0  0  0  0
   23.3510   14.8210   10.0630 C   0  0  0  0  0  0  0  0  0  0  0  0
   24.5710   15.3190    9.5730 C   0  0  0  0  0  0  0  0  0  0  0  0
   25.4180   16.0630   10.4010 C   0  0  0  0  0  0  0  0  0  0  0  0
   25.0860   16.3380   11.7410 C   0  0  0  0  0  0  0  0  0  0  0  0
   26.0130   17.1320   12.5790 C   0  0  0  0  0  0  0  0  0  0  0  0
   26.9750   17.6880   12.0570 O   0  0  0  0  0  0  0  0  0  0  0  0
   25.7450   17.2290   13.9230 N   0  0  0  0  0  0  0  0  0  0  0  0
   26.5440   18.0750   14.8000 C   0  0  2  0  0  0  0  0  0  0  0  0
   26.2710   17.7870   16.2720 C   0  0  0  0  0  0  0  0  0  0  0  0
   27.1140   18.7130   17.1350 C   0  0  0  0  0  0  0  0  0  0  0  0
   26.8620   20.1630   16.7890 C   0  0  0  0  0  0  0  0  0  0  0  0
   26.9090   21.0580   17.6280 O   0  0  0  0  0  0  0  0  0  0  0  0
   26.6070   20.4450   15.4710 N   0  0  0  0  0  0  0  0  0  0  0  0
   26.2220   19.5430   14.5100 C   0  0  0  0  0  0  0  0  0  0  0  0
   25.6670   19.9160   13.4770 O   0  0  0  0  0  0  0  0  0  0  0  0
   23.8770   15.8070   12.1920 C   0  0  0  0  0  0  0  0  0  0  0  0
   23.3520   15.9200   13.4440 O   0  0  0  0  0  0  0  0  0  0  0  0
   22.1450   15.2520   13.5090 N   0  0  0  0  0  0  0  0  0  0  0  0
   21.9570   14.7350   12.2940 C   0  0  0  0  0  0  0  0  0  0  0  0
   23.0090   15.0580   11.4060 C   0  0  0  0  0  0  0  0  0  0  0  0
   21.8110   16.0170    7.4160 C   0  0  0  0  0  0  0  0  0  0  0  0
   20.8850   16.9220    7.1800 N   0  0  0  0  0  0  0  0  0  0  0  0
   18.8815   19.2845    8.7111 H   0  0  0  0  0  0  0  0  0  0  0  0
   19.7359   18.9616    7.1643 H   0  0  0  0  0  0  0  0  0  0  0  0
   17.9682   19.2812    7.1643 H   0  0  0  0  0  0  0  0  0  0  0  0
   17.9813   17.1683    8.8219 H   0  0  0  0  0  0  0  0  0  0  0  0
   17.9391   16.9961    7.0136 H   0  0  0  0  0  0  0  0  0  0  0  0
   19.4023   14.8329    9.3147 H   0  0  0  0  0  0  0  0  0  0  0  0
   24.8617   15.1221    8.5305 H   0  0  0  0  0  0  0  0  0  0  0  0
   26.3672   16.4426    9.9949 H   0  0  0  0  0  0  0  0  0  0  0  0
   24.9612   16.6913   14.3198 H   0  0  0  0  0  0  0  0  0  0  0  0
   27.6047   17.8606   14.6030 H   0  0  0  0  0  0  0  0  0  0  0  0
   25.2053   17.9548   16.4869 H   0  0  0  0  0  0  0  0  0  0  0  0
   26.5300   16.7415   16.4950 H   0  0  0  0  0  0  0  0  0  0  0  0
   26.8607   18.5472   18.1925 H   0  0  0  0  0  0  0  0  0  0  0  0
   28.1754   18.4904   16.9508 H   0  0  0  0  0  0  0  0  0  0  0  0
   26.7144   21.4255   15.1744 H   0  0  0  0  0  0  0  0  0  0  0  0
   21.0838   14.1271   12.0147 H   0  0  0  0  0  0  0  0  0  0  0  0
   22.8245   16.0307    6.9886 H   0  0  0  0  0  0  0  0  0  0  0  0
  1  2  1  0
  2  3  1  0
  3  4  2  0
  4  5  1  0
  5  6  1  0
  6  7  2  0
  6  8  2  0
  6  9  1  0
  9 10  2  0
 10 11  1  0
 11 12  2  0
 12 13  1  0
 13 14  2  0
 13 15  1  0
 15 16  1  0
 16 17  1  0
 17 18  1  0
 18 19  1  0
 19 20  2  0
 19 21  1  0
 21 22  1  0
 22 23  2  0
 12 24  1  0
 24 25  1  0
 25 26  1  0
 26 27  2  0
 27 28  1  0
  5 29  1  0
 29 30  2  0
 30  3  1  0
 28  9  1  0
 22 16  1  0
 28 24  2  0
  1 31  1  0
  1 32  1  0
  1 33  1  0
  2 34  1  0
  2 35  1  0
  4 36  1  0
 10 37  1  0
 11 38  1  0
 15 39  1  0
 16 40  1  1
 17 41  1  0
 17 42  1  0
 18 43  1  0
 18 44  1  0
 21 45  1  0
 27 46  1  0
 29 47  1  0
M  END
>  <meeko>  (656) 
{"is_sidechain": [true], "free_energy": -10.62, "intermolecular_energy": 0.0, "internal_energy": -10.62, "cluster_size": 17, "cluster_id": 1, "rank_in_cluster": 1}

>  <_RMSD_MCS_to_ref>  (656) 
0.8385731267390397

$$$$
ligand
     RDKit          3D

 47 50  0  0  0  0  0  0  0  0999 V2000
   18.7970   18.8170    7.7190 C   0  0  0  0  0  0  0  0  0  0  0  0
   18.5280   17.3290    7.8810 C   0  0  0  0  0  0  0  0  0  0  0  0
   19.7800   16.5490    8.0780 C   0  0  0  0  0  0  0  0  0  0  0  0
   20.0100   15.4700    8.9100 C   0  0  0  0  0  0  0  0  0  0  0  0
   21.3250   15.1680    8.7110 N   0  0  0  0  0  0  0  0  0  0  0  0
   22.1180   13.7980    9.2760 S   0  0  0  0  0  6  0  0  0  0  0  0
   23.0910   13.4490    8.2610 O   0  0  0  0  0  0  0  0  0  0  0  0
   21.0710   12.8860    9.6930 O   0  0  0  0  0  0  0  0  0  0  0  0
   22.9660   14.3650   10.7000 C   0  0  0  0  0  0  0  0  0  0  0  0
   23.4790   15.6550   10.7210 C   0  0  0  0  0  0  0  0  0  0  0  0
   24.1680   16.1900   11.7610 N   0  0  0  0  0  0  0  0  0  0  0  0
   24.3710   15.4310   12.8770 C   0  0  0  0  0  0  0  0  0  0  0  0
   25.1300   16.0110   14.0140 C   0  0  0  0  0  0  0  0  0  0  0  0
   25.4030   15.3290   14.9950 O   0  0  0  0  0  0  0  0  0  0  0  0
   25.4920   17.3270   13.8560 N   0  0  0  0  0  0  0  0  0  0  0  0
   26.3660   18.0170   14.7890 C   0  0  2  0  0  0  0  0  0  0  0  0
   25.8800   17.8890   16.2280 C   0  0  0  0  0  0  0  0  0  0  0  0
   26.8210   18.6480   17.1520 C   0  0  0  0  0  0  0  0  0  0  0  0
   26.9560   20.0930   16.7300 C   0  0  0  0  0  0  0  0  0  0  0  0
   27.1230   21.0010   17.5380 O   0  0  0  0  0  0  0  0  0  0  0  0
   26.9160   20.3460   15.3820 N   0  0  0  0  0  0  0  0  0  0  0  0
   26.4340   19.5010   14.4120 C   0  0  0  0  0  0  0  0  0  0  0  0
   26.1000   19.9300   13.3090 O   0  0  0  0  0  0  0  0  0  0  0  0
   23.8620   14.1410   12.9120 C   0  0  0  0  0  0  0  0  0  0  0  0
   23.9080   13.1770   13.8810 N   0  0  0  0  0  0  0  0  0  0  0  0
   23.2800   12.0400   13.5340 N   0  0  0  0  0  0  0  0  0  0  0  0
   22.8080   12.2950   12.3110 C   0  0  0  0  0  0  0  0  0  0  0  0
   23.1530   13.5870   11.8520 C   0  0  0  0  0  0  0  0  0  0  0  0
   21.8370   16.0040    7.7710 C   0  0  0  0  0  0  0  0  0  0  0  0
   20.9220   16.8600    7.3690 N   0  0  0  0  0  0  0  0  0  0  0  0
   18.8815   19.2845    8.7111 H   0  0  0  0  0  0  0  0  0  0  0  0
   19.7359   18.9616    7.1643 H   0  0  0  0  0  0  0  0  0  0  0  0
   17.9682   19.2812    7.1643 H   0  0  0  0  0  0  0  0  0  0  0  0
   17.8767   17.1799    8.7548 H   0  0  0  0  0  0  0  0  0  0  0  0
   18.0486   16.9703    6.9582 H   0  0  0  0  0  0  0  0  0  0  0  0
   19.2956   14.9690    9.5799 H   0  0  0  0  0  0  0  0  0  0  0  0
   23.3161   16.2862    9.8349 H   0  0  0  0  0  0  0  0  0  0  0  0
   25.1290   17.8452   13.0432 H   0  0  0  0  0  0  0  0  0  0  0  0
   27.3609   17.5522   14.7256 H   0  0  0  0  0  0  0  0  0  0  0  0
   24.8668   18.3091   16.3113 H   0  0  0  0  0  0  0  0  0  0  0  0
   25.8622   16.8273   16.5153 H   0  0  0  0  0  0  0  0  0  0  0  0
   26.4249   18.6095   18.1775 H   0  0  0  0  0  0  0  0  0  0  0  0
   27.8136   18.1767   17.1009 H   0  0  0  0  0  0  0  0  0  0  0  0
   27.2821   21.2559   15.0675 H   0  0  0  0  0  0  0  0  0  0  0  0
   24.3779   13.3091   14.7880 H   0  0  0  0  0  0  0  0  0  0  0  0
   22.2152   11.5777   11.7244 H   0  0  0  0  0  0  0  0  0  0  0  0
   22.8713   15.9703    7.3981 H   0  0  0  0  0  0  0  0  0  0  0  0
  1  2  1  0
  2  3  1  0
  3  4  2  0
  4  5  1  0
  5  6  1  0
  6  7  2  0
  6  8  2  0
  6  9  1  0
  9 10  2  0
 10 11  1  0
 11 12  2  0
 12 13  1  0
 13 14  2  0
 13 15  1  0
 15 16  1  0
 16 17  1  0
 17 18  1  0
 18 19  1  0
 19 20  2  0
 19 21  1  0
 21 22  1  0
 22 23  2  0
 12 24  1  0
 24 25  1  0
 25 26  1  0
 26 27  2  0
 27 28  1  0
  5 29  1  0
 29 30  2  0
 30  3  1  0
 28  9  1  0
 22 16  1  0
 28 24  2  0
  1 31  1  0
  1 32  1  0
  1 33  1  0
  2 34  1  0
  2 35  1  0
  4 36  1  0
 10 37  1  0
 15 38  1  0
 16 39  1  1
 17 40  1  0
 17 41  1  0
 18 42  1  0
 18 43  1  0
 21 44  1  0
 25 45  1  0
 27 46  1  0
 29 47  1  0
M  END
>  <meeko>  (657) 
{"is_sidechain": [true], "free_energy": -10.62, "intermolecular_energy": 0.0, "internal_energy": -10.62, "cluster_size": 13, "cluster_id": 1, "rank_in_cluster": 1}

>  <_RMSD_MCS_to_ref>  (657) 
0.8453627097945069

$$$$
ligand
     RDKit          3D

 56 60  0  0  0  0  0  0  0  0999 V2000
   18.7970   18.8170    7.7190 C   0  0  0  0  0  0  0  0  0  0  0  0
   18.5280   17.3290    7.8810 C   0  0  0  0  0  0  0  0  0  0  0  0
   19.4220   16.5000    7.0270 C   0  0  0  0  0  0  0  0  0  0  0  0
   20.7510   16.1780    7.2160 C   0  0  0  0  0  0  0  0  0  0  0  0
   21.0670   15.4120    6.1310 N   0  0  0  0  0  0  0  0  0  0  0  0
   22.4910   14.5450    5.9190 S   0  0  0  0  0  6  0  0  0  0  0  0
   22.2180   13.5920    4.8610 O   0  0  0  0  0  0  0  0  0  0  0  0
   23.5480   15.5340    5.8190 O   0  0  0  0  0  0  0  0  0  0  0  0
   22.6750   13.6710    7.4470 C   0  0  0  0  0  0  0  0  0  0  0  0
   22.6320   12.2760    7.4580 C   0  0  0  0  0  0  0  0  0  0  0  0
   22.7750   11.6030    8.6680 C   0  0  0  0  0  0  0  0  0  0  0  0
   22.9650   12.3210    9.8530 C   0  0  0  0  0  0  0  0  0  0  0  0
   23.0270   13.7260    9.8540 C   0  0  0  0  0  0  0  0  0  0  0  0
   23.2350   14.4750   11.1050 C   0  0  0  0  0  0  0  0  0  0  0  0
   22.2980   14.3860   12.1670 C   0  0  0  0  0  0  0  0  0  0  0  0
   22.4710   15.0790   13.3740 C   0  0  0  0  0  0  0  0  0  0  0  0
   23.5930   15.8720   13.5120 C   0  0  0  0  0  0  0  0  0  0  0  0
   24.5140   15.9650   12.4720 C   0  0  0  0  0  0  0  0  0  0  0  0
   24.3680   15.2870   11.2750 C   0  0  0  0  0  0  0  0  0  0  0  0
   25.5950   16.8580   12.8990 C   0  0  0  0  0  0  0  0  0  0  0  0
   26.5980   17.0860   12.2510 O   0  0  0  0  0  0  0  0  0  0  0  0
   25.2450   17.3440   14.1510 N   0  0  0  0  0  0  0  0  0  0  0  0
   26.1490   18.0800   15.0290 C   0  0  2  0  0  0  0  0  0  0  0  0
   25.7780   17.9890   16.5090 C   0  0  0  0  0  0  0  0  0  0  0  0
   26.8150   18.7360   17.3340 C   0  0  0  0  0  0  0  0  0  0  0  0
   26.9390   20.1730   16.8870 C   0  0  0  0  0  0  0  0  0  0  0  0
   27.3710   21.0540   17.6270 O   0  0  0  0  0  0  0  0  0  0  0  0
   26.6250   20.4420   15.5790 N   0  0  0  0  0  0  0  0  0  0  0  0
   26.2730   19.5480   14.5930 C   0  0  0  0  0  0  0  0  0  0  0  0
   26.1770   19.9190   13.4240 O   0  0  0  0  0  0  0  0  0  0  0  0
   24.0500   16.6920   14.6710 C   0  0  0  0  0  0  0  0  0  0  0  0
   22.8820   14.3940    8.6290 C   0  0  0  0  0  0  0  0  0  0  0  0
   19.9610   15.2530    5.3610 C   0  0  0  0  0  0  0  0  0  0  0  0
   18.9440   15.9150    5.8700 N   0  0  0  0  0  0  0  0  0  0  0  0
   18.8815   19.2845    8.7111 H   0  0  0  0  0  0  0  0  0  0  0  0
   19.7359   18.9616    7.1643 H   0  0  0  0  0  0  0  0  0  0  0  0
   17.9682   19.2812    7.1643 H   0  0  0  0  0  0  0  0  0  0  0  0
   18.6875   17.0527    8.9337 H   0  0  0  0  0  0  0  0  0  0  0  0
   17.4905   17.1374    7.5697 H   0  0  0  0  0  0  0  0  0  0  0  0
   21.4056   16.4714    8.0499 H   0  0  0  0  0  0  0  0  0  0  0  0
   22.4870   11.7157    6.5226 H   0  0  0  0  0  0  0  0  0  0  0  0
   22.7385   10.5039    8.6922 H   0  0  0  0  0  0  0  0  0  0  0  0
   23.0680   11.7761   10.8030 H   0  0  0  0  0  0  0  0  0  0  0  0
   21.4074   13.7531   12.0395 H   0  0  0  0  0  0  0  0  0  0  0  0
   21.7347   14.9934   14.1867 H   0  0  0  0  0  0  0  0  0  0  0  0
   25.1196   15.3815   10.4774 H   0  0  0  0  0  0  0  0  0  0  0  0
   27.1280   17.5894   14.9252 H   0  0  0  0  0  0  0  0  0  0  0  0
   24.7875   18.4402   16.6680 H   0  0  0  0  0  0  0  0  0  0  0  0
   25.7517   16.9337   16.8181 H   0  0  0  0  0  0  0  0  0  0  0  0
   26.5148   18.7143   18.3920 H   0  0  0  0  0  0  0  0  0  0  0  0
   27.7891   18.2438   17.1962 H   0  0  0  0  0  0  0  0  0  0  0  0
   26.6564   21.4332   15.3008 H   0  0  0  0  0  0  0  0  0  0  0  0
   24.2896   16.0567   15.5364 H   0  0  0  0  0  0  0  0  0  0  0  0
   23.2890   17.3994   15.0322 H   0  0  0  0  0  0  0  0  0  0  0  0
   22.9311   15.4924    8.5963 H   0  0  0  0  0  0  0  0  0  0  0  0
   19.9203   14.6539    4.4393 H   0  0  0  0  0  0  0  0  0  0  0  0
  1  2  1  0
  2  3  1  0
  3  4  2  0
  4  5  1  0
  5  6  1  0
  6  7  2  0
  6  8  2  0
  6  9  1  0
  9 10  2  0
 10 11  1  0
 11 12  2  0
 12 13  1  0
 13 14  1  0
 14 15  2  0
 15 16  1  0
 16 17  2  0
 17 18  1  0
 18 19  2  0
 18 20  1  0
 20 21  2  0
 20 22  1  0
 22 23  1  0
 23 24  1  0
 24 25  1  0
 25 26  1  0
 26 27  2  0
 26 28  1  0
 28 29  1  0
 29 30  2  0
 22 31  1  0
 13 32  2  0
  5 33  1  0
 33 34  2  0
 34  3  1  0
 32  9  1  0
 19 14  1  0
 29 23  1  0
 31 17  1  0
  1 35  1  0
  1 36  1  0
  1 37  1  0
  2 38  1  0
  2 39  1  0
  4 40  1  0
 10 41  1  0
 11 42  1  0
 12 43  1  0
 15 44  1  0
 16 45  1  0
 19 46  1  0
 23 47  1  1
 24 48  1  0
 24 49  1  0
 25 50  1  0
 25 51  1  0
 28 52  1  0
 31 53  1  0
 31 54  1  0
 32 55  1  0
 33 56  1  0
M  END
>  <meeko>  (658) 
{"is_sidechain": [true], "free_energy": -10.62, "intermolecular_energy": 0.0, "internal_energy": -10.62, "cluster_size": 6, "cluster_id": 1, "rank_in_cluster": 1}

>  <_RMSD_MCS_to_ref>  (658) 
1.9921410592626212

$$$$
ligand
     RDKit          3D

 60 64  0  0  0  0  0  0  0  0999 V2000
   18.9090   19.1540    7.5370 C   0  0  0  0  0  0  0  0  0  0  0  0
   18.7730   17.6460    7.6780 C   0  0  0  0  0  0  0  0  0  0  0  0
   20.0950   16.9630    7.7160 C   0  0  0  0  0  0  0  0  0  0  0  0
   20.9570   16.8000    8.7830 C   0  0  0  0  0  0  0  0  0  0  0  0
   22.0180   16.1230    8.2540 N   0  0  0  0  0  0  0  0  0  0  0  0
   23.2980   15.4530    9.1130 S   0  0  0  0  0  6  0  0  0  0  0  0
   24.3380   16.4590    9.1540 O   0  0  0  0  0  0  0  0  0  0  0  0
   23.5030   14.1460    8.5180 O   0  0  0  0  0  0  0  0  0  0  0  0
   22.6860   15.2360   10.7570 C   0  0  0  0  0  0  0  0  0  0  0  0
   21.6560   14.3160   11.0060 C   0  0  0  0  0  0  0  0  0  0  0  0
   21.1670   14.1240   12.3160 C   0  0  0  0  0  0  0  0  0  0  0  0
   20.0700   13.1510   12.5120 C   0  0  0  0  0  0  0  0  0  0  0  0
   20.2980   11.9750   12.2430 O   0  0  0  0  0  0  0  0  0  0  0  0
   18.8630   13.5950   13.0110 N   0  0  0  0  0  0  0  0  0  0  0  0
   17.7700   12.6600   13.2200 C   0  0  0  0  0  0  0  0  0  0  0  0
   16.6170   13.5240   13.7080 C   0  0  0  0  0  0  0  0  0  0  0  0
   17.3320   14.6280   14.4760 C   0  0  0  0  0  0  0  0  0  0  0  0
   18.5710   14.8850   13.6280 C   0  0  0  0  0  0  0  0  0  0  0  0
   21.6580   14.8820   13.3800 C   0  0  0  0  0  0  0  0  0  0  0  0
   22.6620   15.7890   13.0950 C   0  0  0  0  0  0  0  0  0  0  0  0
   23.1880   15.9790   11.8160 C   0  0  0  0  0  0  0  0  0  0  0  0
   24.2600   17.0220   11.8660 C   0  0  0  0  0  0  0  0  0  0  0  0
   24.2230   17.4550   13.2570 N   0  0  0  0  0  0  0  0  0  0  0  0
   25.2840   18.2440   13.8730 C   0  0  2  0  0  0  0  0  0  0  0  0
   25.5470   17.8460   15.3230 C   0  0  0  0  0  0  0  0  0  0  0  0
   26.7130   18.6590   15.8650 C   0  0  0  0  0  0  0  0  0  0  0  0
   26.4600   20.1420   15.7230 C   0  0  0  0  0  0  0  0  0  0  0  0
   26.8610   20.9580   16.5480 O   0  0  0  0  0  0  0  0  0  0  0  0
   25.7740   20.5450   14.6060 N   0  0  0  0  0  0  0  0  0  0  0  0
   24.9750   19.7510   13.8150 C   0  0  0  0  0  0  0  0  0  0  0  0
   24.0860   20.2490   13.1280 O   0  0  0  0  0  0  0  0  0  0  0  0
   23.3530   16.6910   14.0190 C   0  0  0  0  0  0  0  0  0  0  0  0
   23.1780   16.7200   15.2210 O   0  0  0  0  0  0  0  0  0  0  0  0
   21.7760   15.8680    6.9430 C   0  0  0  0  0  0  0  0  0  0  0  0
   20.6140   16.3680    6.5830 N   0  0  0  0  0  0  0  0  0  0  0  0
   18.9504   19.6134    8.5356 H   0  0  0  0  0  0  0  0  0  0  0  0
   19.8320   19.3891    6.9867 H   0  0  0  0  0  0  0  0  0  0  0  0
   18.0430   19.5504    6.9867 H   0  0  0  0  0  0  0  0  0  0  0  0
   18.2331   17.4247    8.6105 H   0  0  0  0  0  0  0  0  0  0  0  0
   18.2254   17.2729    6.8000 H   0  0  0  0  0  0  0  0  0  0  0  0
   20.8200   17.1381    9.8208 H   0  0  0  0  0  0  0  0  0  0  0  0
   21.2262   13.7398   10.1734 H   0  0  0  0  0  0  0  0  0  0  0  0
   17.5059   12.1543   12.2795 H   0  0  0  0  0  0  0  0  0  0  0  0
   18.0299   11.8664   13.9360 H   0  0  0  0  0  0  0  0  0  0  0  0
   16.0434   13.9346   12.8640 H   0  0  0  0  0  0  0  0  0  0  0  0
   15.8833   12.9730   14.3148 H   0  0  0  0  0  0  0  0  0  0  0  0
   16.7065   15.5301   14.5464 H   0  0  0  0  0  0  0  0  0  0  0  0
   17.5661   14.3529   15.5150 H   0  0  0  0  0  0  0  0  0  0  0  0
   18.3664   15.6460   12.8606 H   0  0  0  0  0  0  0  0  0  0  0  0
   19.4144   15.2656   14.2228 H   0  0  0  0  0  0  0  0  0  0  0  0
   21.2638   14.7632   14.4000 H   0  0  0  0  0  0  0  0  0  0  0  0
   25.2408   16.5950   11.6097 H   0  0  0  0  0  0  0  0  0  0  0  0
   24.1040   17.8422   11.1498 H   0  0  0  0  0  0  0  0  0  0  0  0
   26.1897   18.0316   13.2859 H   0  0  0  0  0  0  0  0  0  0  0  0
   24.6491   18.0440   15.9268 H   0  0  0  0  0  0  0  0  0  0  0  0
   25.7910   16.7745   15.3721 H   0  0  0  0  0  0  0  0  0  0  0  0
   26.8529   18.4195   16.9294 H   0  0  0  0  0  0  0  0  0  0  0  0
   27.6135   18.4031   15.2874 H   0  0  0  0  0  0  0  0  0  0  0  0
   25.8652   21.5341   14.3336 H   0  0  0  0  0  0  0  0  0  0  0  0
   22.4566   15.3198    6.2750 H   0  0  0  0  0  0  0  0  0  0  0  0
  1  2  1  0
  2  3  1  0
  3  4  2  0
  4  5  1  0
  5  6  1  0
  6  7  2  0
  6  8  2  0
  6  9  1  0
  9 10  2  0
 10 11  1  0
 11 12  1  0
 12 13  2  0
 12 14  1  0
 14 15  1  0
 15 16  1  0
 16 17  1  0
 17 18  1  0
 11 19  2  0
 19 20  1  0
 20 21  2  0
 21 22  1  0
 22 23  1  0
 23 24  1  0
 24 25  1  0
 25 26  1  0
 26 27  1  0
 27 28  2  0
 27 29  1  0
 29 30  1  0
 30 31  2  0
 23 32  1  0
 32 33  2  0
  5 34  1  0
 34 35  2  0
 35  3  1  0
 21  9  1  0
 30 24  1  0
 18 14  1  0
 32 20  1  0
  1 36  1  0
  1 37  1  0
  1 38  1  0
  2 39  1  0
  2 40  1  0
  4 41  1  0
 10 42  1  0
 15 43  1  0
 15 44  1  0
 16 45  1  0
 16 46  1  0
 17 47  1  0
 17 48  1  0
 18 49  1  0
 18 50  1  0
 19 51  1  0
 22 52  1  0
 22 53  1  0
 24 54  1  6
 25 55  1  0
 25 56  1  0
 26 57  1  0
 26 58  1  0
 29 59  1  0
 34 60  1  0
M  END
>  <meeko>  (659) 
{"is_sidechain": [true], "free_energy": -10.62, "intermolecular_energy": 0.0, "internal_energy": -10.62, "cluster_size": 20, "cluster_id": 1, "rank_in_cluster": 1}

>  <_RMSD_MCS_to_ref>  (659) 
1.840566730354781

$$$$
ligand
     RDKit          3D

 45 48  0  0  0  0  0  0  0  0999 V2000
   18.9090   19.1540    7.5370 C   0  0  0  0  0  0  0  0  0  0  0  0
   18.7730   17.6460    7.6780 C   0  0  0  0  0  0  0  0  0  0  0  0
   20.0890   16.9540    7.6100 C   0  0  0  0  0  0  0  0  0  0  0  0
   21.0060   16.7310    8.6180 C   0  0  0  0  0  0  0  0  0  0  0  0
   22.0280   16.0690    7.9990 N   0  0  0  0  0  0  0  0  0  0  0  0
   23.3380   15.3530    8.7680 S   0  0  0  0  0  6  0  0  0  0  0  0
   23.5480   14.0750    8.1210 O   0  0  0  0  0  0  0  0  0  0  0  0
   24.3620   16.3810    8.8290 O   0  0  0  0  0  0  0  0  0  0  0  0
   22.7660   15.0660   10.4170 C   0  0  0  0  0  0  0  0  0  0  0  0
   21.6720   14.2140   10.6380 C   0  0  0  0  0  0  0  0  0  0  0  0
   21.1930   13.9820   11.9300 C   0  0  0  0  0  0  0  0  0  0  0  0
   21.7980   14.5860   13.0410 C   0  0  0  0  0  0  0  0  0  0  0  0
   22.9040   15.4230   12.8390 C   0  0  0  0  0  0  0  0  0  0  0  0
   23.6630   16.1130   13.7540 N   0  0  0  0  0  0  0  0  0  0  0  0
   24.5730   16.7280   13.0400 C   0  0  0  0  0  0  0  0  0  0  0  0
   25.8320   17.7580   13.6030 S   0  0  0  0  0  0  0  0  0  0  0  0
   24.9090   18.8230   14.7750 C   0  0  1  0  0  0  0  0  0  0  0  0
   25.1350   18.4570   16.2420 C   0  0  0  0  0  0  0  0  0  0  0  0
   26.5650   18.7330   16.6860 C   0  0  0  0  0  0  0  0  0  0  0  0
   26.9710   20.1530   16.3810 C   0  0  0  0  0  0  0  0  0  0  0  0
   27.8550   20.7310   17.0060 O   0  0  0  0  0  0  0  0  0  0  0  0
   26.3380   20.7640   15.3290 N   0  0  0  0  0  0  0  0  0  0  0  0
   25.3400   20.2610   14.5250 C   0  0  0  0  0  0  0  0  0  0  0  0
   24.8610   20.9550   13.6290 O   0  0  0  0  0  0  0  0  0  0  0  0
   24.4460   16.4750   11.7070 N   0  0  0  0  0  0  0  0  0  0  0  0
   23.3650   15.6400   11.5450 C   0  0  0  0  0  0  0  0  0  0  0  0
   21.7100   15.8770    6.6940 C   0  0  0  0  0  0  0  0  0  0  0  0
   20.5370   16.4110    6.4220 N   0  0  0  0  0  0  0  0  0  0  0  0
   18.9504   19.6134    8.5356 H   0  0  0  0  0  0  0  0  0  0  0  0
   19.8320   19.3891    6.9867 H   0  0  0  0  0  0  0  0  0  0  0  0
   18.0430   19.5504    6.9867 H   0  0  0  0  0  0  0  0  0  0  0  0
   18.3045   17.4217    8.6476 H   0  0  0  0  0  0  0  0  0  0  0  0
   18.1569   17.2829    6.8422 H   0  0  0  0  0  0  0  0  0  0  0  0
   20.9308   17.0201    9.6767 H   0  0  0  0  0  0  0  0  0  0  0  0
   21.1855   13.7226    9.7825 H   0  0  0  0  0  0  0  0  0  0  0  0
   20.3296   13.3165   12.0773 H   0  0  0  0  0  0  0  0  0  0  0  0
   21.4110   14.4060   14.0548 H   0  0  0  0  0  0  0  0  0  0  0  0
   23.8332   18.6798   14.5955 H   0  0  0  0  0  0  0  0  0  0  0  0
   24.4492   19.0495   16.8654 H   0  0  0  0  0  0  0  0  0  0  0  0
   24.9464   17.3793   16.3558 H   0  0  0  0  0  0  0  0  0  0  0  0
   26.6422   18.5636   17.7701 H   0  0  0  0  0  0  0  0  0  0  0  0
   27.2352   18.0555   16.1366 H   0  0  0  0  0  0  0  0  0  0  0  0
   26.6490   21.7218   15.1127 H   0  0  0  0  0  0  0  0  0  0  0  0
   25.0495   16.8421   10.9574 H   0  0  0  0  0  0  0  0  0  0  0  0
   22.3430   15.3494    5.9653 H   0  0  0  0  0  0  0  0  0  0  0  0
  1  2  1  0
  2  3  1  0
  3  4  2  0
  4  5  1  0
  5  6  1  0
  6  7  2  0
  6  8  2  0
  6  9  1  0
  9 10  2  0
 10 11  1  0
 11 12  2  0
 12 13  1  0
 13 14  1  0
 14 15  2  0
 15 16  1  0
 16 17  1  0
 17 18  1  0
 18 19  1  0
 19 20  1  0
 20 21  2  0
 20 22  1  0
 22 23  1  0
 23 24  2  0
 15 25  1  0
 25 26  1  0
  5 27  1  0
 27 28  2  0
 28  3  1  0
 26  9  1  0
 26 13  2  0
 23 17  1  0
  1 29  1  0
  1 30  1  0
  1 31  1  0
  2 32  1  0
  2 33  1  0
  4 34  1  0
 10 35  1  0
 11 36  1  0
 12 37  1  0
 17 38  1  6
 18 39  1  0
 18 40  1  0
 19 41  1  0
 19 42  1  0
 22 43  1  0
 25 44  1  0
 27 45  1  0
M  END
>  <meeko>  (660) 
{"is_sidechain": [true], "free_energy": -10.62, "intermolecular_energy": 0.0, "internal_energy": -10.62, "cluster_size": 20, "cluster_id": 1, "rank_in_cluster": 1}

>  <_RMSD_MCS_to_ref>  (660) 
0.6683561924602781

$$$$
ligand
     RDKit          3D

 48 51  0  0  0  0  0  0  0  0999 V2000
   18.9090   19.1540    7.5370 C   0  0  0  0  0  0  0  0  0  0  0  0
   18.7730   17.6460    7.6780 C   0  0  0  0  0  0  0  0  0  0  0  0
   20.0870   16.9530    7.5970 C   0  0  0  0  0  0  0  0  0  0  0  0
   21.0650   16.8280    8.5650 C   0  0  0  0  0  0  0  0  0  0  0  0
   22.0610   16.1280    7.9470 N   0  0  0  0  0  0  0  0  0  0  0  0
   23.3970   15.4310    8.7130 S   0  0  0  0  0  6  0  0  0  0  0  0
   24.4740   16.3790    8.4950 O   0  0  0  0  0  0  0  0  0  0  0  0
   23.4620   14.0890    8.1610 O   0  0  0  0  0  0  0  0  0  0  0  0
   23.0090   15.3670   10.4120 C   0  0  0  0  0  0  0  0  0  0  0  0
   23.9500   15.8340   11.4280 C   0  0  0  0  0  0  0  0  0  0  0  0
   23.6510   15.7980   12.7470 C   0  0  0  0  0  0  0  0  0  0  0  0
   24.6700   16.3080   13.7190 C   0  0  0  0  0  0  0  0  0  0  0  0
   25.2900   15.5450   14.4560 O   0  0  0  0  0  0  0  0  0  0  0  0
   24.8690   17.6620   13.7240 N   0  0  0  0  0  0  0  0  0  0  0  0
   25.8650   18.3000   14.5650 C   0  0  2  0  0  0  0  0  0  0  0  0
   25.6520   17.9660   16.0380 C   0  0  0  0  0  0  0  0  0  0  0  0
   26.7150   18.6560   16.8770 C   0  0  0  0  0  0  0  0  0  0  0  0
   26.7190   20.1470   16.6380 C   0  0  0  0  0  0  0  0  0  0  0  0
   27.0080   20.9540   17.5160 O   0  0  0  0  0  0  0  0  0  0  0  0
   26.4150   20.5660   15.3670 N   0  0  0  0  0  0  0  0  0  0  0  0
   25.8130   19.8210   14.3810 C   0  0  0  0  0  0  0  0  0  0  0  0
   25.2970   20.3700   13.4090 O   0  0  0  0  0  0  0  0  0  0  0  0
   22.3870   15.2730   13.1610 C   0  0  0  0  0  0  0  0  0  0  0  0
   21.8490   15.1140   14.3550 N   0  0  0  0  0  0  0  0  0  0  0  0
   20.6130   14.5630   14.1330 C   0  0  0  0  0  0  0  0  0  0  0  0
   20.3930   14.3770   12.7890 C   0  0  0  0  0  0  0  0  0  0  0  0
   21.5240   14.8290   12.1630 N   0  0  0  0  0  0  0  0  0  0  0  0
   21.8210   14.8710   10.8040 C   0  0  0  0  0  0  0  0  0  0  0  0
   21.6610   15.8000    6.6910 C   0  0  0  0  0  0  0  0  0  0  0  0
   20.4680   16.2980    6.4430 N   0  0  0  0  0  0  0  0  0  0  0  0
   18.9504   19.6134    8.5356 H   0  0  0  0  0  0  0  0  0  0  0  0
   19.8320   19.3891    6.9867 H   0  0  0  0  0  0  0  0  0  0  0  0
   18.0430   19.5504    6.9867 H   0  0  0  0  0  0  0  0  0  0  0  0
   18.3135   17.4213    8.6518 H   0  0  0  0  0  0  0  0  0  0  0  0
   18.1488   17.2842    6.8477 H   0  0  0  0  0  0  0  0  0  0  0  0
   21.0456   17.2061    9.5978 H   0  0  0  0  0  0  0  0  0  0  0  0
   24.9281   16.2255   11.1117 H   0  0  0  0  0  0  0  0  0  0  0  0
   24.2902   18.2503   13.1078 H   0  0  0  0  0  0  0  0  0  0  0  0
   26.8503   17.9177   14.2600 H   0  0  0  0  0  0  0  0  0  0  0  0
   24.6563   18.3127   16.3516 H   0  0  0  0  0  0  0  0  0  0  0  0
   25.7249   16.8776   16.1797 H   0  0  0  0  0  0  0  0  0  0  0  0
   26.5124   18.4640   17.9410 H   0  0  0  0  0  0  0  0  0  0  0  0
   27.6985   18.2554   16.5901 H   0  0  0  0  0  0  0  0  0  0  0  0
   26.6629   21.5367   15.1277 H   0  0  0  0  0  0  0  0  0  0  0  0
   19.8940   14.3045   14.9244 H   0  0  0  0  0  0  0  0  0  0  0  0
   19.4954   13.9533   12.3150 H   0  0  0  0  0  0  0  0  0  0  0  0
   21.0962   14.5046   10.0621 H   0  0  0  0  0  0  0  0  0  0  0  0
   22.2511   15.2022    5.9808 H   0  0  0  0  0  0  0  0  0  0  0  0
  1  2  1  0
  2  3  1  0
  3  4  2  0
  4  5  1  0
  5  6  1  0
  6  7  2  0
  6  8  2  0
  6  9  1  0
  9 10  1  0
 10 11  2  0
 11 12  1  0
 12 13  2  0
 12 14  1  0
 14 15  1  0
 15 16  1  0
 16 17  1  0
 17 18  1  0
 18 19  2  0
 18 20  1  0
 20 21  1  0
 21 22  2  0
 11 23  1  0
 23 24  2  0
 24 25  1  0
 25 26  2  0
 26 27  1  0
 27 28  1  0
  5 29  1  0
 29 30  2  0
 30  3  1  0
 28  9  2  0
 21 15  1  0
 27 23  1  0
  1 31  1  0
  1 32  1  0
  1 33  1  0
  2 34  1  0
  2 35  1  0
  4 36  1  0
 10 37  1  0
 14 38  1  0
 15 39  1  6
 16 40  1  0
 16 41  1  0
 17 42  1  0
 17 43  1  0
 20 44  1  0
 25 45  1  0
 26 46  1  0
 28 47  1  0
 29 48  1  0
M  END
>  <meeko>  (661) 
{"is_sidechain": [true], "free_energy": -10.62, "intermolecular_energy": 0.0, "internal_energy": -10.62, "cluster_size": 19, "cluster_id": 1, "rank_in_cluster": 1}

>  <_RMSD_MCS_to_ref>  (661) 
0.59638345233769

$$$$
ligand
     RDKit          3D

 48 51  0  0  0  0  0  0  0  0999 V2000
   18.9090   19.1540    7.5370 C   0  0  0  0  0  0  0  0  0  0  0  0
   18.7730   17.6460    7.6780 C   0  0  0  0  0  0  0  0  0  0  0  0
   20.0810   16.9490    7.5510 C   0  0  0  0  0  0  0  0  0  0  0  0
   20.9110   16.4720    8.5460 C   0  0  0  0  0  0  0  0  0  0  0  0
   21.9550   15.9060    7.8700 N   0  0  0  0  0  0  0  0  0  0  0  0
   23.3770   15.3400    8.5620 S   0  0  0  0  0  6  0  0  0  0  0  0
   24.4190   16.2650    8.1670 O   0  0  0  0  0  0  0  0  0  0  0  0
   23.4310   13.9300    8.2250 O   0  0  0  0  0  0  0  0  0  0  0  0
   23.0880   15.4930   10.2970 C   0  0  0  0  0  0  0  0  0  0  0  0
   23.8650   16.3940   11.0350 C   0  0  0  0  0  0  0  0  0  0  0  0
   23.6390   16.4970   12.4010 C   0  0  0  0  0  0  0  0  0  0  0  0
   24.4800   17.4410   13.2100 C   0  0  0  0  0  0  0  0  0  0  0  0
   25.6190   17.7390   12.8740 O   0  0  0  0  0  0  0  0  0  0  0  0
   23.8730   17.9200   14.3500 N   0  0  0  0  0  0  0  0  0  0  0  0
   24.5820   18.7030   15.3450 C   0  0  1  0  0  0  0  0  0  0  0  0
   25.6920   17.9030   16.0200 C   0  0  0  0  0  0  0  0  0  0  0  0
   26.4120   18.7840   17.0280 C   0  0  0  0  0  0  0  0  0  0  0  0
   26.9400   20.0420   16.3800 C   0  0  0  0  0  0  0  0  0  0  0  0
   27.9810   20.5820   16.7410 O   0  0  0  0  0  0  0  0  0  0  0  0
   26.1780   20.5820   15.3750 N   0  0  0  0  0  0  0  0  0  0  0  0
   25.1940   19.9340   14.6680 C   0  0  0  0  0  0  0  0  0  0  0  0
   24.8320   20.3480   13.5670 O   0  0  0  0  0  0  0  0  0  0  0  0
   22.7120   15.7920   13.1050 N   0  0  0  0  0  0  0  0  0  0  0  0
   21.9900   14.9550   12.3400 C   0  0  0  0  0  0  0  0  0  0  0  0
   20.9970   14.1450   12.8180 N   0  0  0  0  0  0  0  0  0  0  0  0
   20.4520   13.4270   11.7860 C   0  0  0  0  0  0  0  0  0  0  0  0
   21.1110   13.7830   10.6290 C   0  0  0  0  0  0  0  0  0  0  0  0
   22.1010   14.7490   10.9670 C   0  0  0  0  0  0  0  0  0  0  0  0
   21.7700   16.0830    6.5370 C   0  0  0  0  0  0  0  0  0  0  0  0
   20.6330   16.7090    6.3090 N   0  0  0  0  0  0  0  0  0  0  0  0
   18.9504   19.6134    8.5356 H   0  0  0  0  0  0  0  0  0  0  0  0
   19.8320   19.3891    6.9867 H   0  0  0  0  0  0  0  0  0  0  0  0
   18.0430   19.5504    6.9867 H   0  0  0  0  0  0  0  0  0  0  0  0
   18.3456   17.4198    8.6660 H   0  0  0  0  0  0  0  0  0  0  0  0
   18.1202   17.2888    6.8679 H   0  0  0  0  0  0  0  0  0  0  0  0
   20.7651   16.5336    9.6345 H   0  0  0  0  0  0  0  0  0  0  0  0
   24.6363   17.0058   10.5442 H   0  0  0  0  0  0  0  0  0  0  0  0
   22.8754   17.7140   14.5024 H   0  0  0  0  0  0  0  0  0  0  0  0
   23.8596   18.9980   16.1203 H   0  0  0  0  0  0  0  0  0  0  0  0
   25.2560   17.0355   16.5370 H   0  0  0  0  0  0  0  0  0  0  0  0
   26.4075   17.5561   15.2599 H   0  0  0  0  0  0  0  0  0  0  0  0
   25.7095   19.0608   17.8279 H   0  0  0  0  0  0  0  0  0  0  0  0
   27.2639   18.2199   17.4356 H   0  0  0  0  0  0  0  0  0  0  0  0
   26.3606   21.5650   15.1273 H   0  0  0  0  0  0  0  0  0  0  0  0
   20.7036   14.0840   13.8034 H   0  0  0  0  0  0  0  0  0  0  0  0
   19.6338   12.6962   11.8666 H   0  0  0  0  0  0  0  0  0  0  0  0
   20.9079   13.3901    9.6218 H   0  0  0  0  0  0  0  0  0  0  0  0
   22.4706   15.7507    5.7568 H   0  0  0  0  0  0  0  0  0  0  0  0
  1  2  1  0
  2  3  1  0
  3  4  2  0
  4  5  1  0
  5  6  1  0
  6  7  2  0
  6  8  2  0
  6  9  1  0
  9 10  2  0
 10 11  1  0
 11 12  1  0
 12 13  2  0
 12 14  1  0
 14 15  1  0
 15 16  1  0
 16 17  1  0
 17 18  1  0
 18 19  2  0
 18 20  1  0
 20 21  1  0
 21 22  2  0
 11 23  2  0
 23 24  1  0
 24 25  1  0
 25 26  1  0
 26 27  2  0
 27 28  1  0
  5 29  1  0
 29 30  2  0
 30  3  1  0
 28  9  1  0
 21 15  1  0
 28 24  2  0
  1 31  1  0
  1 32  1  0
  1 33  1  0
  2 34  1  0
  2 35  1  0
  4 36  1  0
 10 37  1  0
 14 38  1  0
 15 39  1  1
 16 40  1  0
 16 41  1  0
 17 42  1  0
 17 43  1  0
 20 44  1  0
 25 45  1  0
 26 46  1  0
 27 47  1  0
 29 48  1  0
M  END
>  <meeko>  (662) 
{"is_sidechain": [true], "free_energy": -10.62, "intermolecular_energy": 0.0, "internal_energy": -10.62, "cluster_size": 19, "cluster_id": 1, "rank_in_cluster": 1}

>  <_RMSD_MCS_to_ref>  (662) 
0.6037991755910609

$$$$
ligand
     RDKit          3D

 47 50  0  0  0  0  0  0  0  0999 V2000
   18.9090   19.1540    7.5370 C   0  0  0  0  0  0  0  0  0  0  0  0
   18.7730   17.6460    7.6780 C   0  0  0  0  0  0  0  0  0  0  0  0
   20.0750   16.9840    7.9620 C   0  0  0  0  0  0  0  0  0  0  0  0
   20.3950   16.1050    8.9790 C   0  0  0  0  0  0  0  0  0  0  0  0
   21.7080   15.8010    8.7650 N   0  0  0  0  0  0  0  0  0  0  0  0
   22.6990   14.9780    9.8370 S   0  0  0  0  0  6  0  0  0  0  0  0
   23.1410   13.7980    9.1190 O   0  0  0  0  0  0  0  0  0  0  0  0
   23.6250   15.9490   10.3830 O   0  0  0  0  0  0  0  0  0  0  0  0
   21.7940   14.3630   11.1920 C   0  0  0  0  0  0  0  0  0  0  0  0
   20.8760   13.3360   11.2920 C   0  0  0  0  0  0  0  0  0  0  0  0
   20.4210   13.1870   12.5750 N   0  0  0  0  0  0  0  0  0  0  0  0
   21.0610   14.1010   13.2680 C   0  0  0  0  0  0  0  0  0  0  0  0
   21.0190   14.4110   14.6450 C   0  0  0  0  0  0  0  0  0  0  0  0
   21.7680   15.4130   15.1170 C   0  0  0  0  0  0  0  0  0  0  0  0
   22.6050   16.1560   14.1370 C   0  0  0  0  0  0  0  0  0  0  0  0
   23.4460   17.3000   14.7100 C   0  0  0  0  0  0  0  0  0  0  0  0
   23.0310   17.9460   15.6590 O   0  0  0  0  0  0  0  0  0  0  0  0
   24.6480   17.5020   14.0670 N   0  0  0  0  0  0  0  0  0  0  0  0
   25.7200   18.2160   14.7420 C   0  0  2  0  0  0  0  0  0  0  0  0
   25.7060   17.9380   16.2400 C   0  0  0  0  0  0  0  0  0  0  0  0
   26.8250   18.7170   16.9120 C   0  0  0  0  0  0  0  0  0  0  0  0
   26.7120   20.1960   16.6250 C   0  0  0  0  0  0  0  0  0  0  0  0
   27.0870   21.0490   17.4230 O   0  0  0  0  0  0  0  0  0  0  0  0
   26.2090   20.5460   15.3960 N   0  0  0  0  0  0  0  0  0  0  0  0
   25.5620   19.7270   14.5010 C   0  0  0  0  0  0  0  0  0  0  0  0
   24.9340   20.2060   13.5570 O   0  0  0  0  0  0  0  0  0  0  0  0
   22.6730   15.9120   12.8570 N   0  0  0  0  0  0  0  0  0  0  0  0
   21.9000   14.8600   12.4640 N   0  0  0  0  0  0  0  0  0  0  0  0
   22.1490   16.4780    7.6730 C   0  0  0  0  0  0  0  0  0  0  0  0
   21.1880   17.2380    7.1800 N   0  0  0  0  0  0  0  0  0  0  0  0
   18.9504   19.6134    8.5356 H   0  0  0  0  0  0  0  0  0  0  0  0
   19.8320   19.3891    6.9867 H   0  0  0  0  0  0  0  0  0  0  0  0
   18.0430   19.5504    6.9867 H   0  0  0  0  0  0  0  0  0  0  0  0
   18.0789   17.4294    8.5034 H   0  0  0  0  0  0  0  0  0  0  0  0
   18.3974   17.2519    6.7222 H   0  0  0  0  0  0  0  0  0  0  0  0
   19.7392   15.7340    9.7804 H   0  0  0  0  0  0  0  0  0  0  0  0
   20.5503   12.7141   10.4451 H   0  0  0  0  0  0  0  0  0  0  0  0
   20.3752   13.8327   15.3240 H   0  0  0  0  0  0  0  0  0  0  0  0
   21.7654   15.6768   16.1849 H   0  0  0  0  0  0  0  0  0  0  0  0
   24.7869   17.1478   13.1098 H   0  0  0  0  0  0  0  0  0  0  0  0
   26.6795   17.8670   14.3326 H   0  0  0  0  0  0  0  0  0  0  0  0
   24.7387   18.2491   16.6613 H   0  0  0  0  0  0  0  0  0  0  0  0
   25.8535   16.8619   16.4139 H   0  0  0  0  0  0  0  0  0  0  0  0
   26.7703   18.5575   17.9990 H   0  0  0  0  0  0  0  0  0  0  0  0
   27.7858   18.3581   16.5145 H   0  0  0  0  0  0  0  0  0  0  0  0
   26.3296   21.5293   15.1139 H   0  0  0  0  0  0  0  0  0  0  0  0
   23.1647   16.4036    7.2574 H   0  0  0  0  0  0  0  0  0  0  0  0
  1  2  1  0
  2  3  1  0
  3  4  2  0
  4  5  1  0
  5  6  1  0
  6  7  2  0
  6  8  2  0
  6  9  1  0
  9 10  2  0
 10 11  1  0
 11 12  2  0
 12 13  1  0
 13 14  2  0
 14 15  1  0
 15 16  1  0
 16 17  2  0
 16 18  1  0
 18 19  1  0
 19 20  1  0
 20 21  1  0
 21 22  1  0
 22 23  2  0
 22 24  1  0
 24 25  1  0
 25 26  2  0
 15 27  2  0
 27 28  1  0
  5 29  1  0
 29 30  2  0
 30  3  1  0
 28  9  1  0
 28 12  1  0
 25 19  1  0
  1 31  1  0
  1 32  1  0
  1 33  1  0
  2 34  1  0
  2 35  1  0
  4 36  1  0
 10 37  1  0
 13 38  1  0
 14 39  1  0
 18 40  1  0
 19 41  1  6
 20 42  1  0
 20 43  1  0
 21 44  1  0
 21 45  1  0
 24 46  1  0
 29 47  1  0
M  END
>  <meeko>  (663) 
{"is_sidechain": [true], "free_energy": -10.62, "intermolecular_energy": 0.0, "internal_energy": -10.62, "cluster_size": 4, "cluster_id": 1, "rank_in_cluster": 1}

>  <_RMSD_MCS_to_ref>  (663) 
0.537153609314877

$$$$
ligand
     RDKit          3D

 48 51  0  0  0  0  0  0  0  0999 V2000
   18.7970   18.8170    7.7190 C   0  0  0  0  0  0  0  0  0  0  0  0
   18.5280   17.3290    7.8810 C   0  0  0  0  0  0  0  0  0  0  0  0
   19.7850   16.5320    7.9120 C   0  0  0  0  0  0  0  0  0  0  0  0
   20.0850   15.4120    8.6620 C   0  0  0  0  0  0  0  0  0  0  0  0
   21.3590   15.0920    8.2900 N   0  0  0  0  0  0  0  0  0  0  0  0
   22.3300   13.9330    9.0200 S   0  0  0  0  0  6  0  0  0  0  0  0
   21.4370   13.1470    9.8540 O   0  0  0  0  0  0  0  0  0  0  0  0
   23.1400   13.3500    7.9720 O   0  0  0  0  0  0  0  0  0  0  0  0
   23.3840   14.8640   10.0970 C   0  0  0  0  0  0  0  0  0  0  0  0
   24.5630   15.4350    9.5960 C   0  0  0  0  0  0  0  0  0  0  0  0
   25.4030   16.1830   10.4260 C   0  0  0  0  0  0  0  0  0  0  0  0
   25.1020   16.3790   11.7890 C   0  0  0  0  0  0  0  0  0  0  0  0
   26.0190   17.1860   12.6320 C   0  0  0  0  0  0  0  0  0  0  0  0
   26.9610   17.7820   12.1200 O   0  0  0  0  0  0  0  0  0  0  0  0
   25.7550   17.2330   13.9790 N   0  0  0  0  0  0  0  0  0  0  0  0
   26.5370   18.0440   14.8950 C   0  0  2  0  0  0  0  0  0  0  0  0
   26.1070   17.8260   16.3430 C   0  0  0  0  0  0  0  0  0  0  0  0
   26.9520   18.6920   17.2620 C   0  0  0  0  0  0  0  0  0  0  0  0
   26.8710   20.1490   16.8680 C   0  0  0  0  0  0  0  0  0  0  0  0
   26.9360   21.0580   17.6910 O   0  0  0  0  0  0  0  0  0  0  0  0
   26.7550   20.4170   15.5270 N   0  0  0  0  0  0  0  0  0  0  0  0
   26.3870   19.5290   14.5450 C   0  0  0  0  0  0  0  0  0  0  0  0
   25.9910   19.9360   13.4530 O   0  0  0  0  0  0  0  0  0  0  0  0
   23.9320   15.7900   12.3060 C   0  0  0  0  0  0  0  0  0  0  0  0
   23.4050   15.8060   13.5820 N   0  0  0  0  0  0  0  0  0  0  0  0
   22.3030   15.0940   13.5230 C   0  0  0  0  0  0  0  0  0  0  0  0
   22.0840   14.6150   12.2660 N   0  0  0  0  0  0  0  0  0  0  0  0
   23.1110   15.0510   11.4590 C   0  0  0  0  0  0  0  0  0  0  0  0
   21.8030   16.0020    7.3870 C   0  0  0  0  0  0  0  0  0  0  0  0
   20.8650   16.8890    7.1290 N   0  0  0  0  0  0  0  0  0  0  0  0
   18.8815   19.2845    8.7111 H   0  0  0  0  0  0  0  0  0  0  0  0
   19.7359   18.9616    7.1643 H   0  0  0  0  0  0  0  0  0  0  0  0
   17.9682   19.2812    7.1643 H   0  0  0  0  0  0  0  0  0  0  0  0
   17.9826   17.1677    8.8226 H   0  0  0  0  0  0  0  0  0  0  0  0
   17.9373   16.9957    7.0150 H   0  0  0  0  0  0  0  0  0  0  0  0
   19.4442   14.8958    9.3920 H   0  0  0  0  0  0  0  0  0  0  0  0
   24.8296   15.2927    8.5383 H   0  0  0  0  0  0  0  0  0  0  0  0
   26.3176   16.6278   10.0069 H   0  0  0  0  0  0  0  0  0  0  0  0
   24.9751   16.6734   14.3524 H   0  0  0  0  0  0  0  0  0  0  0  0
   27.5886   17.7379   14.7923 H   0  0  0  0  0  0  0  0  0  0  0  0
   25.0473   18.0989   16.4551 H   0  0  0  0  0  0  0  0  0  0  0  0
   26.2452   16.7678   16.6095 H   0  0  0  0  0  0  0  0  0  0  0  0
   26.5899   18.5790   18.2945 H   0  0  0  0  0  0  0  0  0  0  0  0
   27.9997   18.3670   17.1804 H   0  0  0  0  0  0  0  0  0  0  0  0
   26.9647   21.3797   15.2267 H   0  0  0  0  0  0  0  0  0  0  0  0
   21.6399   14.9076   14.3806 H   0  0  0  0  0  0  0  0  0  0  0  0
   21.2895   14.0295   11.9713 H   0  0  0  0  0  0  0  0  0  0  0  0
   22.8055   15.9991    6.9342 H   0  0  0  0  0  0  0  0  0  0  0  0
  1  2  1  0
  2  3  1  0
  3  4  2  0
  4  5  1  0
  5  6  1  0
  6  7  2  0
  6  8  2  0
  6  9  1  0
  9 10  2  0
 10 11  1  0
 11 12  2  0
 12 13  1  0
 13 14  2  0
 13 15  1  0
 15 16  1  0
 16 17  1  0
 17 18  1  0
 18 19  1  0
 19 20  2  0
 19 21  1  0
 21 22  1  0
 22 23  2  0
 12 24  1  0
 24 25  1  0
 25 26  2  0
 26 27  1  0
 27 28  1  0
  5 29  1  0
 29 30  2  0
 30  3  1  0
 28  9  1  0
 22 16  1  0
 28 24  2  0
  1 31  1  0
  1 32  1  0
  1 33  1  0
  2 34  1  0
  2 35  1  0
  4 36  1  0
 10 37  1  0
 11 38  1  0
 15 39  1  0
 16 40  1  1
 17 41  1  0
 17 42  1  0
 18 43  1  0
 18 44  1  0
 21 45  1  0
 26 46  1  0
 27 47  1  0
 29 48  1  0
M  END
>  <meeko>  (664) 
{"is_sidechain": [true], "free_energy": -10.61, "intermolecular_energy": 0.0, "internal_energy": -10.61, "cluster_size": 13, "cluster_id": 1, "rank_in_cluster": 1}

>  <_RMSD_MCS_to_ref>  (664) 
0.8982419248485088

$$$$
ligand
     RDKit          3D

 47 50  0  0  0  0  0  0  0  0999 V2000
   18.7970   18.8170    7.7190 C   0  0  0  0  0  0  0  0  0  0  0  0
   18.5280   17.3290    7.8810 C   0  0  0  0  0  0  0  0  0  0  0  0
   19.7860   16.5350    7.9380 C   0  0  0  0  0  0  0  0  0  0  0  0
   20.4450   16.0330    9.0430 C   0  0  0  0  0  0  0  0  0  0  0  0
   21.5380   15.4020    8.5250 N   0  0  0  0  0  0  0  0  0  0  0  0
   22.5700   14.3540    9.3560 S   0  0  0  0  0  6  0  0  0  0  0  0
   22.4580   13.1030    8.6240 O   0  0  0  0  0  0  0  0  0  0  0  0
   23.8380   15.0600    9.4140 O   0  0  0  0  0  0  0  0  0  0  0  0
   21.9060   14.1700   10.9570 C   0  0  0  0  0  0  0  0  0  0  0  0
   20.9360   13.2610   11.1400 C   0  0  0  0  0  0  0  0  0  0  0  0
   20.3770   13.1470   12.5050 C   0  0  0  0  0  0  0  0  0  0  0  0
   20.7290   13.8430   13.5340 N   0  0  0  0  0  0  0  0  0  0  0  0
   21.7120   14.7260   13.2700 N   0  0  0  0  0  0  0  0  0  0  0  0
   22.1700   15.5120   14.2520 N   0  0  0  0  0  0  0  0  0  0  0  0
   23.1480   16.2350   13.6790 C   0  0  0  0  0  0  0  0  0  0  0  0
   23.9230   17.2290   14.4350 C   0  0  0  0  0  0  0  0  0  0  0  0
   23.3990   18.0610   15.1690 O   0  0  0  0  0  0  0  0  0  0  0  0
   25.2810   17.1280   14.2500 N   0  0  0  0  0  0  0  0  0  0  0  0
   26.2330   17.9170   15.0070 C   0  0  2  0  0  0  0  0  0  0  0  0
   25.9820   17.8220   16.5080 C   0  0  0  0  0  0  0  0  0  0  0  0
   26.9960   18.6770   17.2500 C   0  0  0  0  0  0  0  0  0  0  0  0
   26.9660   20.1080   16.7680 C   0  0  0  0  0  0  0  0  0  0  0  0
   27.2060   21.0570   17.5070 O   0  0  0  0  0  0  0  0  0  0  0  0
   26.6880   20.3020   15.4380 N   0  0  0  0  0  0  0  0  0  0  0  0
   26.1420   19.3840   14.5730 C   0  0  0  0  0  0  0  0  0  0  0  0
   25.6410   19.7430   13.5090 O   0  0  0  0  0  0  0  0  0  0  0  0
   23.2960   15.9030   12.3080 C   0  0  0  0  0  0  0  0  0  0  0  0
   22.3430   14.9400   12.0640 C   0  0  0  0  0  0  0  0  0  0  0  0
   21.5020   15.4950    7.1690 C   0  0  0  0  0  0  0  0  0  0  0  0
   20.4510   16.1840    6.7800 N   0  0  0  0  0  0  0  0  0  0  0  0
   18.8815   19.2845    8.7111 H   0  0  0  0  0  0  0  0  0  0  0  0
   19.7359   18.9616    7.1643 H   0  0  0  0  0  0  0  0  0  0  0  0
   17.9682   19.2812    7.1643 H   0  0  0  0  0  0  0  0  0  0  0  0
   17.9656   17.1697    8.8128 H   0  0  0  0  0  0  0  0  0  0  0  0
   17.9540   16.9915    7.0055 H   0  0  0  0  0  0  0  0  0  0  0  0
   20.1546   16.1218   10.1003 H   0  0  0  0  0  0  0  0  0  0  0  0
   20.5738   12.6307   10.3145 H   0  0  0  0  0  0  0  0  0  0  0  0
   19.5861   12.3979   12.6579 H   0  0  0  0  0  0  0  0  0  0  0  0
   25.6365   16.4657   13.5458 H   0  0  0  0  0  0  0  0  0  0  0  0
   27.2372   17.5171   14.8028 H   0  0  0  0  0  0  0  0  0  0  0  0
   24.9666   18.1806   16.7327 H   0  0  0  0  0  0  0  0  0  0  0  0
   26.0825   16.7748   16.8294 H   0  0  0  0  0  0  0  0  0  0  0  0
   26.7637   18.6562   18.3250 H   0  0  0  0  0  0  0  0  0  0  0  0
   27.9994   18.2681   17.0602 H   0  0  0  0  0  0  0  0  0  0  0  0
   26.9111   21.2292   15.0488 H   0  0  0  0  0  0  0  0  0  0  0  0
   24.0177   16.3247   11.5929 H   0  0  0  0  0  0  0  0  0  0  0  0
   22.2483   15.0551    6.4911 H   0  0  0  0  0  0  0  0  0  0  0  0
  1  2  1  0
  2  3  1  0
  3  4  2  0
  4  5  1  0
  5  6  1  0
  6  7  2  0
  6  8  2  0
  6  9  1  0
  9 10  2  0
 10 11  1  0
 11 12  2  0
 12 13  1  0
 13 14  1  0
 14 15  2  0
 15 16  1  0
 16 17  2  0
 16 18  1  0
 18 19  1  0
 19 20  1  0
 20 21  1  0
 21 22  1  0
 22 23  2  0
 22 24  1  0
 24 25  1  0
 25 26  2  0
 15 27  1  0
 27 28  2  0
  5 29  1  0
 29 30  2  0
 30  3  1  0
 28  9  1  0
 28 13  1  0
 25 19  1  0
  1 31  1  0
  1 32  1  0
  1 33  1  0
  2 34  1  0
  2 35  1  0
  4 36  1  0
 10 37  1  0
 11 38  1  0
 18 39  1  0
 19 40  1  1
 20 41  1  0
 20 42  1  0
 21 43  1  0
 21 44  1  0
 24 45  1  0
 27 46  1  0
 29 47  1  0
M  END
>  <meeko>  (665) 
{"is_sidechain": [true], "free_energy": -10.61, "intermolecular_energy": 0.0, "internal_energy": -10.61, "cluster_size": 10, "cluster_id": 1, "rank_in_cluster": 1}

>  <_RMSD_MCS_to_ref>  (665) 
0.7287657755105919

$$$$
ligand
     RDKit          3D

 46 49  0  0  0  0  0  0  0  0999 V2000
   18.9090   19.1540    7.5370 C   0  0  0  0  0  0  0  0  0  0  0  0
   18.7730   17.6460    7.6780 C   0  0  0  0  0  0  0  0  0  0  0  0
   20.0590   17.0000    8.0580 C   0  0  0  0  0  0  0  0  0  0  0  0
   20.3290   16.1560    9.1180 C   0  0  0  0  0  0  0  0  0  0  0  0
   21.6540   15.8560    8.9780 N   0  0  0  0  0  0  0  0  0  0  0  0
   22.6010   15.0380   10.0950 S   0  0  0  0  0  6  0  0  0  0  0  0
   22.8450   13.7330    9.5140 O   0  0  0  0  0  0  0  0  0  0  0  0
   21.9290   15.2160   11.3680 O   0  0  0  0  0  0  0  0  0  0  0  0
   24.1610   15.8620   10.2120 C   0  0  0  0  0  0  0  0  0  0  0  0
   25.1120   15.7580    9.1850 C   0  0  0  0  0  0  0  0  0  0  0  0
   26.3330   16.4230    9.2950 C   0  0  0  0  0  0  0  0  0  0  0  0
   26.6090   17.1930   10.4220 C   0  0  0  0  0  0  0  0  0  0  0  0
   25.6610   17.2990   11.4480 C   0  0  0  0  0  0  0  0  0  0  0  0
   25.9600   18.1160   12.6390 C   0  0  0  0  0  0  0  0  0  0  0  0
   27.0380   18.7020   12.7120 O   0  0  0  0  0  0  0  0  0  0  0  0
   24.9690   18.1840   13.6140 N   0  0  0  0  0  0  0  0  0  0  0  0
   25.2770   18.8550   14.8810 C   0  0  1  0  0  0  0  0  0  0  0  0
   26.3380   18.1280   15.7080 C   0  0  0  0  0  0  0  0  0  0  0  0
   26.5680   18.8800   17.0090 C   0  0  0  0  0  0  0  0  0  0  0  0
   26.9610   20.3140   16.7480 C   0  0  0  0  0  0  0  0  0  0  0  0
   27.6630   20.9530   17.5260 O   0  0  0  0  0  0  0  0  0  0  0  0
   26.4510   20.8960   15.6150 N   0  0  0  0  0  0  0  0  0  0  0  0
   25.7330   20.2930   14.6030 C   0  0  0  0  0  0  0  0  0  0  0  0
   25.4500   20.9360   13.5920 O   0  0  0  0  0  0  0  0  0  0  0  0
   23.7710   17.5160   13.5340 N   0  0  0  0  0  0  0  0  0  0  0  0
   23.5220   16.8010   12.4820 C   0  0  0  0  0  0  0  0  0  0  0  0
   24.4400   16.6360   11.3510 C   0  0  0  0  0  0  0  0  0  0  0  0
   22.1490   16.5130    7.8970 C   0  0  0  0  0  0  0  0  0  0  0  0
   21.2050   17.2260    7.3200 N   0  0  0  0  0  0  0  0  0  0  0  0
   18.9504   19.6134    8.5356 H   0  0  0  0  0  0  0  0  0  0  0  0
   19.8320   19.3891    6.9867 H   0  0  0  0  0  0  0  0  0  0  0  0
   18.0430   19.5504    6.9867 H   0  0  0  0  0  0  0  0  0  0  0  0
   18.0242   17.4286    8.4539 H   0  0  0  0  0  0  0  0  0  0  0  0
   18.4664   17.2412    6.7022 H   0  0  0  0  0  0  0  0  0  0  0  0
   19.6354   15.8058    9.8966 H   0  0  0  0  0  0  0  0  0  0  0  0
   24.8943   15.1519    8.2932 H   0  0  0  0  0  0  0  0  0  0  0  0
   27.0787   16.3392    8.4907 H   0  0  0  0  0  0  0  0  0  0  0  0
   27.5718   17.7182   10.5067 H   0  0  0  0  0  0  0  0  0  0  0  0
   24.3529   18.8498   15.4777 H   0  0  0  0  0  0  0  0  0  0  0  0
   25.9940   17.1071   15.9303 H   0  0  0  0  0  0  0  0  0  0  0  0
   27.2786   18.0818   15.1395 H   0  0  0  0  0  0  0  0  0  0  0  0
   25.6413   18.8640   17.6014 H   0  0  0  0  0  0  0  0  0  0  0  0
   27.3862   18.3884   17.5558 H   0  0  0  0  0  0  0  0  0  0  0  0
   26.6253   21.9054   15.5069 H   0  0  0  0  0  0  0  0  0  0  0  0
   22.5536   16.2814   12.4345 H   0  0  0  0  0  0  0  0  0  0  0  0
   23.1921   16.4570    7.5523 H   0  0  0  0  0  0  0  0  0  0  0  0
  1  2  1  0
  2  3  1  0
  3  4  2  0
  4  5  1  0
  5  6  1  0
  6  7  2  0
  6  8  2  0
  6  9  1  0
  9 10  2  0
 10 11  1  0
 11 12  2  0
 12 13  1  0
 13 14  1  0
 14 15  2  0
 14 16  1  0
 16 17  1  0
 17 18  1  0
 18 19  1  0
 19 20  1  0
 20 21  2  0
 20 22  1  0
 22 23  1  0
 23 24  2  0
 16 25  1  0
 25 26  2  0
 26 27  1  0
  5 28  1  0
 28 29  2  0
 29  3  1  0
 27  9  1  0
 27 13  2  0
 23 17  1  0
  1 30  1  0
  1 31  1  0
  1 32  1  0
  2 33  1  0
  2 34  1  0
  4 35  1  0
 10 36  1  0
 11 37  1  0
 12 38  1  0
 17 39  1  1
 18 40  1  0
 18 41  1  0
 19 42  1  0
 19 43  1  0
 22 44  1  0
 26 45  1  0
 28 46  1  0
M  END
>  <meeko>  (666) 
{"is_sidechain": [true], "free_energy": -10.61, "intermolecular_energy": 0.0, "internal_energy": -10.61, "cluster_size": 19, "cluster_id": 1, "rank_in_cluster": 1}

>  <_RMSD_MCS_to_ref>  (666) 
0.7211738887243343

$$$$
ligand
     RDKit          3D

 56 60  0  0  0  0  0  0  0  0999 V2000
   18.9090   19.1540    7.5370 C   0  0  0  0  0  0  0  0  0  0  0  0
   18.7730   17.6460    7.6780 C   0  0  0  0  0  0  0  0  0  0  0  0
   19.7150   16.9110    6.7910 C   0  0  0  0  0  0  0  0  0  0  0  0
   20.4200   15.7510    7.0410 C   0  0  0  0  0  0  0  0  0  0  0  0
   21.1410   15.5460    5.8990 N   0  0  0  0  0  0  0  0  0  0  0  0
   22.1620   14.2330    5.6140 S   0  0  0  0  0  6  0  0  0  0  0  0
   22.7900   14.5770    4.3460 O   0  0  0  0  0  0  0  0  0  0  0  0
   21.3110   13.0590    5.6960 O   0  0  0  0  0  0  0  0  0  0  0  0
   23.3640   14.1770    6.8410 C   0  0  0  0  0  0  0  0  0  0  0  0
   23.1350   14.7470    8.0370 C   0  0  0  0  0  0  0  0  0  0  0  0
   24.1400   14.7280    9.0910 C   0  0  0  0  0  0  0  0  0  0  0  0
   23.9180   15.3280   10.4200 C   0  0  0  0  0  0  0  0  0  0  0  0
   22.8270   14.8970   11.2120 C   0  0  0  0  0  0  0  0  0  0  0  0
   22.5800   15.4460   12.4770 C   0  0  0  0  0  0  0  0  0  0  0  0
   23.4320   16.4330   12.9360 C   0  0  0  0  0  0  0  0  0  0  0  0
   24.5000   16.8570   12.1490 C   0  0  0  0  0  0  0  0  0  0  0  0
   24.7700   16.3320   10.8990 C   0  0  0  0  0  0  0  0  0  0  0  0
   25.2270   17.8950   12.8860 C   0  0  0  0  0  0  0  0  0  0  0  0
   26.2490   18.4330   12.5050 O   0  0  0  0  0  0  0  0  0  0  0  0
   24.5290   18.1150   14.0640 N   0  0  0  0  0  0  0  0  0  0  0  0
   25.0970   18.8910   15.1600 C   0  0  1  0  0  0  0  0  0  0  0  0
   26.1780   18.1270   15.9180 C   0  0  0  0  0  0  0  0  0  0  0  0
   26.6590   18.9660   17.0920 C   0  0  0  0  0  0  0  0  0  0  0  0
   27.1420   20.3220   16.6320 C   0  0  0  0  0  0  0  0  0  0  0  0
   28.0950   20.8920   17.1540 O   0  0  0  0  0  0  0  0  0  0  0  0
   26.4490   20.9020   15.6010 N   0  0  0  0  0  0  0  0  0  0  0  0
   25.6780   20.2320   14.6780 C   0  0  0  0  0  0  0  0  0  0  0  0
   25.5000   20.7050   13.5580 O   0  0  0  0  0  0  0  0  0  0  0  0
   23.4270   17.1750   14.2320 C   0  0  0  0  0  0  0  0  0  0  0  0
   25.3180   14.1300    8.8350 C   0  0  0  0  0  0  0  0  0  0  0  0
   25.5660   13.5570    7.6120 N   0  0  0  0  0  0  0  0  0  0  0  0
   24.6660   13.5410    6.5700 C   0  0  0  0  0  0  0  0  0  0  0  0
   24.9370   13.0210    5.4950 O   0  0  0  0  0  0  0  0  0  0  0  0
   20.8420   16.5180    5.0000 C   0  0  0  0  0  0  0  0  0  0  0  0
   19.9890   17.3770    5.5200 N   0  0  0  0  0  0  0  0  0  0  0  0
   18.9504   19.6134    8.5356 H   0  0  0  0  0  0  0  0  0  0  0  0
   19.8320   19.3891    6.9867 H   0  0  0  0  0  0  0  0  0  0  0  0
   18.0430   19.5504    6.9867 H   0  0  0  0  0  0  0  0  0  0  0  0
   18.9795   17.3678    8.7220 H   0  0  0  0  0  0  0  0  0  0  0  0
   17.7491   17.3706    7.3852 H   0  0  0  0  0  0  0  0  0  0  0  0
   20.4048   15.1333    7.9511 H   0  0  0  0  0  0  0  0  0  0  0  0
   22.1684   15.2379    8.2233 H   0  0  0  0  0  0  0  0  0  0  0  0
   22.1583   14.1137   10.8257 H   0  0  0  0  0  0  0  0  0  0  0  0
   21.7323   15.1015   13.0875 H   0  0  0  0  0  0  0  0  0  0  0  0
   25.6223   16.6893   10.3024 H   0  0  0  0  0  0  0  0  0  0  0  0
   24.2579   19.0857   15.8441 H   0  0  0  0  0  0  0  0  0  0  0  0
   25.7646   17.1779   16.2899 H   0  0  0  0  0  0  0  0  0  0  0  0
   27.0223   17.9186   15.2443 H   0  0  0  0  0  0  0  0  0  0  0  0
   25.8283   19.1021   17.8001 H   0  0  0  0  0  0  0  0  0  0  0  0
   27.4975   18.4424   17.5744 H   0  0  0  0  0  0  0  0  0  0  0  0
   26.5104   21.9261   15.5092 H   0  0  0  0  0  0  0  0  0  0  0  0
   23.6091   16.4968   15.0787 H   0  0  0  0  0  0  0  0  0  0  0  0
   22.4660   17.6622   14.4537 H   0  0  0  0  0  0  0  0  0  0  0  0
   26.0924   14.0998    9.6156 H   0  0  0  0  0  0  0  0  0  0  0  0
   26.4828   13.1112    7.4648 H   0  0  0  0  0  0  0  0  0  0  0  0
   21.2535   16.5798    3.9817 H   0  0  0  0  0  0  0  0  0  0  0  0
  1  2  1  0
  2  3  1  0
  3  4  2  0
  4  5  1  0
  5  6  1  0
  6  7  2  0
  6  8  2  0
  6  9  1  0
  9 10  2  0
 10 11  1  0
 11 12  1  0
 12 13  2  0
 13 14  1  0
 14 15  2  0
 15 16  1  0
 16 17  2  0
 16 18  1  0
 18 19  2  0
 18 20  1  0
 20 21  1  0
 21 22  1  0
 22 23  1  0
 23 24  1  0
 24 25  2  0
 24 26  1  0
 26 27  1  0
 27 28  2  0
 20 29  1  0
 11 30  2  0
 30 31  1  0
 31 32  1  0
 32 33  2  0
  5 34  1  0
 34 35  2  0
 35  3  1  0
 32  9  1  0
 17 12  1  0
 27 21  1  0
 29 15  1  0
  1 36  1  0
  1 37  1  0
  1 38  1  0
  2 39  1  0
  2 40  1  0
  4 41  1  0
 10 42  1  0
 13 43  1  0
 14 44  1  0
 17 45  1  0
 21 46  1  1
 22 47  1  0
 22 48  1  0
 23 49  1  0
 23 50  1  0
 26 51  1  0
 29 52  1  0
 29 53  1  0
 30 54  1  0
 31 55  1  0
 34 56  1  0
M  END
>  <meeko>  (667) 
{"is_sidechain": [true], "free_energy": -10.61, "intermolecular_energy": 0.0, "internal_energy": -10.61, "cluster_size": 20, "cluster_id": 1, "rank_in_cluster": 1}

>  <_RMSD_MCS_to_ref>  (667) 
1.9524914425762105

$$$$
ligand
     RDKit          3D

 49 52  0  0  0  0  0  0  0  0999 V2000
   18.9090   19.1540    7.5370 C   0  0  0  0  0  0  0  0  0  0  0  0
   18.7730   17.6460    7.6780 C   0  0  0  0  0  0  0  0  0  0  0  0
   19.9820   16.9250    7.1970 C   0  0  0  0  0  0  0  0  0  0  0  0
   21.1120   16.5580    7.9010 C   0  0  0  0  0  0  0  0  0  0  0  0
   21.8880   15.9150    6.9800 N   0  0  0  0  0  0  0  0  0  0  0  0
   23.4800   15.4230    7.1990 S   0  0  0  0  0  6  0  0  0  0  0  0
   24.2930   16.4200    6.5300 O   0  0  0  0  0  0  0  0  0  0  0  0
   23.5160   14.0200    6.8340 O   0  0  0  0  0  0  0  0  0  0  0  0
   23.7190   15.5660    8.9510 C   0  0  0  0  0  0  0  0  0  0  0  0
   24.8130   16.2870    9.4300 C   0  0  0  0  0  0  0  0  0  0  0  0
   25.0210   16.4050   10.8090 C   0  0  0  0  0  0  0  0  0  0  0  0
   24.1190   15.8010   11.7140 C   0  0  0  0  0  0  0  0  0  0  0  0
   24.0400   15.7320   13.1480 C   0  0  0  0  0  0  0  0  0  0  0  0
   24.9790   16.3220   14.1040 C   0  0  0  0  0  0  0  0  0  0  0  0
   25.6830   15.6430   14.8460 O   0  0  0  0  0  0  0  0  0  0  0  0
   25.0360   17.6970   14.1080 N   0  0  0  0  0  0  0  0  0  0  0  0
   26.0350   18.4130   14.8830 C   0  0  2  0  0  0  0  0  0  0  0  0
   25.9060   18.1500   16.3790 C   0  0  0  0  0  0  0  0  0  0  0  0
   26.9520   18.9610   17.1290 C   0  0  0  0  0  0  0  0  0  0  0  0
   26.8430   20.4320   16.8030 C   0  0  0  0  0  0  0  0  0  0  0  0
   27.0880   21.3100   17.6260 O   0  0  0  0  0  0  0  0  0  0  0  0
   26.4820   20.7520   15.5190 N   0  0  0  0  0  0  0  0  0  0  0  0
   25.8650   19.9140   14.6240 C   0  0  0  0  0  0  0  0  0  0  0  0
   25.2260   20.3570   13.6710 O   0  0  0  0  0  0  0  0  0  0  0  0
   22.9040   14.9890   13.4370 C   0  0  0  0  0  0  0  0  0  0  0  0
   22.3060   14.6260   12.2580 N   0  0  0  0  0  0  0  0  0  0  0  0
   23.0290   15.1030   11.1910 C   0  0  0  0  0  0  0  0  0  0  0  0
   22.7940   14.9680    9.8170 C   0  0  0  0  0  0  0  0  0  0  0  0
   21.2630   15.9450    5.7750 C   0  0  0  0  0  0  0  0  0  0  0  0
   20.0940   16.5420    5.8740 N   0  0  0  0  0  0  0  0  0  0  0  0
   18.9504   19.6134    8.5356 H   0  0  0  0  0  0  0  0  0  0  0  0
   19.8320   19.3891    6.9867 H   0  0  0  0  0  0  0  0  0  0  0  0
   18.0430   19.5504    6.9867 H   0  0  0  0  0  0  0  0  0  0  0  0
   18.6140   17.4024    8.7388 H   0  0  0  0  0  0  0  0  0  0  0  0
   17.9207   17.3248    7.0612 H   0  0  0  0  0  0  0  0  0  0  0  0
   21.3358   16.7419    8.9622 H   0  0  0  0  0  0  0  0  0  0  0  0
   25.5111   16.7620    8.7250 H   0  0  0  0  0  0  0  0  0  0  0  0
   25.8866   16.9679   11.1885 H   0  0  0  0  0  0  0  0  0  0  0  0
   24.3551   18.2306   13.5490 H   0  0  0  0  0  0  0  0  0  0  0  0
   27.0283   18.0597   14.5692 H   0  0  0  0  0  0  0  0  0  0  0  0
   24.9017   18.4444   16.7177 H   0  0  0  0  0  0  0  0  0  0  0  0
   26.0609   17.0792   16.5775 H   0  0  0  0  0  0  0  0  0  0  0  0
   26.8059   18.8218   18.2103 H   0  0  0  0  0  0  0  0  0  0  0  0
   27.9486   18.6103   16.8228 H   0  0  0  0  0  0  0  0  0  0  0  0
   26.6930   21.7075   15.1974 H   0  0  0  0  0  0  0  0  0  0  0  0
   22.5434   14.7338   14.4444 H   0  0  0  0  0  0  0  0  0  0  0  0
   21.4392   14.0748   12.1827 H   0  0  0  0  0  0  0  0  0  0  0  0
   21.9221   14.4170    9.4347 H   0  0  0  0  0  0  0  0  0  0  0  0
   21.6763   15.5281    4.8448 H   0  0  0  0  0  0  0  0  0  0  0  0
  1  2  1  0
  2  3  1  0
  3  4  2  0
  4  5  1  0
  5  6  1  0
  6  7  2  0
  6  8  2  0
  6  9  1  0
  9 10  2  0
 10 11  1  0
 11 12  2  0
 12 13  1  0
 13 14  1  0
 14 15  2  0
 14 16  1  0
 16 17  1  0
 17 18  1  0
 18 19  1  0
 19 20  1  0
 20 21  2  0
 20 22  1  0
 22 23  1  0
 23 24  2  0
 13 25  2  0
 25 26  1  0
 26 27  1  0
 27 28  2  0
  5 29  1  0
 29 30  2  0
 30  3  1  0
 28  9  1  0
 27 12  1  0
 23 17  1  0
  1 31  1  0
  1 32  1  0
  1 33  1  0
  2 34  1  0
  2 35  1  0
  4 36  1  0
 10 37  1  0
 11 38  1  0
 16 39  1  0
 17 40  1  6
 18 41  1  0
 18 42  1  0
 19 43  1  0
 19 44  1  0
 22 45  1  0
 25 46  1  0
 26 47  1  0
 28 48  1  0
 29 49  1  0
M  END
>  <meeko>  (668) 
{"is_sidechain": [true], "free_energy": -10.61, "intermolecular_energy": 0.0, "internal_energy": -10.61, "cluster_size": 18, "cluster_id": 1, "rank_in_cluster": 1}

>  <_RMSD_MCS_to_ref>  (668) 
0.8244910551364397

$$$$
ligand
     RDKit          3D

 48 51  0  0  0  0  0  0  0  0999 V2000
   18.9090   19.1540    7.5370 C   0  0  0  0  0  0  0  0  0  0  0  0
   18.7730   17.6460    7.6780 C   0  0  0  0  0  0  0  0  0  0  0  0
   20.0880   16.9540    7.6010 C   0  0  0  0  0  0  0  0  0  0  0  0
   21.0610   16.8310    8.5740 C   0  0  0  0  0  0  0  0  0  0  0  0
   22.0650   16.1390    7.9610 N   0  0  0  0  0  0  0  0  0  0  0  0
   23.4420   15.5210    8.7010 S   0  0  0  0  0  6  0  0  0  0  0  0
   23.6400   14.2080    8.1150 O   0  0  0  0  0  0  0  0  0  0  0  0
   24.4420   16.5690    8.6190 O   0  0  0  0  0  0  0  0  0  0  0  0
   22.9930   15.3050   10.4060 C   0  0  0  0  0  0  0  0  0  0  0  0
   21.7560   14.7600   10.7120 C   0  0  0  0  0  0  0  0  0  0  0  0
   21.4870   14.6790   12.0790 C   0  0  0  0  0  0  0  0  0  0  0  0
   20.3740   14.2030   12.7360 N   0  0  0  0  0  0  0  0  0  0  0  0
   20.5410   14.3230   14.0890 C   0  0  0  0  0  0  0  0  0  0  0  0
   21.7760   14.8830   14.3140 C   0  0  0  0  0  0  0  0  0  0  0  0
   22.3970   15.1180   13.0510 C   0  0  0  0  0  0  0  0  0  0  0  0
   23.6270   15.6500   12.6250 C   0  0  0  0  0  0  0  0  0  0  0  0
   24.6660   16.1590   13.5670 C   0  0  0  0  0  0  0  0  0  0  0  0
   25.2450   15.4380   14.3700 O   0  0  0  0  0  0  0  0  0  0  0  0
   24.9110   17.5130   13.4590 N   0  0  0  0  0  0  0  0  0  0  0  0
   25.8880   18.2010   14.2800 C   0  0  2  0  0  0  0  0  0  0  0  0
   25.6760   17.8860   15.7560 C   0  0  0  0  0  0  0  0  0  0  0  0
   26.7030   18.6340   16.5910 C   0  0  0  0  0  0  0  0  0  0  0  0
   26.6540   20.1190   16.3230 C   0  0  0  0  0  0  0  0  0  0  0  0
   26.9470   20.9510   17.1770 O   0  0  0  0  0  0  0  0  0  0  0  0
   26.3080   20.5050   15.0530 N   0  0  0  0  0  0  0  0  0  0  0  0
   25.7870   19.7140   14.0550 C   0  0  0  0  0  0  0  0  0  0  0  0
   25.3150   20.2220   13.0390 O   0  0  0  0  0  0  0  0  0  0  0  0
   23.9190   15.7380   11.2930 N   0  0  0  0  0  0  0  0  0  0  0  0
   21.6790   15.8270    6.6950 C   0  0  0  0  0  0  0  0  0  0  0  0
   20.4780   16.3060    6.4440 N   0  0  0  0  0  0  0  0  0  0  0  0
   18.9504   19.6134    8.5356 H   0  0  0  0  0  0  0  0  0  0  0  0
   19.8320   19.3891    6.9867 H   0  0  0  0  0  0  0  0  0  0  0  0
   18.0430   19.5504    6.9867 H   0  0  0  0  0  0  0  0  0  0  0  0
   18.3107   17.4213    8.6505 H   0  0  0  0  0  0  0  0  0  0  0  0
   18.1511   17.2835    6.8462 H   0  0  0  0  0  0  0  0  0  0  0  0
   21.0329   17.2057    9.6078 H   0  0  0  0  0  0  0  0  0  0  0  0
   21.0467   14.4202    9.9429 H   0  0  0  0  0  0  0  0  0  0  0  0
   19.5384   13.8138   12.2764 H   0  0  0  0  0  0  0  0  0  0  0  0
   19.8154   14.0242   14.8599 H   0  0  0  0  0  0  0  0  0  0  0  0
   22.2108   15.1108   15.2984 H   0  0  0  0  0  0  0  0  0  0  0  0
   24.3775   18.0574   12.7662 H   0  0  0  0  0  0  0  0  0  0  0  0
   26.8899   17.8525   13.9888 H   0  0  0  0  0  0  0  0  0  0  0  0
   24.6643   18.1976   16.0550 H   0  0  0  0  0  0  0  0  0  0  0  0
   25.7918   16.8042   15.9184 H   0  0  0  0  0  0  0  0  0  0  0  0
   26.4966   18.4555   17.6566 H   0  0  0  0  0  0  0  0  0  0  0  0
   27.7037   18.2660   16.3206 H   0  0  0  0  0  0  0  0  0  0  0  0
   26.4546   21.4977   14.8206 H   0  0  0  0  0  0  0  0  0  0  0  0
   22.2862   15.2535    5.9791 H   0  0  0  0  0  0  0  0  0  0  0  0
  1  2  1  0
  2  3  1  0
  3  4  2  0
  4  5  1  0
  5  6  1  0
  6  7  2  0
  6  8  2  0
  6  9  1  0
  9 10  2  0
 10 11  1  0
 11 12  1  0
 12 13  1  0
 13 14  2  0
 14 15  1  0
 15 16  1  0
 16 17  1  0
 17 18  2  0
 17 19  1  0
 19 20  1  0
 20 21  1  0
 21 22  1  0
 22 23  1  0
 23 24  2  0
 23 25  1  0
 25 26  1  0
 26 27  2  0
 16 28  2  0
  5 29  1  0
 29 30  2  0
 30  3  1  0
 28  9  1  0
 15 11  2  0
 26 20  1  0
  1 31  1  0
  1 32  1  0
  1 33  1  0
  2 34  1  0
  2 35  1  0
  4 36  1  0
 10 37  1  0
 12 38  1  0
 13 39  1  0
 14 40  1  0
 19 41  1  0
 20 42  1  6
 21 43  1  0
 21 44  1  0
 22 45  1  0
 22 46  1  0
 25 47  1  0
 29 48  1  0
M  END
>  <meeko>  (669) 
{"is_sidechain": [true], "free_energy": -10.61, "intermolecular_energy": 0.0, "internal_energy": -10.61, "cluster_size": 20, "cluster_id": 1, "rank_in_cluster": 1}

>  <_RMSD_MCS_to_ref>  (669) 
0.6062443585075433

$$$$
ligand
     RDKit          3D

 51 54  0  0  0  0  0  0  0  0999 V2000
   18.9090   19.1540    7.5370 C   0  0  0  0  0  0  0  0  0  0  0  0
   18.7730   17.6460    7.6780 C   0  0  0  0  0  0  0  0  0  0  0  0
   20.0190   16.9300    7.2890 C   0  0  0  0  0  0  0  0  0  0  0  0
   21.0920   16.5630    8.0770 C   0  0  0  0  0  0  0  0  0  0  0  0
   21.9330   15.9170    7.2160 N   0  0  0  0  0  0  0  0  0  0  0  0
   23.4980   15.4140    7.5610 S   0  0  0  0  0  6  0  0  0  0  0  0
   24.3740   16.4020    6.9640 O   0  0  0  0  0  0  0  0  0  0  0  0
   23.5490   14.0100    7.1980 O   0  0  0  0  0  0  0  0  0  0  0  0
   23.6000   15.5500    9.3240 C   0  0  0  0  0  0  0  0  0  0  0  0
   24.4900   16.4520    9.8960 C   0  0  0  0  0  0  0  0  0  0  0  0
   24.5630   16.5490   11.2870 C   0  0  0  0  0  0  0  0  0  0  0  0
   23.7580   15.7500   12.1370 C   0  0  0  0  0  0  0  0  0  0  0  0
   23.7900   15.7990   13.5580 C   0  0  0  0  0  0  0  0  0  0  0  0
   24.6740   16.7500   14.2870 C   0  0  0  0  0  0  0  0  0  0  0  0
   25.8820   16.5660   14.3680 O   0  0  0  0  0  0  0  0  0  0  0  0
   24.0320   17.8250   14.8620 N   0  0  0  0  0  0  0  0  0  0  0  0
   24.7420   18.7490   15.7360 C   0  0  1  0  0  0  0  0  0  0  0  0
   25.7580   18.0390   16.6230 C   0  0  0  0  0  0  0  0  0  0  0  0
   26.4870   19.0640   17.4800 C   0  0  0  0  0  0  0  0  0  0  0  0
   27.1310   20.1310   16.6270 C   0  0  0  0  0  0  0  0  0  0  0  0
   28.1950   20.6650   16.9300 O   0  0  0  0  0  0  0  0  0  0  0  0
   26.4520   20.5070   15.4950 N   0  0  0  0  0  0  0  0  0  0  0  0
   25.4710   19.7790   14.8690 C   0  0  0  0  0  0  0  0  0  0  0  0
   25.1990   19.9660   13.6830 O   0  0  0  0  0  0  0  0  0  0  0  0
   22.9700   14.9600   14.3310 C   0  0  0  0  0  0  0  0  0  0  0  0
   22.1150   14.0570   13.7120 C   0  0  0  0  0  0  0  0  0  0  0  0
   22.0710   13.9900   12.3220 C   0  0  0  0  0  0  0  0  0  0  0  0
   22.8750   14.8220   11.5270 C   0  0  0  0  0  0  0  0  0  0  0  0
   22.8050   14.7300   10.1280 C   0  0  0  0  0  0  0  0  0  0  0  0
   21.4020   15.9490    5.9660 C   0  0  0  0  0  0  0  0  0  0  0  0
   20.2290   16.5470    5.9780 N   0  0  0  0  0  0  0  0  0  0  0  0
   18.9504   19.6134    8.5356 H   0  0  0  0  0  0  0  0  0  0  0  0
   19.8320   19.3891    6.9867 H   0  0  0  0  0  0  0  0  0  0  0  0
   18.0430   19.5504    6.9867 H   0  0  0  0  0  0  0  0  0  0  0  0
   18.5402   17.4078    8.7264 H   0  0  0  0  0  0  0  0  0  0  0  0
   17.9690   17.3150    7.0041 H   0  0  0  0  0  0  0  0  0  0  0  0
   21.2364   16.7484    9.1516 H   0  0  0  0  0  0  0  0  0  0  0  0
   25.1293   17.0820    9.2601 H   0  0  0  0  0  0  0  0  0  0  0  0
   25.2656   17.2663   11.7362 H   0  0  0  0  0  0  0  0  0  0  0  0
   23.0316   17.9781   14.6703 H   0  0  0  0  0  0  0  0  0  0  0  0
   24.0038   19.2305   16.3942 H   0  0  0  0  0  0  0  0  0  0  0  0
   25.2380   17.3204   17.2736 H   0  0  0  0  0  0  0  0  0  0  0  0
   26.4844   17.5044   15.9932 H   0  0  0  0  0  0  0  0  0  0  0  0
   25.7668   19.5374   18.1635 H   0  0  0  0  0  0  0  0  0  0  0  0
   27.2763   18.5468   18.0453 H   0  0  0  0  0  0  0  0  0  0  0  0
   26.7005   21.4156   15.0785 H   0  0  0  0  0  0  0  0  0  0  0  0
   23.0051   15.0183   15.4289 H   0  0  0  0  0  0  0  0  0  0  0  0
   21.4755   13.3978   14.3173 H   0  0  0  0  0  0  0  0  0  0  0  0
   21.3934   13.2715   11.8376 H   0  0  0  0  0  0  0  0  0  0  0  0
   22.1193   14.0072    9.6617 H   0  0  0  0  0  0  0  0  0  0  0  0
   21.8846   15.5334    5.0691 H   0  0  0  0  0  0  0  0  0  0  0  0
  1  2  1  0
  2  3  1  0
  3  4  2  0
  4  5  1  0
  5  6  1  0
  6  7  2  0
  6  8  2  0
  6  9  1  0
  9 10  2  0
 10 11  1  0
 11 12  2  0
 12 13  1  0
 13 14  1  0
 14 15  2  0
 14 16  1  0
 16 17  1  0
 17 18  1  0
 18 19  1  0
 19 20  1  0
 20 21  2  0
 20 22  1  0
 22 23  1  0
 23 24  2  0
 13 25  2  0
 25 26  1  0
 26 27  2  0
 27 28  1  0
 28 29  2  0
  5 30  1  0
 30 31  2  0
 31  3  1  0
 29  9  1  0
 28 12  1  0
 23 17  1  0
  1 32  1  0
  1 33  1  0
  1 34  1  0
  2 35  1  0
  2 36  1  0
  4 37  1  0
 10 38  1  0
 11 39  1  0
 16 40  1  0
 17 41  1  1
 18 42  1  0
 18 43  1  0
 19 44  1  0
 19 45  1  0
 22 46  1  0
 25 47  1  0
 26 48  1  0
 27 49  1  0
 29 50  1  0
 30 51  1  0
M  END
>  <meeko>  (670) 
{"is_sidechain": [true], "free_energy": -10.61, "intermolecular_energy": 0.0, "internal_energy": -10.61, "cluster_size": 20, "cluster_id": 1, "rank_in_cluster": 1}

>  <_RMSD_MCS_to_ref>  (670) 
0.9002646524464042

$$$$
ligand
     RDKit          3D

 48 51  0  0  0  0  0  0  0  0999 V2000
   18.9090   19.1540    7.5370 C   0  0  0  0  0  0  0  0  0  0  0  0
   18.7730   17.6460    7.6780 C   0  0  0  0  0  0  0  0  0  0  0  0
   20.0670   16.9430    7.4640 C   0  0  0  0  0  0  0  0  0  0  0  0
   21.1440   16.8290    8.3210 C   0  0  0  0  0  0  0  0  0  0  0  0
   22.0550   16.0930    7.6170 N   0  0  0  0  0  0  0  0  0  0  0  0
   23.5130   15.4980    8.2020 S   0  0  0  0  0  6  0  0  0  0  0  0
   24.5250   16.4360    7.7530 O   0  0  0  0  0  0  0  0  0  0  0  0
   23.5350   14.0920    7.8480 O   0  0  0  0  0  0  0  0  0  0  0  0
   23.4010   15.6170    9.9700 C   0  0  0  0  0  0  0  0  0  0  0  0
   24.3490   16.3620   10.6660 C   0  0  0  0  0  0  0  0  0  0  0  0
   24.2490   16.4370   12.0640 C   0  0  0  0  0  0  0  0  0  0  0  0
   25.3020   17.2070   12.7740 C   0  0  0  0  0  0  0  0  0  0  0  0
   26.3360   17.4830   12.1740 O   0  0  0  0  0  0  0  0  0  0  0  0
   25.0770   17.6090   14.0630 N   0  0  0  0  0  0  0  0  0  0  0  0
   26.0590   18.3760   14.8140 C   0  0  2  0  0  0  0  0  0  0  0  0
   25.9610   18.0850   16.3080 C   0  0  0  0  0  0  0  0  0  0  0  0
   26.9910   18.9160   17.0570 C   0  0  0  0  0  0  0  0  0  0  0  0
   26.8260   20.3880   16.7650 C   0  0  0  0  0  0  0  0  0  0  0  0
   27.0870   21.2570   17.5920 O   0  0  0  0  0  0  0  0  0  0  0  0
   26.4020   20.7190   15.5030 N   0  0  0  0  0  0  0  0  0  0  0  0
   25.8480   19.8750   14.5700 C   0  0  0  0  0  0  0  0  0  0  0  0
   25.2540   20.3270   13.5910 O   0  0  0  0  0  0  0  0  0  0  0  0
   23.1970   15.7560   12.6460 C   0  0  0  0  0  0  0  0  0  0  0  0
   22.7830   15.4830   14.0220 C   0  0  0  0  0  0  0  0  0  0  0  0
   23.2500   15.9900   15.0210 O   0  0  0  0  0  0  0  0  0  0  0  0
   21.7450   14.5670   13.9590 N   0  0  0  0  0  0  0  0  0  0  0  0
   21.2580   14.4660   12.6440 N   0  0  0  0  0  0  0  0  0  0  0  0
   22.2840   15.0570   11.8630 C   0  0  0  0  0  0  0  0  0  0  0  0
   22.3620   14.9490   10.5310 N   0  0  0  0  0  0  0  0  0  0  0  0
   21.5230   15.7590    6.4130 C   0  0  0  0  0  0  0  0  0  0  0  0
   20.3150   16.2710    6.2840 N   0  0  0  0  0  0  0  0  0  0  0  0
   18.9504   19.6134    8.5356 H   0  0  0  0  0  0  0  0  0  0  0  0
   19.8320   19.3891    6.9867 H   0  0  0  0  0  0  0  0  0  0  0  0
   18.0430   19.5504    6.9867 H   0  0  0  0  0  0  0  0  0  0  0  0
   18.4080   17.4162    8.6899 H   0  0  0  0  0  0  0  0  0  0  0  0
   18.0677   17.2970    6.9094 H   0  0  0  0  0  0  0  0  0  0  0  0
   21.2453   17.2372    9.3374 H   0  0  0  0  0  0  0  0  0  0  0  0
   25.1588   16.8806   10.1319 H   0  0  0  0  0  0  0  0  0  0  0  0
   24.1853   17.3609   14.5150 H   0  0  0  0  0  0  0  0  0  0  0  0
   27.0598   18.0797   14.4668 H   0  0  0  0  0  0  0  0  0  0  0  0
   24.9530   18.3416   16.6658 H   0  0  0  0  0  0  0  0  0  0  0  0
   26.1534   17.0167   16.4860 H   0  0  0  0  0  0  0  0  0  0  0  0
   26.8689   18.7492   18.1374 H   0  0  0  0  0  0  0  0  0  0  0  0
   27.9935   18.6068   16.7262 H   0  0  0  0  0  0  0  0  0  0  0  0
   26.5103   21.7048   15.2249 H   0  0  0  0  0  0  0  0  0  0  0  0
   21.3814   14.0350   14.7626 H   0  0  0  0  0  0  0  0  0  0  0  0
   20.3675   14.0594   12.3237 H   0  0  0  0  0  0  0  0  0  0  0  0
   22.0291   15.1469    5.6519 H   0  0  0  0  0  0  0  0  0  0  0  0
  1  2  1  0
  2  3  1  0
  3  4  2  0
  4  5  1  0
  5  6  1  0
  6  7  2  0
  6  8  2  0
  6  9  1  0
  9 10  2  0
 10 11  1  0
 11 12  1  0
 12 13  2  0
 12 14  1  0
 14 15  1  0
 15 16  1  0
 16 17  1  0
 17 18  1  0
 18 19  2  0
 18 20  1  0
 20 21  1  0
 21 22  2  0
 11 23  2  0
 23 24  1  0
 24 25  2  0
 24 26  1  0
 26 27  1  0
 27 28  1  0
 28 29  2  0
  5 30  1  0
 30 31  2  0
 31  3  1  0
 29  9  1  0
 21 15  1  0
 28 23  1  0
  1 32  1  0
  1 33  1  0
  1 34  1  0
  2 35  1  0
  2 36  1  0
  4 37  1  0
 10 38  1  0
 14 39  1  0
 15 40  1  6
 16 41  1  0
 16 42  1  0
 17 43  1  0
 17 44  1  0
 20 45  1  0
 26 46  1  0
 27 47  1  0
 30 48  1  0
M  END
>  <meeko>  (671) 
{"is_sidechain": [true], "free_energy": -10.61, "intermolecular_energy": 0.0, "internal_energy": -10.61, "cluster_size": 19, "cluster_id": 1, "rank_in_cluster": 1}

>  <_RMSD_MCS_to_ref>  (671) 
0.7713589019098415

$$$$
ligand
     RDKit          3D

 51 55  0  0  0  0  0  0  0  0999 V2000
   18.9090   19.1540    7.5370 C   0  0  0  0  0  0  0  0  0  0  0  0
   18.7730   17.6460    7.6780 C   0  0  0  0  0  0  0  0  0  0  0  0
   20.0820   16.9490    7.5530 C   0  0  0  0  0  0  0  0  0  0  0  0
   20.6550   16.0190    8.3990 C   0  0  0  0  0  0  0  0  0  0  0  0
   21.8360   15.7000    7.7930 N   0  0  0  0  0  0  0  0  0  0  0  0
   23.0360   14.7130    8.4240 S   0  0  0  0  0  6  0  0  0  0  0  0
   23.9580   14.4640    7.3310 O   0  0  0  0  0  0  0  0  0  0  0  0
   22.3480   13.6480    9.1280 O   0  0  0  0  0  0  0  0  0  0  0  0
   23.9340   15.6100    9.6340 C   0  0  0  0  0  0  0  0  0  0  0  0
   25.0580   16.2500    9.3250 N   0  0  0  0  0  0  0  0  0  0  0  0
   25.4910   16.8310   10.4750 C   0  0  0  0  0  0  0  0  0  0  0  0
   24.6390   16.5450   11.5120 C   0  0  0  0  0  0  0  0  0  0  0  0
   24.6710   16.9220   12.9000 C   0  0  0  0  0  0  0  0  0  0  0  0
   25.7070   17.6790   13.4190 N   0  0  0  0  0  0  0  0  0  0  0  0
   25.5550   18.4820   14.6390 C   0  0  1  0  0  0  0  0  0  0  0  0
   26.3370   17.8860   15.8080 C   0  0  0  0  0  0  0  0  0  0  0  0
   26.2310   18.8020   17.0160 C   0  0  0  0  0  0  0  0  0  0  0  0
   26.7160   20.1950   16.6940 C   0  0  0  0  0  0  0  0  0  0  0  0
   27.1410   20.9560   17.5580 O   0  0  0  0  0  0  0  0  0  0  0  0
   26.5640   20.6130   15.3970 N   0  0  0  0  0  0  0  0  0  0  0  0
   25.9070   19.9550   14.3850 C   0  0  0  0  0  0  0  0  0  0  0  0
   25.5560   20.5530   13.3680 O   0  0  0  0  0  0  0  0  0  0  0  0
   23.6960   16.5330   13.6690 N   0  0  0  0  0  0  0  0  0  0  0  0
   22.6480   15.7470   13.1550 C   0  0  0  0  0  0  0  0  0  0  0  0
   21.6460   15.3690   14.0550 C   0  0  0  0  0  0  0  0  0  0  0  0
   20.5720   14.5880   13.6380 C   0  0  0  0  0  0  0  0  0  0  0  0
   20.4960   14.1790   12.3100 C   0  0  0  0  0  0  0  0  0  0  0  0
   21.4880   14.5480   11.3950 C   0  0  0  0  0  0  0  0  0  0  0  0
   22.5660   15.3310   11.8100 C   0  0  0  0  0  0  0  0  0  0  0  0
   23.6240   15.7690   10.9750 N   0  0  0  0  0  0  0  0  0  0  0  0
   21.9820   16.4570    6.6760 C   0  0  0  0  0  0  0  0  0  0  0  0
   20.9180   17.2080    6.4850 N   0  0  0  0  0  0  0  0  0  0  0  0
   18.9504   19.6134    8.5356 H   0  0  0  0  0  0  0  0  0  0  0  0
   19.8320   19.3891    6.9867 H   0  0  0  0  0  0  0  0  0  0  0  0
   18.0430   19.5504    6.9867 H   0  0  0  0  0  0  0  0  0  0  0  0
   18.3442   17.4198    8.6654 H   0  0  0  0  0  0  0  0  0  0  0  0
   18.1215   17.2886    6.8670 H   0  0  0  0  0  0  0  0  0  0  0  0
   20.2521   15.6258    9.3440 H   0  0  0  0  0  0  0  0  0  0  0  0
   26.3991   17.4456   10.5623 H   0  0  0  0  0  0  0  0  0  0  0  0
   26.6152   17.6791   12.9331 H   0  0  0  0  0  0  0  0  0  0  0  0
   24.4943   18.4541   14.9290 H   0  0  0  0  0  0  0  0  0  0  0  0
   25.9219   16.8990   16.0601 H   0  0  0  0  0  0  0  0  0  0  0  0
   27.3941   17.7806   15.5228 H   0  0  0  0  0  0  0  0  0  0  0  0
   25.1795   18.8537   17.3350 H   0  0  0  0  0  0  0  0  0  0  0  0
   26.8621   18.3921   17.8183 H   0  0  0  0  0  0  0  0  0  0  0  0
   26.9888   21.5195   15.1546 H   0  0  0  0  0  0  0  0  0  0  0  0
   21.7076   15.6928   15.1045 H   0  0  0  0  0  0  0  0  0  0  0  0
   19.7888   14.2961   14.3531 H   0  0  0  0  0  0  0  0  0  0  0  0
   19.6493   13.5607   11.9771 H   0  0  0  0  0  0  0  0  0  0  0  0
   21.4181   14.2205   10.3472 H   0  0  0  0  0  0  0  0  0  0  0  0
   22.8661   16.4447    6.0216 H   0  0  0  0  0  0  0  0  0  0  0  0
  1  2  1  0
  2  3  1  0
  3  4  2  0
  4  5  1  0
  5  6  1  0
  6  7  2  0
  6  8  2  0
  6  9  1  0
  9 10  2  0
 10 11  1  0
 11 12  2  0
 12 13  1  0
 13 14  1  0
 14 15  1  0
 15 16  1  0
 16 17  1  0
 17 18  1  0
 18 19  2  0
 18 20  1  0
 20 21  1  0
 21 22  2  0
 13 23  2  0
 23 24  1  0
 24 25  2  0
 25 26  1  0
 26 27  2  0
 27 28  1  0
 28 29  2  0
 29 30  1  0
  5 31  1  0
 31 32  2  0
 32  3  1  0
 30  9  1  0
 30 12  1  0
 21 15  1  0
 29 24  1  0
  1 33  1  0
  1 34  1  0
  1 35  1  0
  2 36  1  0
  2 37  1  0
  4 38  1  0
 11 39  1  0
 14 40  1  0
 15 41  1  1
 16 42  1  0
 16 43  1  0
 17 44  1  0
 17 45  1  0
 20 46  1  0
 25 47  1  0
 26 48  1  0
 27 49  1  0
 28 50  1  0
 31 51  1  0
M  END
>  <meeko>  (672) 
{"is_sidechain": [true], "free_energy": -10.61, "intermolecular_energy": 0.0, "internal_energy": -10.61, "cluster_size": 16, "cluster_id": 1, "rank_in_cluster": 1}

>  <_RMSD_MCS_to_ref>  (672) 
0.6848605697512449

$$$$
ligand
     RDKit          3D

 52 56  0  0  0  0  0  0  0  0999 V2000
   18.9090   19.1540    7.5370 C   0  0  0  0  0  0  0  0  0  0  0  0
   18.7730   17.6460    7.6780 C   0  0  0  0  0  0  0  0  0  0  0  0
   20.0940   16.9740    7.8090 C   0  0  0  0  0  0  0  0  0  0  0  0
   20.8810   16.8190    8.9350 C   0  0  0  0  0  0  0  0  0  0  0  0
   21.9920   16.1700    8.4760 N   0  0  0  0  0  0  0  0  0  0  0  0
   23.2090   15.5220    9.4330 S   0  0  0  0  0  6  0  0  0  0  0  0
   24.2890   16.4870    9.4880 O   0  0  0  0  0  0  0  0  0  0  0  0
   23.4290   14.1990    8.8770 O   0  0  0  0  0  0  0  0  0  0  0  0
   22.5450   15.3430   11.0720 C   0  0  0  0  0  0  0  0  0  0  0  0
   21.4460   14.4930   11.3310 C   0  0  0  0  0  0  0  0  0  0  0  0
   20.8570   13.6310   10.3160 C   0  0  0  0  0  0  0  0  0  0  0  0
   19.6070   13.6460    9.9060 N   0  0  0  0  0  0  0  0  0  0  0  0
   19.5760   12.6860    8.9340 C   0  0  0  0  0  0  0  0  0  0  0  0
   20.7370   12.0680    8.7140 N   0  0  0  0  0  0  0  0  0  0  0  0
   21.5330   12.6670    9.6140 N   0  0  0  0  0  0  0  0  0  0  0  0
   20.9120   14.4200   12.6430 C   0  0  0  0  0  0  0  0  0  0  0  0
   21.4420   15.1790   13.6870 C   0  0  0  0  0  0  0  0  0  0  0  0
   22.5020   16.0090   13.3920 C   0  0  0  0  0  0  0  0  0  0  0  0
   23.0590   16.1140   12.1150 C   0  0  0  0  0  0  0  0  0  0  0  0
   24.1870   17.0990   12.1550 C   0  0  0  0  0  0  0  0  0  0  0  0
   24.1780   17.5560   13.5380 N   0  0  0  0  0  0  0  0  0  0  0  0
   25.2890   18.2830   14.1440 C   0  0  2  0  0  0  0  0  0  0  0  0
   25.5050   17.9150   15.6070 C   0  0  0  0  0  0  0  0  0  0  0  0
   26.7240   18.6540   16.1380 C   0  0  0  0  0  0  0  0  0  0  0  0
   26.5880   20.1460   15.9430 C   0  0  0  0  0  0  0  0  0  0  0  0
   27.0430   20.9580   16.7450 O   0  0  0  0  0  0  0  0  0  0  0  0
   25.9490   20.5620   14.8040 N   0  0  0  0  0  0  0  0  0  0  0  0
   25.0960   19.8060   14.0330 C   0  0  0  0  0  0  0  0  0  0  0  0
   24.2500   20.3460   13.3230 O   0  0  0  0  0  0  0  0  0  0  0  0
   23.2420   16.8850   14.3040 C   0  0  0  0  0  0  0  0  0  0  0  0
   23.0470   16.9660   15.5000 O   0  0  0  0  0  0  0  0  0  0  0  0
   21.8200   15.8680    7.1630 C   0  0  0  0  0  0  0  0  0  0  0  0
   20.6870   16.3710    6.7170 N   0  0  0  0  0  0  0  0  0  0  0  0
   18.9504   19.6134    8.5356 H   0  0  0  0  0  0  0  0  0  0  0  0
   19.8320   19.3891    6.9867 H   0  0  0  0  0  0  0  0  0  0  0  0
   18.0430   19.5504    6.9867 H   0  0  0  0  0  0  0  0  0  0  0  0
   18.1731   17.4263    8.5735 H   0  0  0  0  0  0  0  0  0  0  0  0
   18.2875   17.2635    6.7681 H   0  0  0  0  0  0  0  0  0  0  0  0
   20.6629   17.1434    9.9632 H   0  0  0  0  0  0  0  0  0  0  0  0
   18.6611   12.4411    8.3745 H   0  0  0  0  0  0  0  0  0  0  0  0
   22.5254   12.4321    9.7586 H   0  0  0  0  0  0  0  0  0  0  0  0
   20.0619   13.7508   12.8417 H   0  0  0  0  0  0  0  0  0  0  0  0
   21.0301   15.1174   14.7051 H   0  0  0  0  0  0  0  0  0  0  0  0
   25.1428   16.6151   11.9053 H   0  0  0  0  0  0  0  0  0  0  0  0
   24.0724   17.9171   11.4287 H   0  0  0  0  0  0  0  0  0  0  0  0
   26.1826   17.9832   13.5769 H   0  0  0  0  0  0  0  0  0  0  0  0
   24.6186   18.2008   16.1923 H   0  0  0  0  0  0  0  0  0  0  0  0
   25.6657   16.8303   15.6937 H   0  0  0  0  0  0  0  0  0  0  0  0
   26.8327   18.4412   17.2117 H   0  0  0  0  0  0  0  0  0  0  0  0
   27.6086   18.3099   15.5821 H   0  0  0  0  0  0  0  0  0  0  0  0
   26.1233   21.5296   14.4969 H   0  0  0  0  0  0  0  0  0  0  0  0
   22.5282   15.2846    6.5564 H   0  0  0  0  0  0  0  0  0  0  0  0
  1  2  1  0
  2  3  1  0
  3  4  2  0
  4  5  1  0
  5  6  1  0
  6  7  2  0
  6  8  2  0
  6  9  1  0
  9 10  1  0
 10 11  1  0
 11 12  2  0
 12 13  1  0
 13 14  2  0
 14 15  1  0
 10 16  2  0
 16 17  1  0
 17 18  2  0
 18 19  1  0
 19 20  1  0
 20 21  1  0
 21 22  1  0
 22 23  1  0
 23 24  1  0
 24 25  1  0
 25 26  2  0
 25 27  1  0
 27 28  1  0
 28 29  2  0
 21 30  1  0
 30 31  2  0
  5 32  1  0
 32 33  2  0
 33  3  1  0
 19  9  2  0
 28 22  1  0
 15 11  1  0
 30 18  1  0
  1 34  1  0
  1 35  1  0
  1 36  1  0
  2 37  1  0
  2 38  1  0
  4 39  1  0
 13 40  1  0
 15 41  1  0
 16 42  1  0
 17 43  1  0
 20 44  1  0
 20 45  1  0
 22 46  1  6
 23 47  1  0
 23 48  1  0
 24 49  1  0
 24 50  1  0
 27 51  1  0
 32 52  1  0
M  END
>  <meeko>  (673) 
{"is_sidechain": [true], "free_energy": -10.61, "intermolecular_energy": 0.0, "internal_energy": -10.61, "cluster_size": 20, "cluster_id": 1, "rank_in_cluster": 1}

>  <_RMSD_MCS_to_ref>  (673) 
1.9694089778972323

$$$$
ligand
     RDKit          3D

 50 53  0  0  0  0  0  0  0  0999 V2000
   18.9090   19.1540    7.5370 C   0  0  0  0  0  0  0  0  0  0  0  0
   18.7730   17.6460    7.6780 C   0  0  0  0  0  0  0  0  0  0  0  0
   20.0890   16.9550    7.6060 C   0  0  0  0  0  0  0  0  0  0  0  0
   21.0600   16.8320    8.5790 C   0  0  0  0  0  0  0  0  0  0  0  0
   22.0530   16.1120    7.9780 N   0  0  0  0  0  0  0  0  0  0  0  0
   23.3610   15.4070    8.7710 S   0  0  0  0  0  6  0  0  0  0  0  0
   24.3790   16.4380    8.8290 O   0  0  0  0  0  0  0  0  0  0  0  0
   23.5850   14.1450    8.1080 O   0  0  0  0  0  0  0  0  0  0  0  0
   22.7650   15.1690   10.4160 C   0  0  0  0  0  0  0  0  0  0  0  0
   23.4200   15.8370   11.4660 C   0  0  0  0  0  0  0  0  0  0  0  0
   22.9620   15.7130   12.7930 C   0  0  0  0  0  0  0  0  0  0  0  0
   23.6250   16.4240   13.9230 C   0  0  0  0  0  0  0  0  0  0  0  0
   23.7920   15.8530   14.9940 O   0  0  0  0  0  0  0  0  0  0  0  0
   23.9860   17.7330   13.7020 N   0  0  0  0  0  0  0  0  0  0  0  0
   24.4980   18.5670   14.7830 C   0  0  1  0  0  0  0  0  0  0  0  0
   25.5850   17.8700   15.5920 C   0  0  0  0  0  0  0  0  0  0  0  0
   26.1050   18.8180   16.6630 C   0  0  0  0  0  0  0  0  0  0  0  0
   26.5930   20.1140   16.0590 C   0  0  0  0  0  0  0  0  0  0  0  0
   27.5380   20.7430   16.5240 O   0  0  0  0  0  0  0  0  0  0  0  0
   25.9050   20.5820   14.9680 N   0  0  0  0  0  0  0  0  0  0  0  0
   25.0780   19.8410   14.1620 C   0  0  0  0  0  0  0  0  0  0  0  0
   24.8190   20.1930   13.0110 O   0  0  0  0  0  0  0  0  0  0  0  0
   21.8620   14.8920   13.0840 C   0  0  0  0  0  0  0  0  0  0  0  0
   21.2300   14.2200   12.0480 C   0  0  0  0  0  0  0  0  0  0  0  0
   21.6960   14.3550   10.7370 C   0  0  0  0  0  0  0  0  0  0  0  0
   20.6900   13.3950    9.6780 S   0  0  0  0  0  6  0  0  0  0  0  0
   21.4710   12.2730    9.2090 O   0  0  0  0  0  0  0  0  0  0  0  0
   19.9670   14.3140    8.8280 O   0  0  0  0  0  0  0  0  0  0  0  0
   19.6640   12.8680   10.9790 C   0  0  0  0  0  0  0  0  0  0  0  0
   20.0590   13.3570   12.1640 C   0  0  0  0  0  0  0  0  0  0  0  0
   21.6710   15.8010    6.7120 C   0  0  0  0  0  0  0  0  0  0  0  0
   20.4790   16.3000    6.4550 N   0  0  0  0  0  0  0  0  0  0  0  0
   18.9504   19.6134    8.5356 H   0  0  0  0  0  0  0  0  0  0  0  0
   19.8320   19.3891    6.9867 H   0  0  0  0  0  0  0  0  0  0  0  0
   18.0430   19.5504    6.9867 H   0  0  0  0  0  0  0  0  0  0  0  0
   18.3073   17.4213    8.6489 H   0  0  0  0  0  0  0  0  0  0  0  0
   18.1542   17.2828    6.8443 H   0  0  0  0  0  0  0  0  0  0  0  0
   21.0390   17.2249    9.6062 H   0  0  0  0  0  0  0  0  0  0  0  0
   24.2985   16.4625   11.2494 H   0  0  0  0  0  0  0  0  0  0  0  0
   23.8930   18.1309   12.7565 H   0  0  0  0  0  0  0  0  0  0  0  0
   23.6693   18.7878   15.4718 H   0  0  0  0  0  0  0  0  0  0  0  0
   25.1678   16.9709   16.0690 H   0  0  0  0  0  0  0  0  0  0  0  0
   26.4107   17.5809   14.9252 H   0  0  0  0  0  0  0  0  0  0  0  0
   25.2935   19.0366   17.3727 H   0  0  0  0  0  0  0  0  0  0  0  0
   26.9497   18.3338   17.1748 H   0  0  0  0  0  0  0  0  0  0  0  0
   26.0195   21.5783   14.7331 H   0  0  0  0  0  0  0  0  0  0  0  0
   21.5058   14.7828   14.1190 H   0  0  0  0  0  0  0  0  0  0  0  0
   18.7925   12.2102   10.8459 H   0  0  0  0  0  0  0  0  0  0  0  0
   19.5565   13.1326   13.1165 H   0  0  0  0  0  0  0  0  0  0  0  0
   22.2723   15.2150    6.0014 H   0  0  0  0  0  0  0  0  0  0  0  0
  1  2  1  0
  2  3  1  0
  3  4  2  0
  4  5  1  0
  5  6  1  0
  6  7  2  0
  6  8  2  0
  6  9  1  0
  9 10  2  0
 10 11  1  0
 11 12  1  0
 12 13  2  0
 12 14  1  0
 14 15  1  0
 15 16  1  0
 16 17  1  0
 17 18  1  0
 18 19  2  0
 18 20  1  0
 20 21  1  0
 21 22  2  0
 11 23  2  0
 23 24  1  0
 24 25  2  0
 25 26  1  0
 26 27  2  0
 26 28  2  0
 26 29  1  0
 29 30  2  0
  5 31  1  0
 31 32  2  0
 32  3  1  0
 25  9  1  0
 21 15  1  0
 30 24  1  0
  1 33  1  0
  1 34  1  0
  1 35  1  0
  2 36  1  0
  2 37  1  0
  4 38  1  0
 10 39  1  0
 14 40  1  0
 15 41  1  1
 16 42  1  0
 16 43  1  0
 17 44  1  0
 17 45  1  0
 20 46  1  0
 23 47  1  0
 29 48  1  0
 30 49  1  0
 31 50  1  0
M  END
>  <meeko>  (674) 
{"is_sidechain": [true], "free_energy": -10.61, "intermolecular_energy": 0.0, "internal_energy": -10.61, "cluster_size": 20, "cluster_id": 1, "rank_in_cluster": 1}

>  <_RMSD_MCS_to_ref>  (674) 
0.4659085508742866

$$$$
ligand
     RDKit          3D

 52 56  0  0  0  0  0  0  0  0999 V2000
   18.7970   18.8160    7.7190 C   0  0  0  0  0  0  0  0  0  0  0  0
   18.5280   17.3300    7.8810 C   0  0  0  0  0  0  0  0  0  0  0  0
   19.7120   16.5010    7.5230 C   0  0  0  0  0  0  0  0  0  0  0  0
   20.9880   16.5420    8.0480 C   0  0  0  0  0  0  0  0  0  0  0  0
   21.6590   15.5630    7.3750 N   0  0  0  0  0  0  0  0  0  0  0  0
   23.2050   15.0070    7.6980 S   0  0  0  0  0  6  0  0  0  0  0  0
   23.7750   14.6770    6.4070 O   0  0  0  0  0  0  0  0  0  0  0  0
   23.8130   15.9480    8.6160 O   0  0  0  0  0  0  0  0  0  0  0  0
   23.1650   13.5230    8.5550 C   0  0  0  0  0  0  0  0  0  0  0  0
   23.0380   12.2680    7.9000 C   0  0  0  0  0  0  0  0  0  0  0  0
   23.0060   11.1900    8.6790 N   0  0  0  0  0  0  0  0  0  0  0  0
   23.1640   11.6750   10.2570 S   0  0  0  0  0  0  0  0  0  0  0  0
   23.2580   13.3560    9.9230 C   0  0  0  0  0  0  0  0  0  0  0  0
   23.4110   14.3110   11.0100 C   0  0  0  0  0  0  0  0  0  0  0  0
   22.2790   14.7110   11.7560 C   0  0  0  0  0  0  0  0  0  0  0  0
   22.4130   15.5610   12.8580 C   0  0  0  0  0  0  0  0  0  0  0  0
   23.6880   15.9780   13.1860 C   0  0  0  0  0  0  0  0  0  0  0  0
   24.8130   15.6060   12.4570 C   0  0  0  0  0  0  0  0  0  0  0  0
   24.6920   14.7780   11.3550 C   0  0  0  0  0  0  0  0  0  0  0  0
   26.0350   16.2120   13.0610 C   0  0  0  0  0  0  0  0  0  0  0  0
   25.5130   16.8520   14.2610 N   0  0  0  0  0  0  0  0  0  0  0  0
   26.3420   17.7460   15.0620 C   0  0  2  0  0  0  0  0  0  0  0  0
   25.9670   17.7690   16.5430 C   0  0  0  0  0  0  0  0  0  0  0  0
   26.9270   18.6810   17.2910 C   0  0  0  0  0  0  0  0  0  0  0  0
   26.9270   20.0730   16.7050 C   0  0  0  0  0  0  0  0  0  0  0  0
   27.2670   21.0570   17.3550 O   0  0  0  0  0  0  0  0  0  0  0  0
   26.6090   20.1820   15.3740 N   0  0  0  0  0  0  0  0  0  0  0  0
   26.3410   19.1690   14.4830 C   0  0  0  0  0  0  0  0  0  0  0  0
   26.2160   19.4120   13.2830 O   0  0  0  0  0  0  0  0  0  0  0  0
   24.1270   16.8180   14.3060 C   0  0  0  0  0  0  0  0  0  0  0  0
   23.3800   17.3630   15.0930 O   0  0  0  0  0  0  0  0  0  0  0  0
   20.8210   14.9810    6.4790 C   0  0  0  0  0  0  0  0  0  0  0  0
   19.6190   15.5140    6.5580 N   0  0  0  0  0  0  0  0  0  0  0  0
   18.8816   19.2836    8.7111 H   0  0  0  0  0  0  0  0  0  0  0  0
   19.7359   18.9603    7.1643 H   0  0  0  0  0  0  0  0  0  0  0  0
   17.9683   19.2803    7.1643 H   0  0  0  0  0  0  0  0  0  0  0  0
   18.2601   17.1308    8.9291 H   0  0  0  0  0  0  0  0  0  0  0  0
   17.7081   17.0593    7.1995 H   0  0  0  0  0  0  0  0  0  0  0  0
   21.3754   17.2112    8.8304 H   0  0  0  0  0  0  0  0  0  0  0  0
   22.9697   12.1919    6.8048 H   0  0  0  0  0  0  0  0  0  0  0  0
   21.2813   14.3495   11.4663 H   0  0  0  0  0  0  0  0  0  0  0  0
   21.5378   15.8847   13.4405 H   0  0  0  0  0  0  0  0  0  0  0  0
   25.5748   14.4924   10.7641 H   0  0  0  0  0  0  0  0  0  0  0  0
   26.7774   15.4406   13.3134 H   0  0  0  0  0  0  0  0  0  0  0  0
   26.5575   16.9067   12.3869 H   0  0  0  0  0  0  0  0  0  0  0  0
   27.3609   17.3350   15.0078 H   0  0  0  0  0  0  0  0  0  0  0  0
   24.9396   18.1453   16.6560 H   0  0  0  0  0  0  0  0  0  0  0  0
   26.0300   16.7509   16.9547 H   0  0  0  0  0  0  0  0  0  0  0  0
   26.6210   18.7360   18.3461 H   0  0  0  0  0  0  0  0  0  0  0  0
   27.9418   18.2660   17.2024 H   0  0  0  0  0  0  0  0  0  0  0  0
   26.5658   21.1393   14.9964 H   0  0  0  0  0  0  0  0  0  0  0  0
   21.1060   14.1770    5.7844 H   0  0  0  0  0  0  0  0  0  0  0  0
  1  2  1  0
  2  3  1  0
  3  4  2  0
  4  5  1  0
  5  6  1  0
  6  7  2  0
  6  8  2  0
  6  9  1  0
  9 10  1  0
 10 11  2  0
 11 12  1  0
 12 13  1  0
 13 14  1  0
 14 15  2  0
 15 16  1  0
 16 17  2  0
 17 18  1  0
 18 19  2  0
 18 20  1  0
 20 21  1  0
 21 22  1  0
 22 23  1  0
 23 24  1  0
 24 25  1  0
 25 26  2  0
 25 27  1  0
 27 28  1  0
 28 29  2  0
 21 30  1  0
 30 31  2  0
  5 32  1  0
 32 33  2  0
 33  3  1  0
 13  9  2  0
 19 14  1  0
 28 22  1  0
 30 17  1  0
  1 34  1  0
  1 35  1  0
  1 36  1  0
  2 37  1  0
  2 38  1  0
  4 39  1  0
 10 40  1  0
 15 41  1  0
 16 42  1  0
 19 43  1  0
 20 44  1  0
 20 45  1  0
 22 46  1  1
 23 47  1  0
 23 48  1  0
 24 49  1  0
 24 50  1  0
 27 51  1  0
 32 52  1  0
M  END
>  <meeko>  (675) 
{"is_sidechain": [true], "free_energy": -10.6, "intermolecular_energy": 0.0, "internal_energy": -10.6, "cluster_size": 18, "cluster_id": 1, "rank_in_cluster": 1}

>  <_RMSD_MCS_to_ref>  (675) 
1.0954961078078835

$$$$
ligand
     RDKit          3D

 52 55  0  0  0  0  0  0  0  0999 V2000
   18.7970   18.8170    7.7190 C   0  0  0  0  0  0  0  0  0  0  0  0
   18.5280   17.3290    7.8810 C   0  0  0  0  0  0  0  0  0  0  0  0
   19.7820   16.5270    7.8740 C   0  0  0  0  0  0  0  0  0  0  0  0
   20.0670   15.3550    8.5460 C   0  0  0  0  0  0  0  0  0  0  0  0
   21.3460   15.0590    8.1730 N   0  0  0  0  0  0  0  0  0  0  0  0
   22.2960   13.8030    8.7530 S   0  0  0  0  0  6  0  0  0  0  0  0
   21.3880   12.7740    9.2180 O   0  0  0  0  0  0  0  0  0  0  0  0
   23.2610   13.5590    7.6970 O   0  0  0  0  0  0  0  0  0  0  0  0
   23.1490   14.4830   10.1510 C   0  0  0  0  0  0  0  0  0  0  0  0
   22.5060   14.4770   11.3990 C   0  0  0  0  0  0  0  0  0  0  0  0
   23.1510   14.9890   12.5360 C   0  0  0  0  0  0  0  0  0  0  0  0
   24.4430   15.5290   12.4460 C   0  0  0  0  0  0  0  0  0  0  0  0
   25.1420   16.0400   13.6550 C   0  0  0  0  0  0  0  0  0  0  0  0
   25.4270   15.2940   14.5830 O   0  0  0  0  0  0  0  0  0  0  0  0
   25.4600   17.3810   13.6460 N   0  0  0  0  0  0  0  0  0  0  0  0
   26.2850   17.9630   14.6960 C   0  0  2  0  0  0  0  0  0  0  0  0
   25.6490   17.8270   16.0750 C   0  0  0  0  0  0  0  0  0  0  0  0
   26.5420   18.4890   17.1120 C   0  0  0  0  0  0  0  0  0  0  0  0
   26.8150   19.9320   16.7600 C   0  0  0  0  0  0  0  0  0  0  0  0
   26.9520   20.8050   17.6120 O   0  0  0  0  0  0  0  0  0  0  0  0
   26.9340   20.2270   15.4240 N   0  0  0  0  0  0  0  0  0  0  0  0
   26.4860   19.4500   14.3860 C   0  0  0  0  0  0  0  0  0  0  0  0
   26.2770   19.9320   13.2730 O   0  0  0  0  0  0  0  0  0  0  0  0
   25.0620   15.5470   11.1970 C   0  0  0  0  0  0  0  0  0  0  0  0
   24.4230   15.0320   10.0520 C   0  0  0  0  0  0  0  0  0  0  0  0
   25.3310   15.1500    8.8630 C   0  0  0  0  0  0  0  0  0  0  0  0
   26.3290   16.2100    9.3370 C   0  0  0  0  0  0  0  0  0  0  0  0
   26.4360   16.0500   10.8540 C   0  0  0  0  0  0  0  0  0  0  0  0
   21.7960   16.0150    7.3200 C   0  0  0  0  0  0  0  0  0  0  0  0
   20.8710   16.9300    7.1250 N   0  0  0  0  0  0  0  0  0  0  0  0
   18.8815   19.2845    8.7111 H   0  0  0  0  0  0  0  0  0  0  0  0
   19.7359   18.9616    7.1643 H   0  0  0  0  0  0  0  0  0  0  0  0
   17.9682   19.2812    7.1643 H   0  0  0  0  0  0  0  0  0  0  0  0
   18.0079   17.1650    8.8363 H   0  0  0  0  0  0  0  0  0  0  0  0
   17.9133   17.0022    7.0293 H   0  0  0  0  0  0  0  0  0  0  0  0
   19.4131   14.7895    9.2261 H   0  0  0  0  0  0  0  0  0  0  0  0
   21.4887   14.0679   11.4867 H   0  0  0  0  0  0  0  0  0  0  0  0
   22.6376   14.9666   13.5086 H   0  0  0  0  0  0  0  0  0  0  0  0
   25.1091   17.9805   12.8855 H   0  0  0  0  0  0  0  0  0  0  0  0
   27.2424   17.4218   14.7170 H   0  0  0  0  0  0  0  0  0  0  0  0
   24.6635   18.3156   16.0741 H   0  0  0  0  0  0  0  0  0  0  0  0
   25.5295   16.7614   16.3204 H   0  0  0  0  0  0  0  0  0  0  0  0
   26.0447   18.4472   18.0923 H   0  0  0  0  0  0  0  0  0  0  0  0
   27.5009   17.9507   17.1389 H   0  0  0  0  0  0  0  0  0  0  0  0
   27.4018   21.1114   15.1793 H   0  0  0  0  0  0  0  0  0  0  0  0
   25.8330   14.1956    8.6458 H   0  0  0  0  0  0  0  0  0  0  0  0
   24.8117   15.4121    7.9294 H   0  0  0  0  0  0  0  0  0  0  0  0
   27.3099   16.0471    8.8666 H   0  0  0  0  0  0  0  0  0  0  0  0
   25.9970   17.2225    9.0640 H   0  0  0  0  0  0  0  0  0  0  0  0
   27.2117   15.3197   11.1278 H   0  0  0  0  0  0  0  0  0  0  0  0
   26.7232   16.9701   11.3840 H   0  0  0  0  0  0  0  0  0  0  0  0
   22.7938   16.0232    6.8571 H   0  0  0  0  0  0  0  0  0  0  0  0
  1  2  1  0
  2  3  1  0
  3  4  2  0
  4  5  1  0
  5  6  1  0
  6  7  2  0
  6  8  2  0
  6  9  1  0
  9 10  2  0
 10 11  1  0
 11 12  2  0
 12 13  1  0
 13 14  2  0
 13 15  1  0
 15 16  1  0
 16 17  1  0
 17 18  1  0
 18 19  1  0
 19 20  2  0
 19 21  1  0
 21 22  1  0
 22 23  2  0
 12 24  1  0
 24 25  2  0
 25 26  1  0
 26 27  1  0
 27 28  1  0
  5 29  1  0
 29 30  2  0
 30  3  1  0
 25  9  1  0
 22 16  1  0
 28 24  1  0
  1 31  1  0
  1 32  1  0
  1 33  1  0
  2 34  1  0
  2 35  1  0
  4 36  1  0
 10 37  1  0
 11 38  1  0
 15 39  1  0
 16 40  1  1
 17 41  1  0
 17 42  1  0
 18 43  1  0
 18 44  1  0
 21 45  1  0
 26 46  1  0
 26 47  1  0
 27 48  1  0
 27 49  1  0
 28 50  1  0
 28 51  1  0
 29 52  1  0
M  END
>  <meeko>  (676) 
{"is_sidechain": [true], "free_energy": -10.6, "intermolecular_energy": 0.0, "internal_energy": -10.6, "cluster_size": 15, "cluster_id": 1, "rank_in_cluster": 1}

>  <_RMSD_MCS_to_ref>  (676) 
0.8826084447061827

$$$$
ligand
     RDKit          3D

 54 58  0  0  0  0  0  0  0  0999 V2000
   18.7970   18.8170    7.7190 C   0  0  0  0  0  0  0  0  0  0  0  0
   18.5280   17.3290    7.8810 C   0  0  0  0  0  0  0  0  0  0  0  0
   19.6820   16.4980    7.4390 C   0  0  0  0  0  0  0  0  0  0  0  0
   20.3820   15.5390    8.1460 C   0  0  0  0  0  0  0  0  0  0  0  0
   21.3390   15.1140    7.2710 N   0  0  0  0  0  0  0  0  0  0  0  0
   22.3780   13.8160    7.5080 S   0  0  0  0  0  6  0  0  0  0  0  0
   22.2340   12.9590    6.3480 O   0  0  0  0  0  0  0  0  0  0  0  0
   23.6500   14.4030    7.8910 O   0  0  0  0  0  0  0  0  0  0  0  0
   21.7040   12.9870    8.9210 C   0  0  0  0  0  0  0  0  0  0  0  0
   20.8600   11.8830    8.7300 C   0  0  0  0  0  0  0  0  0  0  0  0
   20.2970   11.2210    9.8190 C   0  0  0  0  0  0  0  0  0  0  0  0
   20.5690   11.6370   11.1280 C   0  0  0  0  0  0  0  0  0  0  0  0
   21.4320   12.7300   11.3440 C   0  0  0  0  0  0  0  0  0  0  0  0
   21.9170   13.3970   12.5010 C   0  0  0  0  0  0  0  0  0  0  0  0
   22.7680   14.4150   12.1050 C   0  0  0  0  0  0  0  0  0  0  0  0
   23.5180   15.3930   12.8950 C   0  0  0  0  0  0  0  0  0  0  0  0
   24.8930   15.5500   12.7090 C   0  0  0  0  0  0  0  0  0  0  0  0
   25.6210   16.4800   13.4660 C   0  0  0  0  0  0  0  0  0  0  0  0
   25.0020   17.2870   14.4270 C   0  0  0  0  0  0  0  0  0  0  0  0
   25.7470   18.2520   15.1880 N   0  0  0  0  0  0  0  0  0  0  0  0
   26.5460   17.8120   16.3280 C   0  0  0  0  0  0  0  0  0  0  0  0
   26.5070   18.8330   17.4460 C   0  0  0  0  0  0  0  0  0  0  0  0
   26.9150   20.1670   16.9080 C   0  0  0  0  0  0  0  0  0  0  0  0
   27.3700   21.0560   17.6230 O   0  0  0  0  0  0  0  0  0  0  0  0
   26.6680   20.3720   15.5800 N   0  0  0  0  0  0  0  0  0  0  0  0
   25.9080   19.5750   14.7560 C   0  0  0  0  0  0  0  0  0  0  0  0
   25.4550   20.0750   13.7310 O   0  0  0  0  0  0  0  0  0  0  0  0
   23.6180   17.1290   14.6010 C   0  0  0  0  0  0  0  0  0  0  0  0
   22.8880   16.1960   13.8500 C   0  0  0  0  0  0  0  0  0  0  0  0
   22.7930   14.3810   10.7290 N   0  0  0  0  0  0  0  0  0  0  0  0
   21.9850   13.3750   10.2410 C   0  0  0  0  0  0  0  0  0  0  0  0
   21.1820   15.7610    6.0870 C   0  0  0  0  0  0  0  0  0  0  0  0
   20.1880   16.6210    6.1610 N   0  0  0  0  0  0  0  0  0  0  0  0
   18.8815   19.2845    8.7111 H   0  0  0  0  0  0  0  0  0  0  0  0
   19.7359   18.9616    7.1643 H   0  0  0  0  0  0  0  0  0  0  0  0
   17.9682   19.2812    7.1643 H   0  0  0  0  0  0  0  0  0  0  0  0
   18.3256   17.1189    8.9416 H   0  0  0  0  0  0  0  0  0  0  0  0
   17.6645   17.0710    7.2503 H   0  0  0  0  0  0  0  0  0  0  0  0
   20.2079   15.1969    9.1769 H   0  0  0  0  0  0  0  0  0  0  0  0
   20.6403   11.5362    7.7095 H   0  0  0  0  0  0  0  0  0  0  0  0
   19.6314   10.3620    9.6485 H   0  0  0  0  0  0  0  0  0  0  0  0
   20.1124   11.1145   11.9815 H   0  0  0  0  0  0  0  0  0  0  0  0
   21.6589   13.1460   13.5404 H   0  0  0  0  0  0  0  0  0  0  0  0
   25.4125   14.9360   11.9586 H   0  0  0  0  0  0  0  0  0  0  0  0
   26.7041   16.5771   13.3002 H   0  0  0  0  0  0  0  0  0  0  0  0
   26.1468   16.8567   16.6995 H   0  0  0  0  0  0  0  0  0  0  0  0
   27.5889   17.6927   15.9992 H   0  0  0  0  0  0  0  0  0  0  0  0
   25.4863   18.8962   17.8511 H   0  0  0  0  0  0  0  0  0  0  0  0
   27.1977   18.5306   18.2469 H   0  0  0  0  0  0  0  0  0  0  0  0
   27.0936   21.2072   15.1531 H   0  0  0  0  0  0  0  0  0  0  0  0
   23.0946   17.7505   15.3425 H   0  0  0  0  0  0  0  0  0  0  0  0
   21.8051   16.0949   14.0148 H   0  0  0  0  0  0  0  0  0  0  0  0
   23.3432   15.0229   10.1406 H   0  0  0  0  0  0  0  0  0  0  0  0
   21.7987   15.5904    5.1922 H   0  0  0  0  0  0  0  0  0  0  0  0
  1  2  1  0
  2  3  1  0
  3  4  2  0
  4  5  1  0
  5  6  1  0
  6  7  2  0
  6  8  2  0
  6  9  1  0
  9 10  2  0
 10 11  1  0
 11 12  2  0
 12 13  1  0
 13 14  1  0
 14 15  2  0
 15 16  1  0
 16 17  2  0
 17 18  1  0
 18 19  2  0
 19 20  1  0
 20 21  1  0
 21 22  1  0
 22 23  1  0
 23 24  2  0
 23 25  1  0
 25 26  1  0
 26 27  2  0
 19 28  1  0
 28 29  2  0
 15 30  1  0
 30 31  1  0
  5 32  1  0
 32 33  2  0
 33  3  1  0
 31  9  1  0
 31 13  2  0
 29 16  1  0
 26 20  1  0
  1 34  1  0
  1 35  1  0
  1 36  1  0
  2 37  1  0
  2 38  1  0
  4 39  1  0
 10 40  1  0
 11 41  1  0
 12 42  1  0
 14 43  1  0
 17 44  1  0
 18 45  1  0
 21 46  1  0
 21 47  1  0
 22 48  1  0
 22 49  1  0
 25 50  1  0
 28 51  1  0
 29 52  1  0
 30 53  1  0
 32 54  1  0
M  END
>  <meeko>  (677) 
{"is_sidechain": [true], "free_energy": -10.6, "intermolecular_energy": 0.0, "internal_energy": -10.6, "cluster_size": 12, "cluster_id": 1, "rank_in_cluster": 1}

>  <_RMSD_MCS_to_ref>  (677) 
0.5551964742323208

$$$$
ligand
     RDKit          3D

 49 52  0  0  0  0  0  0  0  0999 V2000
   18.9090   19.1540    7.5370 C   0  0  0  0  0  0  0  0  0  0  0  0
   18.7730   17.6460    7.6780 C   0  0  0  0  0  0  0  0  0  0  0  0
   19.9940   16.9270    7.2210 C   0  0  0  0  0  0  0  0  0  0  0  0
   20.6940   15.9170    7.8500 C   0  0  0  0  0  0  0  0  0  0  0  0
   21.7350   15.6560    7.0060 N   0  0  0  0  0  0  0  0  0  0  0  0
   22.7910   14.3590    7.1260 S   0  0  0  0  0  6  0  0  0  0  0  0
   23.2620   14.0920    5.7830 O   0  0  0  0  0  0  0  0  0  0  0  0
   22.1250   13.3650    7.9440 O   0  0  0  0  0  0  0  0  0  0  0  0
   24.2200   14.8460    8.0410 C   0  0  0  0  0  0  0  0  0  0  0  0
   25.5640   14.8850    7.6880 C   0  0  0  0  0  0  0  0  0  0  0  0
   26.3040   15.3540    8.7920 C   0  0  0  0  0  0  0  0  0  0  0  0
   25.4060   15.5950    9.8060 C   0  0  0  0  0  0  0  0  0  0  0  0
   25.5510   16.0730   11.1430 C   0  0  0  0  0  0  0  0  0  0  0  0
   24.4660   16.1990   11.9350 C   0  0  0  0  0  0  0  0  0  0  0  0
   24.6970   16.7070   13.3250 C   0  0  0  0  0  0  0  0  0  0  0  0
   24.4060   16.0510   14.3190 O   0  0  0  0  0  0  0  0  0  0  0  0
   25.2090   17.9790   13.3910 N   0  0  0  0  0  0  0  0  0  0  0  0
   25.3270   18.6810   14.6600 C   0  0  1  0  0  0  0  0  0  0  0  0
   26.2870   17.9860   15.6200 C   0  0  0  0  0  0  0  0  0  0  0  0
   26.3900   18.7920   16.9060 C   0  0  0  0  0  0  0  0  0  0  0  0
   26.8070   20.2170   16.6280 C   0  0  0  0  0  0  0  0  0  0  0  0
   27.5100   20.8610   17.4000 O   0  0  0  0  0  0  0  0  0  0  0  0
   26.3330   20.7820   15.4700 N   0  0  0  0  0  0  0  0  0  0  0  0
   25.8380   20.1000   14.3870 C   0  0  0  0  0  0  0  0  0  0  0  0
   25.8030   20.6150   13.2700 O   0  0  0  0  0  0  0  0  0  0  0  0
   23.1330   15.8910   11.4280 C   0  0  0  0  0  0  0  0  0  0  0  0
   22.9960   15.4450   10.1670 C   0  0  0  0  0  0  0  0  0  0  0  0
   24.1240   15.2870    9.3520 N   0  0  0  0  0  0  0  0  0  0  0  0
   21.6150   16.4310    5.8970 C   0  0  0  0  0  0  0  0  0  0  0  0
   20.5720   17.2280    6.0030 N   0  0  0  0  0  0  0  0  0  0  0  0
   18.9504   19.6134    8.5356 H   0  0  0  0  0  0  0  0  0  0  0  0
   19.8320   19.3891    6.9867 H   0  0  0  0  0  0  0  0  0  0  0  0
   18.0430   19.5504    6.9867 H   0  0  0  0  0  0  0  0  0  0  0  0
   18.5941   17.4036    8.7359 H   0  0  0  0  0  0  0  0  0  0  0  0
   17.9332   17.3217    7.0459 H   0  0  0  0  0  0  0  0  0  0  0  0
   20.4654   15.4333    8.8111 H   0  0  0  0  0  0  0  0  0  0  0  0
   25.9801   14.5980    6.7110 H   0  0  0  0  0  0  0  0  0  0  0  0
   27.3935   15.4998    8.8348 H   0  0  0  0  0  0  0  0  0  0  0  0
   26.5468   16.3385   11.5275 H   0  0  0  0  0  0  0  0  0  0  0  0
   25.5156   18.4455   12.5254 H   0  0  0  0  0  0  0  0  0  0  0  0
   24.3344   18.6949   15.1338 H   0  0  0  0  0  0  0  0  0  0  0  0
   25.9113   16.9777   15.8483 H   0  0  0  0  0  0  0  0  0  0  0  0
   27.2806   17.9102   15.1541 H   0  0  0  0  0  0  0  0  0  0  0  0
   25.4101   18.7963   17.4058 H   0  0  0  0  0  0  0  0  0  0  0  0
   27.1520   18.3260   17.5481 H   0  0  0  0  0  0  0  0  0  0  0  0
   26.3505   21.8100   15.4086 H   0  0  0  0  0  0  0  0  0  0  0  0
   22.2498   16.0222   12.0704 H   0  0  0  0  0  0  0  0  0  0  0  0
   21.9969   15.2039    9.7750 H   0  0  0  0  0  0  0  0  0  0  0  0
   22.2936   16.3976    5.0319 H   0  0  0  0  0  0  0  0  0  0  0  0
  1  2  1  0
  2  3  1  0
  3  4  2  0
  4  5  1  0
  5  6  1  0
  6  7  2  0
  6  8  2  0
  6  9  1  0
  9 10  2  0
 10 11  1  0
 11 12  2  0
 12 13  1  0
 13 14  2  0
 14 15  1  0
 15 16  2  0
 15 17  1  0
 17 18  1  0
 18 19  1  0
 19 20  1  0
 20 21  1  0
 21 22  2  0
 21 23  1  0
 23 24  1  0
 24 25  2  0
 14 26  1  0
 26 27  2  0
 27 28  1  0
  5 29  1  0
 29 30  2  0
 30  3  1  0
 28  9  1  0
 28 12  1  0
 24 18  1  0
  1 31  1  0
  1 32  1  0
  1 33  1  0
  2 34  1  0
  2 35  1  0
  4 36  1  0
 10 37  1  0
 11 38  1  0
 13 39  1  0
 17 40  1  0
 18 41  1  1
 19 42  1  0
 19 43  1  0
 20 44  1  0
 20 45  1  0
 23 46  1  0
 26 47  1  0
 27 48  1  0
 29 49  1  0
M  END
>  <meeko>  (678) 
{"is_sidechain": [true], "free_energy": -10.6, "intermolecular_energy": 0.0, "internal_energy": -10.6, "cluster_size": 20, "cluster_id": 1, "rank_in_cluster": 1}

>  <_RMSD_MCS_to_ref>  (678) 
0.6468411706130033

$$$$
ligand
     RDKit          3D

 48 51  0  0  0  0  0  0  0  0999 V2000
   18.9090   19.1540    7.5370 C   0  0  0  0  0  0  0  0  0  0  0  0
   18.7730   17.6460    7.6780 C   0  0  0  0  0  0  0  0  0  0  0  0
   20.0300   16.9330    7.3220 C   0  0  0  0  0  0  0  0  0  0  0  0
   21.2030   16.8280    8.0440 C   0  0  0  0  0  0  0  0  0  0  0  0
   22.0220   16.0830    7.2440 N   0  0  0  0  0  0  0  0  0  0  0  0
   23.5020   15.4390    7.6950 S   0  0  0  0  0  6  0  0  0  0  0  0
   23.3660   13.9990    7.6360 O   0  0  0  0  0  0  0  0  0  0  0  0
   24.5040   16.1740    6.9500 O   0  0  0  0  0  0  0  0  0  0  0  0
   23.7890   15.8140    9.3380 C   0  0  0  0  0  0  0  0  0  0  0  0
   24.7620   16.6670    9.7970 C   0  0  0  0  0  0  0  0  0  0  0  0
   24.6900   16.7750   11.1470 O   0  0  0  0  0  0  0  0  0  0  0  0
   23.6630   15.9770   11.5700 C   0  0  0  0  0  0  0  0  0  0  0  0
   23.2430   15.7990   12.8940 C   0  0  0  0  0  0  0  0  0  0  0  0
   23.8670   16.4690   14.0590 C   0  0  0  0  0  0  0  0  0  0  0  0
   23.9460   15.8840   15.1350 O   0  0  0  0  0  0  0  0  0  0  0  0
   24.3330   17.7490   13.8810 N   0  0  0  0  0  0  0  0  0  0  0  0
   24.8440   18.5450   14.9860 C   0  0  1  0  0  0  0  0  0  0  0  0
   25.9350   17.8150   15.7620 C   0  0  0  0  0  0  0  0  0  0  0  0
   26.4410   18.7070   16.8850 C   0  0  0  0  0  0  0  0  0  0  0  0
   26.9210   20.0380   16.3560 C   0  0  0  0  0  0  0  0  0  0  0  0
   27.8580   20.6480   16.8610 O   0  0  0  0  0  0  0  0  0  0  0  0
   26.2340   20.5570   15.2880 N   0  0  0  0  0  0  0  0  0  0  0  0
   25.4150   19.8560   14.4360 C   0  0  0  0  0  0  0  0  0  0  0  0
   25.1620   20.2830   13.3100 O   0  0  0  0  0  0  0  0  0  0  0  0
   22.1590   14.9260   13.0890 C   0  0  0  0  0  0  0  0  0  0  0  0
   21.5450   14.2740   12.0180 C   0  0  0  0  0  0  0  0  0  0  0  0
   21.9890   14.4740   10.7060 C   0  0  0  0  0  0  0  0  0  0  0  0
   23.0700   15.3480   10.4730 C   0  0  0  0  0  0  0  0  0  0  0  0
   21.3440   15.7230    6.1250 C   0  0  0  0  0  0  0  0  0  0  0  0
   20.1310   16.2350    6.1350 N   0  0  0  0  0  0  0  0  0  0  0  0
   18.9504   19.6134    8.5356 H   0  0  0  0  0  0  0  0  0  0  0  0
   19.8320   19.3891    6.9867 H   0  0  0  0  0  0  0  0  0  0  0  0
   18.0430   19.5504    6.9867 H   0  0  0  0  0  0  0  0  0  0  0  0
   18.5146   17.4095    8.7207 H   0  0  0  0  0  0  0  0  0  0  0  0
   17.9868   17.3113    6.9852 H   0  0  0  0  0  0  0  0  0  0  0  0
   21.4263   17.2480    9.0358 H   0  0  0  0  0  0  0  0  0  0  0  0
   25.4939   17.1874    9.1618 H   0  0  0  0  0  0  0  0  0  0  0  0
   24.3201   18.1578   12.9357 H   0  0  0  0  0  0  0  0  0  0  0  0
   24.0097   18.7378   15.6765 H   0  0  0  0  0  0  0  0  0  0  0  0
   25.5244   16.8873   16.1872 H   0  0  0  0  0  0  0  0  0  0  0  0
   26.7664   17.5710   15.0844 H   0  0  0  0  0  0  0  0  0  0  0  0
   25.6240   18.8797   17.6010 H   0  0  0  0  0  0  0  0  0  0  0  0
   27.2874   18.2025   17.3740 H   0  0  0  0  0  0  0  0  0  0  0  0
   26.3421   21.5654   15.1082 H   0  0  0  0  0  0  0  0  0  0  0  0
   21.7857   14.7524   14.1091 H   0  0  0  0  0  0  0  0  0  0  0  0
   20.7013   13.5942   12.2079 H   0  0  0  0  0  0  0  0  0  0  0  0
   21.5007   13.9559    9.8675 H   0  0  0  0  0  0  0  0  0  0  0  0
   21.7510   15.0915    5.3216 H   0  0  0  0  0  0  0  0  0  0  0  0
  1  2  1  0
  2  3  1  0
  3  4  2  0
  4  5  1  0
  5  6  1  0
  6  7  2  0
  6  8  2  0
  6  9  1  0
  9 10  2  0
 10 11  1  0
 11 12  1  0
 12 13  2  0
 13 14  1  0
 14 15  2  0
 14 16  1  0
 16 17  1  0
 17 18  1  0
 18 19  1  0
 19 20  1  0
 20 21  2  0
 20 22  1  0
 22 23  1  0
 23 24  2  0
 13 25  1  0
 25 26  2  0
 26 27  1  0
 27 28  2  0
  5 29  1  0
 29 30  2  0
 30  3  1  0
 28  9  1  0
 28 12  1  0
 23 17  1  0
  1 31  1  0
  1 32  1  0
  1 33  1  0
  2 34  1  0
  2 35  1  0
  4 36  1  0
 10 37  1  0
 16 38  1  0
 17 39  1  1
 18 40  1  0
 18 41  1  0
 19 42  1  0
 19 43  1  0
 22 44  1  0
 25 45  1  0
 26 46  1  0
 27 47  1  0
 29 48  1  0
M  END
>  <meeko>  (679) 
{"is_sidechain": [true], "free_energy": -10.6, "intermolecular_energy": 0.0, "internal_energy": -10.6, "cluster_size": 15, "cluster_id": 1, "rank_in_cluster": 1}

>  <_RMSD_MCS_to_ref>  (679) 
0.39095424568895826

$$$$
ligand
     RDKit          3D

 48 51  0  0  0  0  0  0  0  0999 V2000
   18.9090   19.1540    7.5370 C   0  0  0  0  0  0  0  0  0  0  0  0
   18.7730   17.6460    7.6780 C   0  0  0  0  0  0  0  0  0  0  0  0
   20.0930   16.9580    7.6480 C   0  0  0  0  0  0  0  0  0  0  0  0
   20.9490   16.6760    8.6940 C   0  0  0  0  0  0  0  0  0  0  0  0
   21.9960   16.0270    8.1040 N   0  0  0  0  0  0  0  0  0  0  0  0
   23.4560   15.6440    8.8420 S   0  0  0  0  0  6  0  0  0  0  0  0
   23.8580   14.3660    8.2870 O   0  0  0  0  0  0  0  0  0  0  0  0
   24.2810   16.8290    8.7250 O   0  0  0  0  0  0  0  0  0  0  0  0
   23.0090   15.4040   10.5380 C   0  0  0  0  0  0  0  0  0  0  0  0
   23.8660   15.9090   11.5330 C   0  0  0  0  0  0  0  0  0  0  0  0
   23.5720   15.7370   12.8910 C   0  0  0  0  0  0  0  0  0  0  0  0
   24.5410   16.2750   13.8870 C   0  0  0  0  0  0  0  0  0  0  0  0
   25.1330   15.5130   14.6410 O   0  0  0  0  0  0  0  0  0  0  0  0
   24.7430   17.6370   13.8780 N   0  0  0  0  0  0  0  0  0  0  0  0
   25.7890   18.2440   14.6910 C   0  0  2  0  0  0  0  0  0  0  0  0
   25.6170   17.9460   16.1780 C   0  0  0  0  0  0  0  0  0  0  0  0
   26.7110   18.6490   16.9650 C   0  0  0  0  0  0  0  0  0  0  0  0
   26.7200   20.1340   16.6850 C   0  0  0  0  0  0  0  0  0  0  0  0
   27.0090   20.9640   17.5410 O   0  0  0  0  0  0  0  0  0  0  0  0
   26.4120   20.5200   15.4050 N   0  0  0  0  0  0  0  0  0  0  0  0
   25.7420   19.7600   14.4810 C   0  0  0  0  0  0  0  0  0  0  0  0
   25.1480   20.2800   13.5340 O   0  0  0  0  0  0  0  0  0  0  0  0
   22.4170   15.0440   13.2910 C   0  0  0  0  0  0  0  0  0  0  0  0
   21.5730   14.5650   12.2810 C   0  0  0  0  0  0  0  0  0  0  0  0
   20.3930   13.8680   12.3450 N   0  0  0  0  0  0  0  0  0  0  0  0
   19.8670   13.5790   11.1460 N   0  0  0  0  0  0  0  0  0  0  0  0
   20.7340   14.1100   10.2820 C   0  0  0  0  0  0  0  0  0  0  0  0
   21.8330   14.7330   10.9210 C   0  0  0  0  0  0  0  0  0  0  0  0
   21.7870   15.9710    6.7630 C   0  0  0  0  0  0  0  0  0  0  0  0
   20.6300   16.5190    6.4540 N   0  0  0  0  0  0  0  0  0  0  0  0
   18.9504   19.6134    8.5356 H   0  0  0  0  0  0  0  0  0  0  0  0
   19.8320   19.3891    6.9867 H   0  0  0  0  0  0  0  0  0  0  0  0
   18.0430   19.5504    6.9867 H   0  0  0  0  0  0  0  0  0  0  0  0
   18.2786   17.4227    8.6349 H   0  0  0  0  0  0  0  0  0  0  0  0
   18.1809   17.2788    6.8267 H   0  0  0  0  0  0  0  0  0  0  0  0
   20.8178   16.9185    9.7589 H   0  0  0  0  0  0  0  0  0  0  0  0
   24.7799   16.4465   11.2399 H   0  0  0  0  0  0  0  0  0  0  0  0
   24.1466   18.2350   13.2885 H   0  0  0  0  0  0  0  0  0  0  0  0
   26.7545   17.8199   14.3780 H   0  0  0  0  0  0  0  0  0  0  0  0
   24.6338   18.3078   16.5132 H   0  0  0  0  0  0  0  0  0  0  0  0
   25.6845   16.8608   16.3449 H   0  0  0  0  0  0  0  0  0  0  0  0
   26.5396   18.4879   18.0395 H   0  0  0  0  0  0  0  0  0  0  0  0
   27.6818   18.2318   16.6593 H   0  0  0  0  0  0  0  0  0  0  0  0
   26.7097   21.4618   15.1129 H   0  0  0  0  0  0  0  0  0  0  0  0
   22.1850   14.8841   14.3543 H   0  0  0  0  0  0  0  0  0  0  0  0
   19.9513   13.5918   13.2335 H   0  0  0  0  0  0  0  0  0  0  0  0
   20.6083   14.0682    9.1900 H   0  0  0  0  0  0  0  0  0  0  0  0
   22.4859   15.5299    6.0371 H   0  0  0  0  0  0  0  0  0  0  0  0
  1  2  1  0
  2  3  1  0
  3  4  2  0
  4  5  1  0
  5  6  1  0
  6  7  2  0
  6  8  2  0
  6  9  1  0
  9 10  2  0
 10 11  1  0
 11 12  1  0
 12 13  2  0
 12 14  1  0
 14 15  1  0
 15 16  1  0
 16 17  1  0
 17 18  1  0
 18 19  2  0
 18 20  1  0
 20 21  1  0
 21 22  2  0
 11 23  2  0
 23 24  1  0
 24 25  1  0
 25 26  1  0
 26 27  2  0
 27 28  1  0
  5 29  1  0
 29 30  2  0
 30  3  1  0
 28  9  1  0
 21 15  1  0
 28 24  2  0
  1 31  1  0
  1 32  1  0
  1 33  1  0
  2 34  1  0
  2 35  1  0
  4 36  1  0
 10 37  1  0
 14 38  1  0
 15 39  1  6
 16 40  1  0
 16 41  1  0
 17 42  1  0
 17 43  1  0
 20 44  1  0
 23 45  1  0
 25 46  1  0
 27 47  1  0
 29 48  1  0
M  END
>  <meeko>  (680) 
{"is_sidechain": [true], "free_energy": -10.6, "intermolecular_energy": 0.0, "internal_energy": -10.6, "cluster_size": 20, "cluster_id": 1, "rank_in_cluster": 1}

>  <_RMSD_MCS_to_ref>  (680) 
0.5756715884753892

$$$$
ligand
     RDKit          3D

 48 51  0  0  0  0  0  0  0  0999 V2000
   18.9090   19.1540    7.5370 C   0  0  0  0  0  0  0  0  0  0  0  0
   18.7730   17.6460    7.6780 C   0  0  0  0  0  0  0  0  0  0  0  0
   20.0020   16.9280    7.2420 C   0  0  0  0  0  0  0  0  0  0  0  0
   21.0570   16.4680    8.0060 C   0  0  0  0  0  0  0  0  0  0  0  0
   21.8870   15.8670    7.1030 N   0  0  0  0  0  0  0  0  0  0  0  0
   23.4420   15.3260    7.4160 S   0  0  0  0  0  6  0  0  0  0  0  0
   23.3830   13.8790    7.3700 O   0  0  0  0  0  0  0  0  0  0  0  0
   24.3300   16.1120    6.5840 O   0  0  0  0  0  0  0  0  0  0  0  0
   23.8440   15.7150    9.0290 C   0  0  0  0  0  0  0  0  0  0  0  0
   24.9620   16.4560    9.4180 C   0  0  0  0  0  0  0  0  0  0  0  0
   25.0600   16.5770   10.7410 N   0  0  0  0  0  0  0  0  0  0  0  0
   23.9760   15.9090   11.2490 N   0  0  0  0  0  0  0  0  0  0  0  0
   23.6320   15.7330   12.6000 C   0  0  0  0  0  0  0  0  0  0  0  0
   24.4300   16.2690   13.7460 C   0  0  0  0  0  0  0  0  0  0  0  0
   24.4270   15.7240   14.8470 O   0  0  0  0  0  0  0  0  0  0  0  0
   25.1670   17.3940   13.4950 N   0  0  0  0  0  0  0  0  0  0  0  0
   26.0440   17.9890   14.4890 C   0  0  2  0  0  0  0  0  0  0  0  0
   25.3800   18.0430   15.8620 C   0  0  0  0  0  0  0  0  0  0  0  0
   26.3330   18.6770   16.8640 C   0  0  0  0  0  0  0  0  0  0  0  0
   26.7810   20.0440   16.4040 C   0  0  0  0  0  0  0  0  0  0  0  0
   27.0270   20.9540   17.1900 O   0  0  0  0  0  0  0  0  0  0  0  0
   26.9350   20.2180   15.0520 N   0  0  0  0  0  0  0  0  0  0  0  0
   26.4310   19.4090   14.0610 C   0  0  0  0  0  0  0  0  0  0  0  0
   26.3320   19.8210   12.9070 O   0  0  0  0  0  0  0  0  0  0  0  0
   22.5160   15.0350   12.9000 C   0  0  0  0  0  0  0  0  0  0  0  0
   21.6970   14.4910   11.8340 C   0  0  0  0  0  0  0  0  0  0  0  0
   22.0240   14.6530   10.5410 C   0  0  0  0  0  0  0  0  0  0  0  0
   23.2050   15.3730   10.2000 C   0  0  0  0  0  0  0  0  0  0  0  0
   21.3720   16.0180    5.8560 C   0  0  0  0  0  0  0  0  0  0  0  0
   20.2160   16.6470    5.9070 N   0  0  0  0  0  0  0  0  0  0  0  0
   18.9504   19.6134    8.5356 H   0  0  0  0  0  0  0  0  0  0  0  0
   19.8320   19.3891    6.9867 H   0  0  0  0  0  0  0  0  0  0  0  0
   18.0430   19.5504    6.9867 H   0  0  0  0  0  0  0  0  0  0  0  0
   18.5773   17.4050    8.7333 H   0  0  0  0  0  0  0  0  0  0  0  0
   17.9440   17.3196    7.0328 H   0  0  0  0  0  0  0  0  0  0  0  0
   21.1967   16.5638    9.0929 H   0  0  0  0  0  0  0  0  0  0  0  0
   25.6823   16.8917    8.7100 H   0  0  0  0  0  0  0  0  0  0  0  0
   25.0976   17.8355   12.5670 H   0  0  0  0  0  0  0  0  0  0  0  0
   26.9421   17.3581   14.5617 H   0  0  0  0  0  0  0  0  0  0  0  0
   24.4603   18.6434   15.8007 H   0  0  0  0  0  0  0  0  0  0  0  0
   25.1318   17.0224   16.1886 H   0  0  0  0  0  0  0  0  0  0  0  0
   25.8217   18.7745   17.8330 H   0  0  0  0  0  0  0  0  0  0  0  0
   27.2200   18.0330   16.9559 H   0  0  0  0  0  0  0  0  0  0  0  0
   27.4827   21.0361   14.7491 H   0  0  0  0  0  0  0  0  0  0  0  0
   22.2287   14.8793   13.9503 H   0  0  0  0  0  0  0  0  0  0  0  0
   20.7852   13.9317   12.0905 H   0  0  0  0  0  0  0  0  0  0  0  0
   21.3842   14.2326    9.7511 H   0  0  0  0  0  0  0  0  0  0  0  0
   21.8530   15.6644    4.9321 H   0  0  0  0  0  0  0  0  0  0  0  0
  1  2  1  0
  2  3  1  0
  3  4  2  0
  4  5  1  0
  5  6  1  0
  6  7  2  0
  6  8  2  0
  6  9  1  0
  9 10  1  0
 10 11  2  0
 11 12  1  0
 12 13  1  0
 13 14  1  0
 14 15  2  0
 14 16  1  0
 16 17  1  0
 17 18  1  0
 18 19  1  0
 19 20  1  0
 20 21  2  0
 20 22  1  0
 22 23  1  0
 23 24  2  0
 13 25  2  0
 25 26  1  0
 26 27  2  0
 27 28  1  0
  5 29  1  0
 29 30  2  0
 30  3  1  0
 28  9  2  0
 28 12  1  0
 23 17  1  0
  1 31  1  0
  1 32  1  0
  1 33  1  0
  2 34  1  0
  2 35  1  0
  4 36  1  0
 10 37  1  0
 16 38  1  0
 17 39  1  1
 18 40  1  0
 18 41  1  0
 19 42  1  0
 19 43  1  0
 22 44  1  0
 25 45  1  0
 26 46  1  0
 27 47  1  0
 29 48  1  0
M  END
>  <meeko>  (681) 
{"is_sidechain": [true], "free_energy": -10.6, "intermolecular_energy": 0.0, "internal_energy": -10.6, "cluster_size": 12, "cluster_id": 1, "rank_in_cluster": 1}

>  <_RMSD_MCS_to_ref>  (681) 
0.9780721400342159

$$$$
ligand
     RDKit          3D

 47 50  0  0  0  0  0  0  0  0999 V2000
   18.9090   19.1540    7.5370 C   0  0  0  0  0  0  0  0  0  0  0  0
   18.7730   17.6460    7.6780 C   0  0  0  0  0  0  0  0  0  0  0  0
   20.0890   16.9540    7.6030 C   0  0  0  0  0  0  0  0  0  0  0  0
   20.8110   16.3510    8.6130 C   0  0  0  0  0  0  0  0  0  0  0  0
   21.9190   15.8580    7.9860 N   0  0  0  0  0  0  0  0  0  0  0  0
   23.3030   15.2670    8.7510 S   0  0  0  0  0  6  0  0  0  0  0  0
   24.3660   16.1520    8.3060 O   0  0  0  0  0  0  0  0  0  0  0  0
   23.3250   13.8540    8.4250 O   0  0  0  0  0  0  0  0  0  0  0  0
   23.0440   15.4660   10.4680 C   0  0  0  0  0  0  0  0  0  0  0  0
   23.7910   16.4560   11.2430 C   0  0  0  0  0  0  0  0  0  0  0  0
   23.5980   16.6130   12.5730 C   0  0  0  0  0  0  0  0  0  0  0  0
   24.4190   17.6370   13.2940 C   0  0  0  0  0  0  0  0  0  0  0  0
   25.5430   17.9440   12.9020 O   0  0  0  0  0  0  0  0  0  0  0  0
   23.8420   18.1910   14.4120 N   0  0  0  0  0  0  0  0  0  0  0  0
   24.6440   18.9350   15.3700 C   0  0  1  0  0  0  0  0  0  0  0  0
   25.7460   18.0570   15.9500 C   0  0  0  0  0  0  0  0  0  0  0  0
   26.5680   18.8640   16.9420 C   0  0  0  0  0  0  0  0  0  0  0  0
   27.1220   20.1170   16.3050 C   0  0  0  0  0  0  0  0  0  0  0  0
   28.2100   20.5900   16.6240 O   0  0  0  0  0  0  0  0  0  0  0  0
   26.3340   20.7280   15.3640 N   0  0  0  0  0  0  0  0  0  0  0  0
   25.2830   20.1550   14.6870 C   0  0  0  0  0  0  0  0  0  0  0  0
   24.9020   20.6220   13.6150 O   0  0  0  0  0  0  0  0  0  0  0  0
   22.6340   15.7960   13.2310 C   0  0  0  0  0  0  0  0  0  0  0  0
   22.2250   15.7090   14.4800 N   0  0  0  0  0  0  0  0  0  0  0  0
   21.2550   14.7360   14.5420 N   0  0  0  0  0  0  0  0  0  0  0  0
   21.0940   14.2480   13.3330 C   0  0  0  0  0  0  0  0  0  0  0  0
   21.9380   14.8760   12.4600 N   0  0  0  0  0  0  0  0  0  0  0  0
   22.1300   14.7010   11.0950 C   0  0  0  0  0  0  0  0  0  0  0  0
   21.8790   16.2100    6.6730 C   0  0  0  0  0  0  0  0  0  0  0  0
   20.7710   16.8670    6.4060 N   0  0  0  0  0  0  0  0  0  0  0  0
   18.9504   19.6134    8.5356 H   0  0  0  0  0  0  0  0  0  0  0  0
   19.8320   19.3891    6.9867 H   0  0  0  0  0  0  0  0  0  0  0  0
   18.0430   19.5504    6.9867 H   0  0  0  0  0  0  0  0  0  0  0  0
   18.3093   17.4213    8.6499 H   0  0  0  0  0  0  0  0  0  0  0  0
   18.1524   17.2832    6.8454 H   0  0  0  0  0  0  0  0  0  0  0  0
   20.5526   16.2831    9.6800 H   0  0  0  0  0  0  0  0  0  0  0  0
   24.5297   17.0901   10.7309 H   0  0  0  0  0  0  0  0  0  0  0  0
   22.8309   18.0779   14.5728 H   0  0  0  0  0  0  0  0  0  0  0  0
   23.9823   19.2665   16.1838 H   0  0  0  0  0  0  0  0  0  0  0  0
   25.2957   17.1945   16.4630 H   0  0  0  0  0  0  0  0  0  0  0  0
   26.3972   17.7017   15.1378 H   0  0  0  0  0  0  0  0  0  0  0  0
   25.9285   19.1465   17.7912 H   0  0  0  0  0  0  0  0  0  0  0  0
   27.4116   18.2439   17.2794 H   0  0  0  0  0  0  0  0  0  0  0  0
   26.5499   21.7105   15.1429 H   0  0  0  0  0  0  0  0  0  0  0  0
   20.3848   13.4517   13.0630 H   0  0  0  0  0  0  0  0  0  0  0  0
   21.5472   13.9527   10.5378 H   0  0  0  0  0  0  0  0  0  0  0  0
   22.6632   15.9779    5.9374 H   0  0  0  0  0  0  0  0  0  0  0  0
  1  2  1  0
  2  3  1  0
  3  4  2  0
  4  5  1  0
  5  6  1  0
  6  7  2  0
  6  8  2  0
  6  9  1  0
  9 10  1  0
 10 11  2  0
 11 12  1  0
 12 13  2  0
 12 14  1  0
 14 15  1  0
 15 16  1  0
 16 17  1  0
 17 18  1  0
 18 19  2  0
 18 20  1  0
 20 21  1  0
 21 22  2  0
 11 23  1  0
 23 24  2  0
 24 25  1  0
 25 26  2  0
 26 27  1  0
 27 28  1  0
  5 29  1  0
 29 30  2  0
 30  3  1  0
 28  9  2  0
 21 15  1  0
 27 23  1  0
  1 31  1  0
  1 32  1  0
  1 33  1  0
  2 34  1  0
  2 35  1  0
  4 36  1  0
 10 37  1  0
 14 38  1  0
 15 39  1  1
 16 40  1  0
 16 41  1  0
 17 42  1  0
 17 43  1  0
 20 44  1  0
 26 45  1  0
 28 46  1  0
 29 47  1  0
M  END
>  <meeko>  (682) 
{"is_sidechain": [true], "free_energy": -10.6, "intermolecular_energy": 0.0, "internal_energy": -10.6, "cluster_size": 19, "cluster_id": 1, "rank_in_cluster": 1}

>  <_RMSD_MCS_to_ref>  (682) 
0.7584620403597452

$$$$
ligand
     RDKit          3D

 47 50  0  0  0  0  0  0  0  0999 V2000
   18.9090   19.1540    7.5370 C   0  0  0  0  0  0  0  0  0  0  0  0
   18.7730   17.6460    7.6780 C   0  0  0  0  0  0  0  0  0  0  0  0
   20.0880   16.9790    7.8830 C   0  0  0  0  0  0  0  0  0  0  0  0
   20.5960   16.4020    9.0290 C   0  0  0  0  0  0  0  0  0  0  0  0
   21.8290   15.9400    8.6610 N   0  0  0  0  0  0  0  0  0  0  0  0
   22.7170   14.7620    9.4970 S   0  0  0  0  0  6  0  0  0  0  0  0
   22.1580   13.4990    9.0470 O   0  0  0  0  0  0  0  0  0  0  0  0
   24.1070   15.1030    9.2450 O   0  0  0  0  0  0  0  0  0  0  0  0
   22.3300   15.0100   11.2000 C   0  0  0  0  0  0  0  0  0  0  0  0
   21.4330   14.1780   11.7530 C   0  0  0  0  0  0  0  0  0  0  0  0
   21.1180   14.3360   13.0920 N   0  0  0  0  0  0  0  0  0  0  0  0
   20.2500   13.6220   13.8400 N   0  0  0  0  0  0  0  0  0  0  0  0
   20.3220   14.1690   15.0560 C   0  0  0  0  0  0  0  0  0  0  0  0
   21.2260   15.2400   15.1120 C   0  0  0  0  0  0  0  0  0  0  0  0
   21.7260   15.3300   13.8350 C   0  0  0  0  0  0  0  0  0  0  0  0
   22.6760   16.1760   13.1670 C   0  0  0  0  0  0  0  0  0  0  0  0
   23.4080   17.2970   13.9180 C   0  0  0  0  0  0  0  0  0  0  0  0
   22.9660   17.7920   14.9410 O   0  0  0  0  0  0  0  0  0  0  0  0
   24.6110   17.6370   13.3230 N   0  0  0  0  0  0  0  0  0  0  0  0
   25.6440   18.3200   14.0800 C   0  0  2  0  0  0  0  0  0  0  0  0
   25.6450   17.8590   15.5310 C   0  0  0  0  0  0  0  0  0  0  0  0
   26.7130   18.6140   16.3060 C   0  0  0  0  0  0  0  0  0  0  0  0
   26.5230   20.1080   16.1870 C   0  0  0  0  0  0  0  0  0  0  0  0
   26.7780   20.8800   17.1050 O   0  0  0  0  0  0  0  0  0  0  0  0
   26.0730   20.5740   14.9780 N   0  0  0  0  0  0  0  0  0  0  0  0
   25.3870   19.8360   14.0440 C   0  0  0  0  0  0  0  0  0  0  0  0
   24.6260   20.3820   13.2470 O   0  0  0  0  0  0  0  0  0  0  0  0
   22.9570   16.0320   11.8990 N   0  0  0  0  0  0  0  0  0  0  0  0
   22.0180   16.2070    7.3400 C   0  0  0  0  0  0  0  0  0  0  0  0
   20.9760   16.8350    6.8350 N   0  0  0  0  0  0  0  0  0  0  0  0
   18.9504   19.6134    8.5356 H   0  0  0  0  0  0  0  0  0  0  0  0
   19.8320   19.3891    6.9867 H   0  0  0  0  0  0  0  0  0  0  0  0
   18.0430   19.5504    6.9867 H   0  0  0  0  0  0  0  0  0  0  0  0
   18.1269   17.4278    8.5411 H   0  0  0  0  0  0  0  0  0  0  0  0
   18.3394   17.2575    6.7447 H   0  0  0  0  0  0  0  0  0  0  0  0
   20.1167   16.3300   10.0165 H   0  0  0  0  0  0  0  0  0  0  0  0
   20.9579   13.3868   11.1544 H   0  0  0  0  0  0  0  0  0  0  0  0
   19.7368   13.8183   15.9188 H   0  0  0  0  0  0  0  0  0  0  0  0
   21.4777   15.8659   15.9809 H   0  0  0  0  0  0  0  0  0  0  0  0
   24.7745   17.4029   12.3334 H   0  0  0  0  0  0  0  0  0  0  0  0
   26.6184   18.0844   13.6272 H   0  0  0  0  0  0  0  0  0  0  0  0
   24.6597   18.0566   15.9784 H   0  0  0  0  0  0  0  0  0  0  0  0
   25.8585   16.7807   15.5712 H   0  0  0  0  0  0  0  0  0  0  0  0
   26.6553   18.3286   17.3668 H   0  0  0  0  0  0  0  0  0  0  0  0
   27.6961   18.3540   15.8865 H   0  0  0  0  0  0  0  0  0  0  0  0
   26.2656   21.5601   14.7513 H   0  0  0  0  0  0  0  0  0  0  0  0
   22.9192   15.9351    6.7708 H   0  0  0  0  0  0  0  0  0  0  0  0
  1  2  1  0
  2  3  1  0
  3  4  2  0
  4  5  1  0
  5  6  1  0
  6  7  2  0
  6  8  2  0
  6  9  1  0
  9 10  2  0
 10 11  1  0
 11 12  1  0
 12 13  2  0
 13 14  1  0
 14 15  2  0
 15 16  1  0
 16 17  1  0
 17 18  2  0
 17 19  1  0
 19 20  1  0
 20 21  1  0
 21 22  1  0
 22 23  1  0
 23 24  2  0
 23 25  1  0
 25 26  1  0
 26 27  2  0
 16 28  2  0
  5 29  1  0
 29 30  2  0
 30  3  1  0
 28  9  1  0
 15 11  1  0
 26 20  1  0
  1 31  1  0
  1 32  1  0
  1 33  1  0
  2 34  1  0
  2 35  1  0
  4 36  1  0
 10 37  1  0
 13 38  1  0
 14 39  1  0
 19 40  1  0
 20 41  1  6
 21 42  1  0
 21 43  1  0
 22 44  1  0
 22 45  1  0
 25 46  1  0
 29 47  1  0
M  END
>  <meeko>  (683) 
{"is_sidechain": [true], "free_energy": -10.6, "intermolecular_energy": 0.0, "internal_energy": -10.6, "cluster_size": 19, "cluster_id": 1, "rank_in_cluster": 1}

>  <_RMSD_MCS_to_ref>  (683) 
0.5393885427036805

$$$$
ligand
     RDKit          3D

 49 52  0  0  0  0  0  0  0  0999 V2000
   18.9090   19.1540    7.5370 C   0  0  0  0  0  0  0  0  0  0  0  0
   18.7730   17.6460    7.6780 C   0  0  0  0  0  0  0  0  0  0  0  0
   20.0920   16.9570    7.6320 C   0  0  0  0  0  0  0  0  0  0  0  0
   21.0430   16.8370    8.6250 C   0  0  0  0  0  0  0  0  0  0  0  0
   22.0470   16.1170    8.0440 N   0  0  0  0  0  0  0  0  0  0  0  0
   23.3470   15.4170    8.8490 S   0  0  0  0  0  6  0  0  0  0  0  0
   24.3960   16.4160    8.8670 O   0  0  0  0  0  0  0  0  0  0  0  0
   23.5160   14.1070    8.2540 O   0  0  0  0  0  0  0  0  0  0  0  0
   22.7490   15.2200   10.5110 C   0  0  0  0  0  0  0  0  0  0  0  0
   23.4340   15.8790   11.5640 C   0  0  0  0  0  0  0  0  0  0  0  0
   22.9870   15.7580   12.8910 C   0  0  0  0  0  0  0  0  0  0  0  0
   23.6450   16.4420   14.0350 C   0  0  0  0  0  0  0  0  0  0  0  0
   23.7380   15.8880   15.1240 O   0  0  0  0  0  0  0  0  0  0  0  0
   24.1000   17.7230   13.8110 N   0  0  0  0  0  0  0  0  0  0  0  0
   24.6190   18.5410   14.9010 C   0  0  1  0  0  0  0  0  0  0  0  0
   25.7300   17.8440   15.6780 C   0  0  0  0  0  0  0  0  0  0  0  0
   26.2560   18.7780   16.7560 C   0  0  0  0  0  0  0  0  0  0  0  0
   26.7150   20.0930   16.1700 C   0  0  0  0  0  0  0  0  0  0  0  0
   27.6650   20.7220   16.6250 O   0  0  0  0  0  0  0  0  0  0  0  0
   25.9960   20.5760   15.1060 N   0  0  0  0  0  0  0  0  0  0  0  0
   25.1710   19.8370   14.2970 C   0  0  0  0  0  0  0  0  0  0  0  0
   24.8920   20.2050   13.1560 O   0  0  0  0  0  0  0  0  0  0  0  0
   21.8890   14.9440   13.1040 C   0  0  0  0  0  0  0  0  0  0  0  0
   21.2280   14.6010   14.2830 N   0  0  0  0  0  0  0  0  0  0  0  0
   20.1730   13.7320   13.9860 C   0  0  0  0  0  0  0  0  0  0  0  0
   19.3950   13.2230   14.7710 O   0  0  0  0  0  0  0  0  0  0  0  0
   20.1850   13.5570   12.5920 N   0  0  0  0  0  0  0  0  0  0  0  0
   21.2360   14.2910   12.0560 C   0  0  0  0  0  0  0  0  0  0  0  0
   21.6350   14.4050   10.7460 C   0  0  0  0  0  0  0  0  0  0  0  0
   21.6870   15.7960    6.7750 C   0  0  0  0  0  0  0  0  0  0  0  0
   20.5030   16.2970    6.4910 N   0  0  0  0  0  0  0  0  0  0  0  0
   18.9504   19.6134    8.5356 H   0  0  0  0  0  0  0  0  0  0  0  0
   19.8320   19.3891    6.9867 H   0  0  0  0  0  0  0  0  0  0  0  0
   18.0430   19.5504    6.9867 H   0  0  0  0  0  0  0  0  0  0  0  0
   18.2895   17.4221    8.6403 H   0  0  0  0  0  0  0  0  0  0  0  0
   18.1706   17.2802    6.8334 H   0  0  0  0  0  0  0  0  0  0  0  0
   21.0015   17.2316    9.6509 H   0  0  0  0  0  0  0  0  0  0  0  0
   24.3215   16.4892   11.3403 H   0  0  0  0  0  0  0  0  0  0  0  0
   24.0731   18.1098   12.8568 H   0  0  0  0  0  0  0  0  0  0  0  0
   23.7987   18.7341   15.6080 H   0  0  0  0  0  0  0  0  0  0  0  0
   25.3334   16.9307   16.1455 H   0  0  0  0  0  0  0  0  0  0  0  0
   26.5474   17.5787   14.9914 H   0  0  0  0  0  0  0  0  0  0  0  0
   25.4547   18.9710   17.4845 H   0  0  0  0  0  0  0  0  0  0  0  0
   27.1172   18.2960   17.2417 H   0  0  0  0  0  0  0  0  0  0  0  0
   26.0833   21.5807   14.8966 H   0  0  0  0  0  0  0  0  0  0  0  0
   21.4775   14.9352   15.2248 H   0  0  0  0  0  0  0  0  0  0  0  0
   19.5228   12.9790   12.0551 H   0  0  0  0  0  0  0  0  0  0  0  0
   21.1102   13.8865    9.9301 H   0  0  0  0  0  0  0  0  0  0  0  0
   22.2988   15.2007    6.0812 H   0  0  0  0  0  0  0  0  0  0  0  0
  1  2  1  0
  2  3  1  0
  3  4  2  0
  4  5  1  0
  5  6  1  0
  6  7  2  0
  6  8  2  0
  6  9  1  0
  9 10  2  0
 10 11  1  0
 11 12  1  0
 12 13  2  0
 12 14  1  0
 14 15  1  0
 15 16  1  0
 16 17  1  0
 17 18  1  0
 18 19  2  0
 18 20  1  0
 20 21  1  0
 21 22  2  0
 11 23  2  0
 23 24  1  0
 24 25  1  0
 25 26  2  0
 25 27  1  0
 27 28  1  0
 28 29  2  0
  5 30  1  0
 30 31  2  0
 31  3  1  0
 29  9  1  0
 21 15  1  0
 28 23  1  0
  1 32  1  0
  1 33  1  0
  1 34  1  0
  2 35  1  0
  2 36  1  0
  4 37  1  0
 10 38  1  0
 14 39  1  0
 15 40  1  1
 16 41  1  0
 16 42  1  0
 17 43  1  0
 17 44  1  0
 20 45  1  0
 24 46  1  0
 27 47  1  0
 29 48  1  0
 30 49  1  0
M  END
>  <meeko>  (684) 
{"is_sidechain": [true], "free_energy": -10.6, "intermolecular_energy": 0.0, "internal_energy": -10.6, "cluster_size": 20, "cluster_id": 1, "rank_in_cluster": 1}

>  <_RMSD_MCS_to_ref>  (684) 
0.384850620371073

$$$$
ligand
     RDKit          3D

 48 51  0  0  0  0  0  0  0  0999 V2000
   18.9090   19.1540    7.5370 C   0  0  0  0  0  0  0  0  0  0  0  0
   18.7730   17.6460    7.6780 C   0  0  0  0  0  0  0  0  0  0  0  0
   20.0250   16.9340    7.3050 C   0  0  0  0  0  0  0  0  0  0  0  0
   20.9020   16.2420    8.1170 C   0  0  0  0  0  0  0  0  0  0  0  0
   21.8500   15.7700    7.2580 N   0  0  0  0  0  0  0  0  0  0  0  0
   23.1290   14.7360    7.6220 S   0  0  0  0  0  6  0  0  0  0  0  0
   23.7470   14.4150    6.3470 O   0  0  0  0  0  0  0  0  0  0  0  0
   22.4910   13.6820    8.3970 O   0  0  0  0  0  0  0  0  0  0  0  0
   24.2720   15.5430    8.6290 C   0  0  0  0  0  0  0  0  0  0  0  0
   25.2930   16.2030    8.0550 C   0  0  0  0  0  0  0  0  0  0  0  0
   26.2020   16.8740    8.8410 N   0  0  0  0  0  0  0  0  0  0  0  0
   26.1470   16.9350   10.2220 C   0  0  0  0  0  0  0  0  0  0  0  0
   26.9890   17.5680   10.8500 O   0  0  0  0  0  0  0  0  0  0  0  0
   25.0480   16.2170   10.8240 C   0  0  0  0  0  0  0  0  0  0  0  0
   24.6550   16.0210   12.1390 C   0  0  0  0  0  0  0  0  0  0  0  0
   25.2160   16.4540   13.4100 C   0  0  0  0  0  0  0  0  0  0  0  0
   25.1810   15.7230   14.3960 O   0  0  0  0  0  0  0  0  0  0  0  0
   25.7960   17.6940   13.4570 N   0  0  0  0  0  0  0  0  0  0  0  0
   26.4240   18.2090   14.6620 C   0  0  2  0  0  0  0  0  0  0  0  0
   25.4620   18.1660   15.8450 C   0  0  0  0  0  0  0  0  0  0  0  0
   26.1490   18.7260   17.0800 C   0  0  0  0  0  0  0  0  0  0  0  0
   26.6660   20.1240   16.8320 C   0  0  0  0  0  0  0  0  0  0  0  0
   26.7210   20.9710   17.7190 O   0  0  0  0  0  0  0  0  0  0  0  0
   27.1110   20.3980   15.5640 N   0  0  0  0  0  0  0  0  0  0  0  0
   26.8910   19.6510   14.4310 C   0  0  0  0  0  0  0  0  0  0  0  0
   27.0980   20.1280   13.3170 O   0  0  0  0  0  0  0  0  0  0  0  0
   23.4790   15.2500   12.0120 C   0  0  0  0  0  0  0  0  0  0  0  0
   23.1660   14.9690   10.7490 N   0  0  0  0  0  0  0  0  0  0  0  0
   24.1310   15.5540   10.0080 N   0  0  0  0  0  0  0  0  0  0  0  0
   21.5520   16.1760    5.9960 C   0  0  0  0  0  0  0  0  0  0  0  0
   20.4440   16.8880    5.9880 N   0  0  0  0  0  0  0  0  0  0  0  0
   18.9504   19.6134    8.5356 H   0  0  0  0  0  0  0  0  0  0  0  0
   19.8320   19.3891    6.9867 H   0  0  0  0  0  0  0  0  0  0  0  0
   18.0430   19.5504    6.9867 H   0  0  0  0  0  0  0  0  0  0  0  0
   18.5277   17.4082    8.7236 H   0  0  0  0  0  0  0  0  0  0  0  0
   17.9773   17.3123    6.9957 H   0  0  0  0  0  0  0  0  0  0  0  0
   20.8481   16.1034    9.2069 H   0  0  0  0  0  0  0  0  0  0  0  0
   25.4016   16.2067    6.9604 H   0  0  0  0  0  0  0  0  0  0  0  0
   26.9755   17.3638    8.3691 H   0  0  0  0  0  0  0  0  0  0  0  0
   25.7867   18.2807   12.6104 H   0  0  0  0  0  0  0  0  0  0  0  0
   27.2898   17.5719   14.8954 H   0  0  0  0  0  0  0  0  0  0  0  0
   24.5718   18.7701   15.6154 H   0  0  0  0  0  0  0  0  0  0  0  0
   25.1611   17.1250   16.0342 H   0  0  0  0  0  0  0  0  0  0  0  0
   25.4282   18.7522   17.9105 H   0  0  0  0  0  0  0  0  0  0  0  0
   27.0028   18.0780   17.3272 H   0  0  0  0  0  0  0  0  0  0  0  0
   27.6700   21.2553   15.4481 H   0  0  0  0  0  0  0  0  0  0  0  0
   22.8805   14.9146   12.8718 H   0  0  0  0  0  0  0  0  0  0  0  0
   22.1528   15.9424    5.1047 H   0  0  0  0  0  0  0  0  0  0  0  0
  1  2  1  0
  2  3  1  0
  3  4  2  0
  4  5  1  0
  5  6  1  0
  6  7  2  0
  6  8  2  0
  6  9  1  0
  9 10  2  0
 10 11  1  0
 11 12  1  0
 12 13  2  0
 12 14  1  0
 14 15  2  0
 15 16  1  0
 16 17  2  0
 16 18  1  0
 18 19  1  0
 19 20  1  0
 20 21  1  0
 21 22  1  0
 22 23  2  0
 22 24  1  0
 24 25  1  0
 25 26  2  0
 15 27  1  0
 27 28  2  0
 28 29  1  0
  5 30  1  0
 30 31  2  0
 31  3  1  0
 29  9  1  0
 29 14  1  0
 25 19  1  0
  1 32  1  0
  1 33  1  0
  1 34  1  0
  2 35  1  0
  2 36  1  0
  4 37  1  0
 10 38  1  0
 11 39  1  0
 18 40  1  0
 19 41  1  1
 20 42  1  0
 20 43  1  0
 21 44  1  0
 21 45  1  0
 24 46  1  0
 27 47  1  0
 30 48  1  0
M  END
>  <meeko>  (685) 
{"is_sidechain": [true], "free_energy": -10.6, "intermolecular_energy": 0.0, "internal_energy": -10.6, "cluster_size": 20, "cluster_id": 1, "rank_in_cluster": 1}

>  <_RMSD_MCS_to_ref>  (685) 
1.3166128680992155

$$$$
ligand
     RDKit          3D

 49 52  0  0  0  0  0  0  0  0999 V2000
   18.9090   19.1540    7.5370 C   0  0  0  0  0  0  0  0  0  0  0  0
   18.7730   17.6460    7.6780 C   0  0  0  0  0  0  0  0  0  0  0  0
   20.0770   16.9480    7.5180 C   0  0  0  0  0  0  0  0  0  0  0  0
   21.1130   16.8240    8.4250 C   0  0  0  0  0  0  0  0  0  0  0  0
   22.0550   16.0920    7.7600 N   0  0  0  0  0  0  0  0  0  0  0  0
   23.6040   15.7360    8.3010 S   0  0  0  0  0  6  0  0  0  0  0  0
   23.8370   14.3530    7.9230 O   0  0  0  0  0  0  0  0  0  0  0  0
   24.4260   16.8280    7.8070 O   0  0  0  0  0  0  0  0  0  0  0  0
   23.4890   15.8470   10.0720 C   0  0  0  0  0  0  0  0  0  0  0  0
   22.3970   15.3260   10.6430 N   0  0  0  0  0  0  0  0  0  0  0  0
   22.3440   15.4420   11.9800 C   0  0  0  0  0  0  0  0  0  0  0  0
   23.3060   16.0790   12.7500 C   0  0  0  0  0  0  0  0  0  0  0  0
   24.3880   16.5710   12.0360 C   0  0  0  0  0  0  0  0  0  0  0  0
   25.5330   17.2820   12.7080 C   0  0  0  0  0  0  0  0  0  0  0  0
   26.5490   17.6340   12.1240 O   0  0  0  0  0  0  0  0  0  0  0  0
   25.3420   17.5170   14.0560 N   0  0  0  0  0  0  0  0  0  0  0  0
   26.2650   18.3140   14.8450 C   0  0  2  0  0  0  0  0  0  0  0  0
   26.1140   18.0480   16.3390 C   0  0  0  0  0  0  0  0  0  0  0  0
   27.0880   18.9230   17.1120 C   0  0  0  0  0  0  0  0  0  0  0  0
   26.8950   20.3850   16.7810 C   0  0  0  0  0  0  0  0  0  0  0  0
   27.0820   21.2760   17.6020 O   0  0  0  0  0  0  0  0  0  0  0  0
   26.5290   20.6790   15.4910 N   0  0  0  0  0  0  0  0  0  0  0  0
   26.0080   19.8000   14.5730 C   0  0  0  0  0  0  0  0  0  0  0  0
   25.3940   20.2050   13.5870 O   0  0  0  0  0  0  0  0  0  0  0  0
   24.5100   16.4700   10.6840 N   0  0  0  0  0  0  0  0  0  0  0  0
   23.2170   16.2040   14.1040 O   0  0  0  0  0  0  0  0  0  0  0  0
   21.9040   15.9190   14.5970 C   0  0  0  0  0  0  0  0  0  0  0  0
   21.3580   14.6660   13.9360 C   0  0  0  0  0  0  0  0  0  0  0  0
   21.2230   14.8710   12.5270 O   0  0  0  0  0  0  0  0  0  0  0  0
   21.6030   15.8200    6.5070 C   0  0  0  0  0  0  0  0  0  0  0  0
   20.3970   16.3180    6.3300 N   0  0  0  0  0  0  0  0  0  0  0  0
   18.9504   19.6134    8.5356 H   0  0  0  0  0  0  0  0  0  0  0  0
   19.8320   19.3891    6.9867 H   0  0  0  0  0  0  0  0  0  0  0  0
   18.0430   19.5504    6.9867 H   0  0  0  0  0  0  0  0  0  0  0  0
   18.3691   17.4182    8.6755 H   0  0  0  0  0  0  0  0  0  0  0  0
   18.0998   17.2914    6.8836 H   0  0  0  0  0  0  0  0  0  0  0  0
   21.1664   17.2236    9.4485 H   0  0  0  0  0  0  0  0  0  0  0  0
   24.5152   17.1124   14.5181 H   0  0  0  0  0  0  0  0  0  0  0  0
   27.2876   18.0345   14.5515 H   0  0  0  0  0  0  0  0  0  0  0  0
   25.0852   18.2813   16.6506 H   0  0  0  0  0  0  0  0  0  0  0  0
   26.3294   16.9893   16.5459 H   0  0  0  0  0  0  0  0  0  0  0  0
   26.9248   18.7751   18.1897 H   0  0  0  0  0  0  0  0  0  0  0  0
   28.1117   18.6355   16.8302 H   0  0  0  0  0  0  0  0  0  0  0  0
   26.6575   21.6530   15.1815 H   0  0  0  0  0  0  0  0  0  0  0  0
   21.9496   15.7656   15.6853 H   0  0  0  0  0  0  0  0  0  0  0  0
   21.2412   16.7658   14.3653 H   0  0  0  0  0  0  0  0  0  0  0  0
   22.0485   13.8291   14.1171 H   0  0  0  0  0  0  0  0  0  0  0  0
   20.3702   14.4362   14.3620 H   0  0  0  0  0  0  0  0  0  0  0  0
   22.1671   15.2609    5.7459 H   0  0  0  0  0  0  0  0  0  0  0  0
  1  2  1  0
  2  3  1  0
  3  4  2  0
  4  5  1  0
  5  6  1  0
  6  7  2  0
  6  8  2  0
  6  9  1  0
  9 10  2  0
 10 11  1  0
 11 12  2  0
 12 13  1  0
 13 14  1  0
 14 15  2  0
 14 16  1  0
 16 17  1  0
 17 18  1  0
 18 19  1  0
 19 20  1  0
 20 21  2  0
 20 22  1  0
 22 23  1  0
 23 24  2  0
 13 25  2  0
 12 26  1  0
 26 27  1  0
 27 28  1  0
 28 29  1  0
  5 30  1  0
 30 31  2  0
 31  3  1  0
 25  9  1  0
 29 11  1  0
 23 17  1  0
  1 32  1  0
  1 33  1  0
  1 34  1  0
  2 35  1  0
  2 36  1  0
  4 37  1  0
 16 38  1  0
 17 39  1  6
 18 40  1  0
 18 41  1  0
 19 42  1  0
 19 43  1  0
 22 44  1  0
 27 45  1  0
 27 46  1  0
 28 47  1  0
 28 48  1  0
 30 49  1  0
M  END
>  <meeko>  (686) 
{"is_sidechain": [true], "free_energy": -10.6, "intermolecular_energy": 0.0, "internal_energy": -10.6, "cluster_size": 20, "cluster_id": 1, "rank_in_cluster": 1}

>  <_RMSD_MCS_to_ref>  (686) 
0.8795980774068215

$$$$
ligand
     RDKit          3D

 55 58  0  0  0  0  0  0  0  0999 V2000
   18.9090   19.1540    7.5370 C   0  0  0  0  0  0  0  0  0  0  0  0
   18.7730   17.6460    7.6780 C   0  0  0  0  0  0  0  0  0  0  0  0
   20.0820   16.9490    7.5550 C   0  0  0  0  0  0  0  0  0  0  0  0
   21.0540   16.7490    8.5160 C   0  0  0  0  0  0  0  0  0  0  0  0
   22.0210   16.0330    7.8700 N   0  0  0  0  0  0  0  0  0  0  0  0
   23.5450   15.6720    8.4790 S   0  0  0  0  0  6  0  0  0  0  0  0
   23.8640   14.3530    7.9660 O   0  0  0  0  0  0  0  0  0  0  0  0
   24.3710   16.8310    8.2130 O   0  0  0  0  0  0  0  0  0  0  0  0
   23.2780   15.5540   10.2290 C   0  0  0  0  0  0  0  0  0  0  0  0
   22.4010   14.5910   10.7340 C   0  0  0  0  0  0  0  0  0  0  0  0
   22.1890   14.4900   12.1180 C   0  0  0  0  0  0  0  0  0  0  0  0
   22.8970   15.3510   12.9800 C   0  0  0  0  0  0  0  0  0  0  0  0
   23.7620   16.3380   12.4730 C   0  0  0  0  0  0  0  0  0  0  0  0
   24.5190   17.3160   13.3180 C   0  0  0  0  0  0  0  0  0  0  0  0
   25.6180   17.7240   12.9520 O   0  0  0  0  0  0  0  0  0  0  0  0
   23.9380   17.7350   14.4870 N   0  0  0  0  0  0  0  0  0  0  0  0
   24.6380   18.5730   15.4450 C   0  0  1  0  0  0  0  0  0  0  0  0
   25.7960   17.8330   16.1070 C   0  0  0  0  0  0  0  0  0  0  0  0
   26.5040   18.7650   17.0770 C   0  0  0  0  0  0  0  0  0  0  0  0
   26.9650   20.0270   16.3880 C   0  0  0  0  0  0  0  0  0  0  0  0
   27.9930   20.6160   16.7080 O   0  0  0  0  0  0  0  0  0  0  0  0
   26.1560   20.5140   15.3920 N   0  0  0  0  0  0  0  0  0  0  0  0
   25.1800   19.8140   14.7270 C   0  0  0  0  0  0  0  0  0  0  0  0
   24.7690   20.1920   13.6300 O   0  0  0  0  0  0  0  0  0  0  0  0
   23.9610   16.4190   11.0870 C   0  0  0  0  0  0  0  0  0  0  0  0
   22.7100   15.2310   14.3370 O   0  0  0  0  0  0  0  0  0  0  0  0
   21.4020   15.7040   14.7090 C   0  0  0  0  0  0  0  0  0  0  0  0
   20.3640   14.5780   14.6580 C   0  0  0  0  0  0  0  0  0  0  0  0
   20.0420   14.1160   13.2990 N   0  0  0  0  0  0  0  0  0  0  0  0
   21.1960   13.4880   12.6550 C   0  0  0  0  0  0  0  0  0  0  0  0
   21.6580   15.8650    6.5720 C   0  0  0  0  0  0  0  0  0  0  0  0
   20.4780   16.4030    6.3500 N   0  0  0  0  0  0  0  0  0  0  0  0
   18.9504   19.6134    8.5356 H   0  0  0  0  0  0  0  0  0  0  0  0
   19.8320   19.3891    6.9867 H   0  0  0  0  0  0  0  0  0  0  0  0
   18.0430   19.5504    6.9867 H   0  0  0  0  0  0  0  0  0  0  0  0
   18.3428   17.4200    8.6648 H   0  0  0  0  0  0  0  0  0  0  0  0
   18.1227   17.2885    6.8660 H   0  0  0  0  0  0  0  0  0  0  0  0
   21.0500   17.0887    9.5622 H   0  0  0  0  0  0  0  0  0  0  0  0
   21.8761   13.9113   10.0466 H   0  0  0  0  0  0  0  0  0  0  0  0
   22.9713   17.4454   14.6932 H   0  0  0  0  0  0  0  0  0  0  0  0
   23.9235   18.8588   16.2310 H   0  0  0  0  0  0  0  0  0  0  0  0
   25.4090   16.9602   16.6533 H   0  0  0  0  0  0  0  0  0  0  0  0
   26.5056   17.4978   15.3362 H   0  0  0  0  0  0  0  0  0  0  0  0
   25.8104   19.0324   17.8878 H   0  0  0  0  0  0  0  0  0  0  0  0
   27.3873   18.2449   17.4760 H   0  0  0  0  0  0  0  0  0  0  0  0
   26.2941   21.4971   15.1176 H   0  0  0  0  0  0  0  0  0  0  0  0
   24.6563   17.1652   10.6749 H   0  0  0  0  0  0  0  0  0  0  0  0
   21.4444   16.1054   15.7323 H   0  0  0  0  0  0  0  0  0  0  0  0
   21.1006   16.4848   13.9952 H   0  0  0  0  0  0  0  0  0  0  0  0
   20.7541   13.7230   15.2297 H   0  0  0  0  0  0  0  0  0  0  0  0
   19.4344   14.9855   15.0819 H   0  0  0  0  0  0  0  0  0  0  0  0
   19.2750   13.4305   13.3521 H   0  0  0  0  0  0  0  0  0  0  0  0
   21.7053   12.8505   13.3927 H   0  0  0  0  0  0  0  0  0  0  0  0
   20.8200   12.9067   11.8002 H   0  0  0  0  0  0  0  0  0  0  0  0
   22.2656   15.3510    5.8126 H   0  0  0  0  0  0  0  0  0  0  0  0
  1  2  1  0
  2  3  1  0
  3  4  2  0
  4  5  1  0
  5  6  1  0
  6  7  2  0
  6  8  2  0
  6  9  1  0
  9 10  2  0
 10 11  1  0
 11 12  2  0
 12 13  1  0
 13 14  1  0
 14 15  2  0
 14 16  1  0
 16 17  1  0
 17 18  1  0
 18 19  1  0
 19 20  1  0
 20 21  2  0
 20 22  1  0
 22 23  1  0
 23 24  2  0
 13 25  2  0
 12 26  1  0
 26 27  1  0
 27 28  1  0
 28 29  1  0
 29 30  1  0
  5 31  1  0
 31 32  2  0
 32  3  1  0
 25  9  1  0
 30 11  1  0
 23 17  1  0
  1 33  1  0
  1 34  1  0
  1 35  1  0
  2 36  1  0
  2 37  1  0
  4 38  1  0
 10 39  1  0
 16 40  1  0
 17 41  1  1
 18 42  1  0
 18 43  1  0
 19 44  1  0
 19 45  1  0
 22 46  1  0
 25 47  1  0
 27 48  1  0
 27 49  1  0
 28 50  1  0
 28 51  1  0
 29 52  1  0
 30 53  1  0
 30 54  1  0
 31 55  1  0
M  END
>  <meeko>  (687) 
{"is_sidechain": [true], "free_energy": -10.6, "intermolecular_energy": 0.46, "internal_energy": -11.06, "cluster_size": 19, "cluster_id": 1, "rank_in_cluster": 1}

>  <_RMSD_MCS_to_ref>  (687) 
0.6141854587807969

$$$$
ligand
     RDKit          3D

 48 51  0  0  0  0  0  0  0  0999 V2000
   18.8250   19.0180    7.5350 C   0  0  0  0  0  0  0  0  0  0  0  0
   18.5200   17.5410    7.7330 C   0  0  0  0  0  0  0  0  0  0  0  0
   19.7320   16.7640    8.1100 C   0  0  0  0  0  0  0  0  0  0  0  0
   20.1900   16.4220    9.3660 C   0  0  0  0  0  0  0  0  0  0  0  0
   21.3380   15.7250    9.1260 N   0  0  0  0  0  0  0  0  0  0  0  0
   22.2120   14.8250   10.2400 S   0  0  0  0  0  6  0  0  0  0  0  0
   21.5950   15.1320   11.5180 O   0  0  0  0  0  0  0  0  0  0  0  0
   22.2560   13.4690    9.7240 O   0  0  0  0  0  0  0  0  0  0  0  0
   23.8530   15.4890   10.2430 C   0  0  0  0  0  0  0  0  0  0  0  0
   24.1840   16.2940   11.2250 N   0  0  0  0  0  0  0  0  0  0  0  0
   25.4580   16.8430   11.2070 C   0  0  0  0  0  0  0  0  0  0  0  0
   25.8720   17.7530   12.3420 C   0  0  0  0  0  0  0  0  0  0  0  0
   26.9690   18.2970   12.4050 O   0  0  0  0  0  0  0  0  0  0  0  0
   24.8970   17.8940   13.2980 N   0  0  0  0  0  0  0  0  0  0  0  0
   25.1320   18.5980   14.5450 C   0  0  1  0  0  0  0  0  0  0  0  0
   26.1110   17.8510   15.4440 C   0  0  0  0  0  0  0  0  0  0  0  0
   26.3330   18.6430   16.7230 C   0  0  0  0  0  0  0  0  0  0  0  0
   26.8050   20.0470   16.4250 C   0  0  0  0  0  0  0  0  0  0  0  0
   27.5720   20.6540   17.1650 O   0  0  0  0  0  0  0  0  0  0  0  0
   26.3050   20.6350   15.2910 N   0  0  0  0  0  0  0  0  0  0  0  0
   25.6920   19.9920   14.2430 C   0  0  0  0  0  0  0  0  0  0  0  0
   25.5920   20.5340   13.1430 O   0  0  0  0  0  0  0  0  0  0  0  0
   26.3660   16.6290   10.2380 C   0  0  0  0  0  0  0  0  0  0  0  0
   26.0180   15.7780    9.1640 C   0  0  0  0  0  0  0  0  0  0  0  0
   26.6700   15.3590    8.0280 C   0  0  0  0  0  0  0  0  0  0  0  0
   25.7920   14.4920    7.3430 C   0  0  0  0  0  0  0  0  0  0  0  0
   24.6310   14.4090    8.0840 C   0  0  0  0  0  0  0  0  0  0  0  0
   24.7560   15.2080    9.2020 N   0  0  0  0  0  0  0  0  0  0  0  0
   21.5350   15.6360    7.7860 C   0  0  0  0  0  0  0  0  0  0  0  0
   20.5730   16.2580    7.1380 N   0  0  0  0  0  0  0  0  0  0  0  0
   18.9258   19.5062    8.5155 H   0  0  0  0  0  0  0  0  0  0  0  0
   19.7645   19.1263    6.9731 H   0  0  0  0  0  0  0  0  0  0  0  0
   18.0053   19.4896    6.9731 H   0  0  0  0  0  0  0  0  0  0  0  0
   17.7701   17.4377    8.5311 H   0  0  0  0  0  0  0  0  0  0  0  0
   18.1454   17.1419    6.7788 H   0  0  0  0  0  0  0  0  0  0  0  0
   19.7336   16.6576   10.3387 H   0  0  0  0  0  0  0  0  0  0  0  0
   23.9672   17.4863   13.1243 H   0  0  0  0  0  0  0  0  0  0  0  0
   24.1712   18.6722   15.0754 H   0  0  0  0  0  0  0  0  0  0  0  0
   25.6987   16.8619   15.6925 H   0  0  0  0  0  0  0  0  0  0  0  0
   27.0696   17.7282   14.9186 H   0  0  0  0  0  0  0  0  0  0  0  0
   25.3867   18.6942   17.2815 H   0  0  0  0  0  0  0  0  0  0  0  0
   27.1080   18.1349   17.3156 H   0  0  0  0  0  0  0  0  0  0  0  0
   26.3982   21.6582   15.2181 H   0  0  0  0  0  0  0  0  0  0  0  0
   27.3567   17.1052   10.2802 H   0  0  0  0  0  0  0  0  0  0  0  0
   27.6842   15.6455    7.7128 H   0  0  0  0  0  0  0  0  0  0  0  0
   25.9958   13.9769    6.3927 H   0  0  0  0  0  0  0  0  0  0  0  0
   23.7493   13.8043    7.8255 H   0  0  0  0  0  0  0  0  0  0  0  0
   22.3795   15.1172    7.3089 H   0  0  0  0  0  0  0  0  0  0  0  0
  1  2  1  0
  2  3  1  0
  3  4  2  0
  4  5  1  0
  5  6  1  0
  6  7  2  0
  6  8  2  0
  6  9  1  0
  9 10  2  0
 10 11  1  0
 11 12  1  0
 12 13  2  0
 12 14  1  0
 14 15  1  0
 15 16  1  0
 16 17  1  0
 17 18  1  0
 18 19  2  0
 18 20  1  0
 20 21  1  0
 21 22  2  0
 11 23  2  0
 23 24  1  0
 24 25  2  0
 25 26  1  0
 26 27  2  0
 27 28  1  0
  5 29  1  0
 29 30  2  0
 30  3  1  0
 28  9  1  0
 21 15  1  0
 28 24  1  0
  1 31  1  0
  1 32  1  0
  1 33  1  0
  2 34  1  0
  2 35  1  0
  4 36  1  0
 14 37  1  0
 15 38  1  1
 16 39  1  0
 16 40  1  0
 17 41  1  0
 17 42  1  0
 20 43  1  0
 23 44  1  0
 25 45  1  0
 26 46  1  0
 27 47  1  0
 29 48  1  0
M  END
>  <meeko>  (688) 
{"is_sidechain": [true], "free_energy": -10.59, "intermolecular_energy": 0.0, "internal_energy": -10.59, "cluster_size": 13, "cluster_id": 1, "rank_in_cluster": 1}

>  <_RMSD_MCS_to_ref>  (688) 
0.5567677552923953

$$$$
ligand
     RDKit          3D

 54 58  0  0  0  0  0  0  0  0999 V2000
   18.7970   18.8170    7.7190 C   0  0  0  0  0  0  0  0  0  0  0  0
   18.5280   17.3290    7.8810 C   0  0  0  0  0  0  0  0  0  0  0  0
   19.7710   16.5180    7.7640 C   0  0  0  0  0  0  0  0  0  0  0  0
   20.7040   16.2160    8.7370 C   0  0  0  0  0  0  0  0  0  0  0  0
   21.6330   15.4560    8.0840 N   0  0  0  0  0  0  0  0  0  0  0  0
   22.9610   14.6910    8.7770 S   0  0  0  0  0  6  0  0  0  0  0  0
   23.7860   14.2960    7.6500 O   0  0  0  0  0  0  0  0  0  0  0  0
   23.4300   15.6030    9.8040 O   0  0  0  0  0  0  0  0  0  0  0  0
   22.3170   13.2480    9.5530 C   0  0  0  0  0  0  0  0  0  0  0  0
   21.4430   12.5270    8.7910 N   0  0  0  0  0  0  0  0  0  0  0  0
   20.9860   11.3930    9.3670 C   0  0  0  0  0  0  0  0  0  0  0  0
   21.3830   10.9990   10.6310 C   0  0  0  0  0  0  0  0  0  0  0  0
   22.2510   11.7240   11.3770 N   0  0  0  0  0  0  0  0  0  0  0  0
   22.7260   12.8770   10.8280 C   0  0  0  0  0  0  0  0  0  0  0  0
   23.6660   13.6110   11.6790 C   0  0  0  0  0  0  0  0  0  0  0  0
   25.0410   13.2670   11.7230 C   0  0  0  0  0  0  0  0  0  0  0  0
   25.9520   13.9550   12.5380 C   0  0  0  0  0  0  0  0  0  0  0  0
   25.4770   15.0010   13.3050 C   0  0  0  0  0  0  0  0  0  0  0  0
   24.1310   15.3530   13.2490 C   0  0  0  0  0  0  0  0  0  0  0  0
   23.2140   14.6930   12.4530 C   0  0  0  0  0  0  0  0  0  0  0  0
   23.9200   16.4920   14.1480 C   0  0  0  0  0  0  0  0  0  0  0  0
   22.8670   17.0820   14.2960 O   0  0  0  0  0  0  0  0  0  0  0  0
   25.1330   16.7410   14.7730 N   0  0  0  0  0  0  0  0  0  0  0  0
   25.3650   17.9470   15.5570 C   0  0  1  0  0  0  0  0  0  0  0  0
   26.1960   17.6770   16.8090 C   0  0  0  0  0  0  0  0  0  0  0  0
   26.3160   18.9580   17.6210 C   0  0  0  0  0  0  0  0  0  0  0  0
   26.8930   20.0790   16.7890 C   0  0  0  0  0  0  0  0  0  0  0  0
   27.6490   20.9230   17.2590 O   0  0  0  0  0  0  0  0  0  0  0  0
   26.5150   20.1220   15.4710 N   0  0  0  0  0  0  0  0  0  0  0  0
   26.0430   19.0570   14.7380 C   0  0  0  0  0  0  0  0  0  0  0  0
   26.1870   19.0330   13.5170 O   0  0  0  0  0  0  0  0  0  0  0  0
   26.2050   15.9080   14.2390 C   0  0  0  0  0  0  0  0  0  0  0  0
   21.2440   15.2910    6.7930 C   0  0  0  0  0  0  0  0  0  0  0  0
   20.1190   15.9370    6.5610 N   0  0  0  0  0  0  0  0  0  0  0  0
   18.8815   19.2845    8.7111 H   0  0  0  0  0  0  0  0  0  0  0  0
   19.7359   18.9616    7.1643 H   0  0  0  0  0  0  0  0  0  0  0  0
   17.9682   19.2812    7.1643 H   0  0  0  0  0  0  0  0  0  0  0  0
   18.0832   17.1550    8.8719 H   0  0  0  0  0  0  0  0  0  0  0  0
   17.8450   17.0192    7.0763 H   0  0  0  0  0  0  0  0  0  0  0  0
   20.7000   16.5180    9.7947 H   0  0  0  0  0  0  0  0  0  0  0  0
   20.2751   10.7632    8.8120 H   0  0  0  0  0  0  0  0  0  0  0  0
   20.9798   10.0635   11.0460 H   0  0  0  0  0  0  0  0  0  0  0  0
   25.4038   12.4363   11.0998 H   0  0  0  0  0  0  0  0  0  0  0  0
   27.0140   13.6698   12.5655 H   0  0  0  0  0  0  0  0  0  0  0  0
   22.1598   15.0060   12.4262 H   0  0  0  0  0  0  0  0  0  0  0  0
   24.3646   18.2890   15.8608 H   0  0  0  0  0  0  0  0  0  0  0  0
   25.7045   16.9023   17.4159 H   0  0  0  0  0  0  0  0  0  0  0  0
   27.1987   17.3312   16.5173 H   0  0  0  0  0  0  0  0  0  0  0  0
   25.3176   19.2523   17.9769 H   0  0  0  0  0  0  0  0  0  0  0  0
   26.9903   18.7710   18.4698 H   0  0  0  0  0  0  0  0  0  0  0  0
   26.5909   21.0289   14.9887 H   0  0  0  0  0  0  0  0  0  0  0  0
   26.9501   16.5146   13.7035 H   0  0  0  0  0  0  0  0  0  0  0  0
   26.7720   15.3734   15.0153 H   0  0  0  0  0  0  0  0  0  0  0  0
   21.7922   14.6999    6.0447 H   0  0  0  0  0  0  0  0  0  0  0  0
  1  2  1  0
  2  3  1  0
  3  4  2  0
  4  5  1  0
  5  6  1  0
  6  7  2  0
  6  8  2  0
  6  9  1  0
  9 10  2  0
 10 11  1  0
 11 12  2  0
 12 13  1  0
 13 14  2  0
 14 15  1  0
 15 16  2  0
 16 17  1  0
 17 18  2  0
 18 19  1  0
 19 20  2  0
 19 21  1  0
 21 22  2  0
 21 23  1  0
 23 24  1  0
 24 25  1  0
 25 26  1  0
 26 27  1  0
 27 28  2  0
 27 29  1  0
 29 30  1  0
 30 31  2  0
 23 32  1  0
  5 33  1  0
 33 34  2  0
 34  3  1  0
 14  9  1  0
 20 15  1  0
 30 24  1  0
 32 18  1  0
  1 35  1  0
  1 36  1  0
  1 37  1  0
  2 38  1  0
  2 39  1  0
  4 40  1  0
 11 41  1  0
 12 42  1  0
 16 43  1  0
 17 44  1  0
 20 45  1  0
 24 46  1  1
 25 47  1  0
 25 48  1  0
 26 49  1  0
 26 50  1  0
 29 51  1  0
 32 52  1  0
 32 53  1  0
 33 54  1  0
M  END
>  <meeko>  (689) 
{"is_sidechain": [true], "free_energy": -10.59, "intermolecular_energy": 0.0, "internal_energy": -10.59, "cluster_size": 18, "cluster_id": 1, "rank_in_cluster": 1}

>  <_RMSD_MCS_to_ref>  (689) 
1.353110552270829

$$$$
ligand
     RDKit          3D

 46 49  0  0  0  0  0  0  0  0999 V2000
   18.7970   18.8170    7.7190 C   0  0  0  0  0  0  0  0  0  0  0  0
   18.5280   17.3290    7.8810 C   0  0  0  0  0  0  0  0  0  0  0  0
   19.7840   16.5370    7.9750 C   0  0  0  0  0  0  0  0  0  0  0  0
   20.2240   15.7230    9.0010 C   0  0  0  0  0  0  0  0  0  0  0  0
   21.4420   15.2760    8.5750 N   0  0  0  0  0  0  0  0  0  0  0  0
   22.3230   14.0140    9.2700 S   0  0  0  0  0  6  0  0  0  0  0  0
   21.3110   13.0640    9.6930 O   0  0  0  0  0  0  0  0  0  0  0  0
   23.2920   13.6490    8.2540 O   0  0  0  0  0  0  0  0  0  0  0  0
   23.1320   14.6800   10.6410 C   0  0  0  0  0  0  0  0  0  0  0  0
   24.3810   15.1750   10.4940 C   0  0  0  0  0  0  0  0  0  0  0  0
   25.1350   15.7070   11.5340 N   0  0  0  0  0  0  0  0  0  0  0  0
   24.5990   15.7060   12.7300 C   0  0  0  0  0  0  0  0  0  0  0  0
   25.3760   16.2580   13.9060 C   0  0  0  0  0  0  0  0  0  0  0  0
   25.8520   15.5080   14.7410 O   0  0  0  0  0  0  0  0  0  0  0  0
   25.5200   17.6280   13.8860 N   0  0  0  0  0  0  0  0  0  0  0  0
   26.4010   18.3020   14.8270 C   0  0  2  0  0  0  0  0  0  0  0  0
   26.0620   17.9690   16.2760 C   0  0  0  0  0  0  0  0  0  0  0  0
   26.9910   18.7360   17.2050 C   0  0  0  0  0  0  0  0  0  0  0  0
   26.9300   20.2220   16.9400 C   0  0  0  0  0  0  0  0  0  0  0  0
   27.0680   21.0560   17.8290 O   0  0  0  0  0  0  0  0  0  0  0  0
   26.7430   20.6070   15.6360 N   0  0  0  0  0  0  0  0  0  0  0  0
   26.2720   19.8140   14.6190 C   0  0  0  0  0  0  0  0  0  0  0  0
   25.7920   20.3050   13.5980 O   0  0  0  0  0  0  0  0  0  0  0  0
   23.2750   15.2190   12.9610 C   0  0  0  0  0  0  0  0  0  0  0  0
   22.5630   15.1840   14.0590 N   0  0  0  0  0  0  0  0  0  0  0  0
   21.3460   14.6310   13.7280 N   0  0  0  0  0  0  0  0  0  0  0  0
   21.3560   14.3630   12.4390 C   0  0  0  0  0  0  0  0  0  0  0  0
   22.5610   14.7160   11.9020 N   0  0  0  0  0  0  0  0  0  0  0  0
   21.6820   15.7600    7.3280 C   0  0  0  0  0  0  0  0  0  0  0  0
   20.6960   16.5380    6.9380 N   0  0  0  0  0  0  0  0  0  0  0  0
   18.8815   19.2845    8.7111 H   0  0  0  0  0  0  0  0  0  0  0  0
   19.7359   18.9616    7.1643 H   0  0  0  0  0  0  0  0  0  0  0  0
   17.9682   19.2812    7.1643 H   0  0  0  0  0  0  0  0  0  0  0  0
   17.9415   17.1730    8.7984 H   0  0  0  0  0  0  0  0  0  0  0  0
   17.9791   16.9866    6.9914 H   0  0  0  0  0  0  0  0  0  0  0  0
   19.7106   15.4886    9.9452 H   0  0  0  0  0  0  0  0  0  0  0  0
   24.8287   15.1558    9.4894 H   0  0  0  0  0  0  0  0  0  0  0  0
   24.9961   18.1832   13.1945 H   0  0  0  0  0  0  0  0  0  0  0  0
   27.4286   17.9579   14.6383 H   0  0  0  0  0  0  0  0  0  0  0  0
   25.0199   18.2536   16.4832 H   0  0  0  0  0  0  0  0  0  0  0  0
   26.1879   16.8890   16.4424 H   0  0  0  0  0  0  0  0  0  0  0  0
   26.6931   18.5455   18.2466 H   0  0  0  0  0  0  0  0  0  0  0  0
   28.0209   18.3938   17.0253 H   0  0  0  0  0  0  0  0  0  0  0  0
   26.9778   21.5813   15.3983 H   0  0  0  0  0  0  0  0  0  0  0  0
   20.5191   13.9209   11.8785 H   0  0  0  0  0  0  0  0  0  0  0  0
   22.5760   15.5328    6.7287 H   0  0  0  0  0  0  0  0  0  0  0  0
  1  2  1  0
  2  3  1  0
  3  4  2  0
  4  5  1  0
  5  6  1  0
  6  7  2  0
  6  8  2  0
  6  9  1  0
  9 10  2  0
 10 11  1  0
 11 12  2  0
 12 13  1  0
 13 14  2  0
 13 15  1  0
 15 16  1  0
 16 17  1  0
 17 18  1  0
 18 19  1  0
 19 20  2  0
 19 21  1  0
 21 22  1  0
 22 23  2  0
 12 24  1  0
 24 25  2  0
 25 26  1  0
 26 27  2  0
 27 28  1  0
  5 29  1  0
 29 30  2  0
 30  3  1  0
 28  9  1  0
 22 16  1  0
 28 24  1  0
  1 31  1  0
  1 32  1  0
  1 33  1  0
  2 34  1  0
  2 35  1  0
  4 36  1  0
 10 37  1  0
 15 38  1  0
 16 39  1  6
 17 40  1  0
 17 41  1  0
 18 42  1  0
 18 43  1  0
 21 44  1  0
 27 45  1  0
 29 46  1  0
M  END
>  <meeko>  (690) 
{"is_sidechain": [true], "free_energy": -10.59, "intermolecular_energy": 0.0, "internal_energy": -10.59, "cluster_size": 20, "cluster_id": 1, "rank_in_cluster": 1}

>  <_RMSD_MCS_to_ref>  (690) 
0.8216839754769194

$$$$
ligand
     RDKit          3D

 53 57  0  0  0  0  0  0  0  0999 V2000
   18.7970   18.8170    7.7190 C   0  0  0  0  0  0  0  0  0  0  0  0
   18.5280   17.3290    7.8810 C   0  0  0  0  0  0  0  0  0  0  0  0
   19.7040   16.5020    7.5010 C   0  0  0  0  0  0  0  0  0  0  0  0
   20.8430   16.2230    8.2320 C   0  0  0  0  0  0  0  0  0  0  0  0
   21.5780   15.4150    7.4130 N   0  0  0  0  0  0  0  0  0  0  0  0
   23.1650   14.9470    7.6870 S   0  0  0  0  0  6  0  0  0  0  0  0
   23.7030   14.6000    6.3870 O   0  0  0  0  0  0  0  0  0  0  0  0
   23.7590   15.9450    8.5520 O   0  0  0  0  0  0  0  0  0  0  0  0
   23.1840   13.4950    8.5870 C   0  0  0  0  0  0  0  0  0  0  0  0
   23.0740   12.2040    8.0490 C   0  0  0  0  0  0  0  0  0  0  0  0
   23.0950   11.2650    8.9990 N   0  0  0  0  0  0  0  0  0  0  0  0
   23.2510   11.9620   10.1390 N   0  0  0  0  0  0  0  0  0  0  0  0
   23.2910   13.3210    9.9540 C   0  0  0  0  0  0  0  0  0  0  0  0
   23.4420   14.2610   11.0470 C   0  0  0  0  0  0  0  0  0  0  0  0
   22.2970   14.7250   11.7320 C   0  0  0  0  0  0  0  0  0  0  0  0
   22.4170   15.6000   12.8140 C   0  0  0  0  0  0  0  0  0  0  0  0
   23.6930   15.9710   13.1900 C   0  0  0  0  0  0  0  0  0  0  0  0
   24.8340   15.5210   12.5310 C   0  0  0  0  0  0  0  0  0  0  0  0
   24.7250   14.6720   11.4420 C   0  0  0  0  0  0  0  0  0  0  0  0
   26.0520   16.0840   13.1820 C   0  0  0  0  0  0  0  0  0  0  0  0
   25.5010   16.8240   14.3080 N   0  0  0  0  0  0  0  0  0  0  0  0
   26.3320   17.7200   15.1050 C   0  0  2  0  0  0  0  0  0  0  0  0
   25.9490   17.7650   16.5840 C   0  0  0  0  0  0  0  0  0  0  0  0
   26.9130   18.6790   17.3250 C   0  0  0  0  0  0  0  0  0  0  0  0
   26.9310   20.0630   16.7190 C   0  0  0  0  0  0  0  0  0  0  0  0
   27.2850   21.0520   17.3560 O   0  0  0  0  0  0  0  0  0  0  0  0
   26.6130   20.1590   15.3870 N   0  0  0  0  0  0  0  0  0  0  0  0
   26.3470   19.1350   14.5070 C   0  0  0  0  0  0  0  0  0  0  0  0
   26.2380   19.3640   13.3020 O   0  0  0  0  0  0  0  0  0  0  0  0
   24.1150   16.8520   14.2840 C   0  0  0  0  0  0  0  0  0  0  0  0
   23.3550   17.4830   14.9930 O   0  0  0  0  0  0  0  0  0  0  0  0
   20.9170   15.2510    6.2390 C   0  0  0  0  0  0  0  0  0  0  0  0
   19.7710   15.9020    6.2580 N   0  0  0  0  0  0  0  0  0  0  0  0
   18.8815   19.2845    8.7111 H   0  0  0  0  0  0  0  0  0  0  0  0
   19.7359   18.9616    7.1643 H   0  0  0  0  0  0  0  0  0  0  0  0
   17.9682   19.2812    7.1643 H   0  0  0  0  0  0  0  0  0  0  0  0
   18.2773   17.1266    8.9327 H   0  0  0  0  0  0  0  0  0  0  0  0
   17.6961   17.0611    7.2130 H   0  0  0  0  0  0  0  0  0  0  0  0
   21.0991   16.5723    9.2432 H   0  0  0  0  0  0  0  0  0  0  0  0
   22.9815   11.9905    6.9739 H   0  0  0  0  0  0  0  0  0  0  0  0
   23.3328   11.5170   11.0643 H   0  0  0  0  0  0  0  0  0  0  0  0
   21.2991   14.3932   11.4094 H   0  0  0  0  0  0  0  0  0  0  0  0
   21.5311   15.9783   13.3451 H   0  0  0  0  0  0  0  0  0  0  0  0
   25.6195   14.3291   10.9013 H   0  0  0  0  0  0  0  0  0  0  0  0
   26.7244   15.2836   13.5244 H   0  0  0  0  0  0  0  0  0  0  0  0
   26.6596   16.7050   12.5073 H   0  0  0  0  0  0  0  0  0  0  0  0
   27.3473   17.2986   15.0648 H   0  0  0  0  0  0  0  0  0  0  0  0
   24.9241   18.1511   16.6866 H   0  0  0  0  0  0  0  0  0  0  0  0
   26.0010   16.7519   17.0093 H   0  0  0  0  0  0  0  0  0  0  0  0
   26.6005   18.7523   18.3771 H   0  0  0  0  0  0  0  0  0  0  0  0
   27.9242   18.2529   17.2488 H   0  0  0  0  0  0  0  0  0  0  0  0
   26.5681   21.1123   14.9996 H   0  0  0  0  0  0  0  0  0  0  0  0
   21.2863   14.6574    5.3897 H   0  0  0  0  0  0  0  0  0  0  0  0
  1  2  1  0
  2  3  1  0
  3  4  2  0
  4  5  1  0
  5  6  1  0
  6  7  2  0
  6  8  2  0
  6  9  1  0
  9 10  1  0
 10 11  2  0
 11 12  1  0
 12 13  1  0
 13 14  1  0
 14 15  2  0
 15 16  1  0
 16 17  2  0
 17 18  1  0
 18 19  2  0
 18 20  1  0
 20 21  1  0
 21 22  1  0
 22 23  1  0
 23 24  1  0
 24 25  1  0
 25 26  2  0
 25 27  1  0
 27 28  1  0
 28 29  2  0
 21 30  1  0
 30 31  2  0
  5 32  1  0
 32 33  2  0
 33  3  1  0
 13  9  2  0
 19 14  1  0
 28 22  1  0
 30 17  1  0
  1 34  1  0
  1 35  1  0
  1 36  1  0
  2 37  1  0
  2 38  1  0
  4 39  1  0
 10 40  1  0
 12 41  1  0
 15 42  1  0
 16 43  1  0
 19 44  1  0
 20 45  1  0
 20 46  1  0
 22 47  1  1
 23 48  1  0
 23 49  1  0
 24 50  1  0
 24 51  1  0
 27 52  1  0
 32 53  1  0
M  END
>  <meeko>  (691) 
{"is_sidechain": [true], "free_energy": -10.59, "intermolecular_energy": 0.0, "internal_energy": -10.59, "cluster_size": 20, "cluster_id": 1, "rank_in_cluster": 1}

>  <_RMSD_MCS_to_ref>  (691) 
1.1202734041295455

$$$$
ligand
     RDKit          3D

 54 58  0  0  0  0  0  0  0  0999 V2000
   18.7970   18.8160    7.7190 C   0  0  0  0  0  0  0  0  0  0  0  0
   18.5280   17.3300    7.8810 C   0  0  0  0  0  0  0  0  0  0  0  0
   19.7420   16.5060    7.6310 C   0  0  0  0  0  0  0  0  0  0  0  0
   20.9460   16.5050    8.3070 C   0  0  0  0  0  0  0  0  0  0  0  0
   21.6900   15.5570    7.6640 N   0  0  0  0  0  0  0  0  0  0  0  0
   23.2840   15.1670    8.0140 S   0  0  0  0  0  6  0  0  0  0  0  0
   23.7240   16.0680    9.0600 O   0  0  0  0  0  0  0  0  0  0  0  0
   23.9280   15.1400    6.7130 O   0  0  0  0  0  0  0  0  0  0  0  0
   23.2610   13.5410    8.6410 C   0  0  0  0  0  0  0  0  0  0  0  0
   23.1640   12.4910    7.7550 C   0  0  0  0  0  0  0  0  0  0  0  0
   23.0850   11.2020    8.1400 N   0  0  0  0  0  0  0  0  0  0  0  0
   23.1120   10.9820    9.4600 C   0  0  0  0  0  0  0  0  0  0  0  0
   23.2070   11.9300   10.4020 N   0  0  0  0  0  0  0  0  0  0  0  0
   23.3000   13.2160    9.9830 C   0  0  0  0  0  0  0  0  0  0  0  0
   23.4390   14.1700   11.0880 C   0  0  0  0  0  0  0  0  0  0  0  0
   22.2960   14.6760   11.7560 C   0  0  0  0  0  0  0  0  0  0  0  0
   22.4120   15.5720   12.8220 C   0  0  0  0  0  0  0  0  0  0  0  0
   23.6860   15.9460   13.2000 C   0  0  0  0  0  0  0  0  0  0  0  0
   24.8270   15.4840   12.5530 C   0  0  0  0  0  0  0  0  0  0  0  0
   24.7190   14.6110   11.4820 C   0  0  0  0  0  0  0  0  0  0  0  0
   26.0430   16.0680   13.1880 C   0  0  0  0  0  0  0  0  0  0  0  0
   25.4910   16.8190   14.3070 N   0  0  0  0  0  0  0  0  0  0  0  0
   26.3200   17.7200   15.0990 C   0  0  2  0  0  0  0  0  0  0  0  0
   25.9410   17.7640   16.5790 C   0  0  0  0  0  0  0  0  0  0  0  0
   26.9030   18.6820   17.3180 C   0  0  0  0  0  0  0  0  0  0  0  0
   26.9120   20.0670   16.7120 C   0  0  0  0  0  0  0  0  0  0  0  0
   27.2660   21.0550   17.3480 O   0  0  0  0  0  0  0  0  0  0  0  0
   26.5870   20.1590   15.3820 N   0  0  0  0  0  0  0  0  0  0  0  0
   26.3290   19.1350   14.5010 C   0  0  0  0  0  0  0  0  0  0  0  0
   26.2240   19.3640   13.2960 O   0  0  0  0  0  0  0  0  0  0  0  0
   24.1040   16.8450   14.2810 C   0  0  0  0  0  0  0  0  0  0  0  0
   23.3440   17.4810   14.9830 O   0  0  0  0  0  0  0  0  0  0  0  0
   20.9480   15.0040    6.6710 C   0  0  0  0  0  0  0  0  0  0  0  0
   19.7650   15.5810    6.6070 N   0  0  0  0  0  0  0  0  0  0  0  0
   18.8816   19.2836    8.7111 H   0  0  0  0  0  0  0  0  0  0  0  0
   19.7359   18.9603    7.1643 H   0  0  0  0  0  0  0  0  0  0  0  0
   17.9683   19.2803    7.1643 H   0  0  0  0  0  0  0  0  0  0  0  0
   18.1790   17.1435    8.9073 H   0  0  0  0  0  0  0  0  0  0  0  0
   17.7676   17.0427    7.1398 H   0  0  0  0  0  0  0  0  0  0  0  0
   21.2390   17.1256    9.1666 H   0  0  0  0  0  0  0  0  0  0  0  0
   23.1503   12.7160    6.6783 H   0  0  0  0  0  0  0  0  0  0  0  0
   23.0512    9.9374    9.7992 H   0  0  0  0  0  0  0  0  0  0  0  0
   21.2958   14.3564   11.4282 H   0  0  0  0  0  0  0  0  0  0  0  0
   21.5237   15.9637   13.3393 H   0  0  0  0  0  0  0  0  0  0  0  0
   25.6173   14.2677   10.9480 H   0  0  0  0  0  0  0  0  0  0  0  0
   26.7254   15.2793   13.5378 H   0  0  0  0  0  0  0  0  0  0  0  0
   26.6405   16.6850   12.5008 H   0  0  0  0  0  0  0  0  0  0  0  0
   27.3371   17.3034   15.0539 H   0  0  0  0  0  0  0  0  0  0  0  0
   24.9148   18.1460   16.6842 H   0  0  0  0  0  0  0  0  0  0  0  0
   25.9987   16.7511   17.0041 H   0  0  0  0  0  0  0  0  0  0  0  0
   26.5933   18.7532   18.3711 H   0  0  0  0  0  0  0  0  0  0  0  0
   27.9161   18.2608   17.2391 H   0  0  0  0  0  0  0  0  0  0  0  0
   26.5292   21.1122   14.9961 H   0  0  0  0  0  0  0  0  0  0  0  0
   21.2862   14.1898    6.0131 H   0  0  0  0  0  0  0  0  0  0  0  0
  1  2  1  0
  2  3  1  0
  3  4  2  0
  4  5  1  0
  5  6  1  0
  6  7  2  0
  6  8  2  0
  6  9  1  0
  9 10  2  0
 10 11  1  0
 11 12  2  0
 12 13  1  0
 13 14  2  0
 14 15  1  0
 15 16  2  0
 16 17  1  0
 17 18  2  0
 18 19  1  0
 19 20  2  0
 19 21  1  0
 21 22  1  0
 22 23  1  0
 23 24  1  0
 24 25  1  0
 25 26  1  0
 26 27  2  0
 26 28  1  0
 28 29  1  0
 29 30  2  0
 22 31  1  0
 31 32  2  0
  5 33  1  0
 33 34  2  0
 34  3  1  0
 14  9  1  0
 20 15  1  0
 29 23  1  0
 31 18  1  0
  1 35  1  0
  1 36  1  0
  1 37  1  0
  2 38  1  0
  2 39  1  0
  4 40  1  0
 10 41  1  0
 12 42  1  0
 16 43  1  0
 17 44  1  0
 20 45  1  0
 21 46  1  0
 21 47  1  0
 23 48  1  1
 24 49  1  0
 24 50  1  0
 25 51  1  0
 25 52  1  0
 28 53  1  0
 33 54  1  0
M  END
>  <meeko>  (692) 
{"is_sidechain": [true], "free_energy": -10.59, "intermolecular_energy": 0.0, "internal_energy": -10.59, "cluster_size": 17, "cluster_id": 1, "rank_in_cluster": 1}

>  <_RMSD_MCS_to_ref>  (692) 
1.1311000054028033

$$$$
ligand
     RDKit          3D

 58 62  0  0  0  0  0  0  0  0999 V2000
   18.9090   19.1540    7.5370 C   0  0  0  0  0  0  0  0  0  0  0  0
   18.7730   17.6460    7.6780 C   0  0  0  0  0  0  0  0  0  0  0  0
   20.0910   16.9570    7.6400 C   0  0  0  0  0  0  0  0  0  0  0  0
   20.9930   16.7490    8.6660 C   0  0  0  0  0  0  0  0  0  0  0  0
   22.0100   16.0510    8.0820 N   0  0  0  0  0  0  0  0  0  0  0  0
   23.4900   15.6800    8.7850 S   0  0  0  0  0  6  0  0  0  0  0  0
   24.3410   16.8260    8.5150 O   0  0  0  0  0  0  0  0  0  0  0  0
   23.8260   14.3400    8.3540 O   0  0  0  0  0  0  0  0  0  0  0  0
   23.1460   15.6490   10.5250 C   0  0  0  0  0  0  0  0  0  0  0  0
   23.9100   16.4550   11.3830 C   0  0  0  0  0  0  0  0  0  0  0  0
   23.6910   16.4470   12.7650 C   0  0  0  0  0  0  0  0  0  0  0  0
   24.5510   17.3220   13.6110 C   0  0  0  0  0  0  0  0  0  0  0  0
   25.7720   17.2650   13.5130 O   0  0  0  0  0  0  0  0  0  0  0  0
   23.9130   18.1420   14.5140 N   0  0  0  0  0  0  0  0  0  0  0  0
   24.6700   18.9180   15.4880 C   0  0  1  0  0  0  0  0  0  0  0  0
   25.6940   18.0710   16.2350 C   0  0  0  0  0  0  0  0  0  0  0  0
   26.4750   18.9510   17.1990 C   0  0  0  0  0  0  0  0  0  0  0  0
   27.1210   20.1130   16.4820 C   0  0  0  0  0  0  0  0  0  0  0  0
   28.2010   20.5810   16.8260 O   0  0  0  0  0  0  0  0  0  0  0  0
   26.4230   20.6510   15.4310 N   0  0  0  0  0  0  0  0  0  0  0  0
   25.4000   20.0430   14.7470 C   0  0  0  0  0  0  0  0  0  0  0  0
   25.0910   20.4000   13.6100 O   0  0  0  0  0  0  0  0  0  0  0  0
   22.6700   15.6530   13.3160 C   0  0  0  0  0  0  0  0  0  0  0  0
   21.8800   14.8460   12.4700 C   0  0  0  0  0  0  0  0  0  0  0  0
   20.7950   13.9510   12.6860 C   0  0  0  0  0  0  0  0  0  0  0  0
   20.4200   13.4660   11.4510 C   0  0  0  0  0  0  0  0  0  0  0  0
   21.2190   14.0140   10.4950 N   0  0  0  0  0  0  0  0  0  0  0  0
   22.1320   14.8640   11.0940 C   0  0  0  0  0  0  0  0  0  0  0  0
   19.3230   12.4840   11.2280 C   0  0  0  0  0  0  0  0  0  0  0  0
   18.5200   12.3320   12.5460 C   0  0  0  0  0  0  0  0  0  0  0  0
   19.3770   12.2860   13.7550 N   0  0  0  0  0  0  0  0  0  0  0  0
   20.0950   13.5650   13.9520 C   0  0  0  0  0  0  0  0  0  0  0  0
   21.7430   15.8970    6.7590 C   0  0  0  0  0  0  0  0  0  0  0  0
   20.5760   16.4290    6.4590 N   0  0  0  0  0  0  0  0  0  0  0  0
   18.9504   19.6134    8.5356 H   0  0  0  0  0  0  0  0  0  0  0  0
   19.8320   19.3891    6.9867 H   0  0  0  0  0  0  0  0  0  0  0  0
   18.0430   19.5504    6.9867 H   0  0  0  0  0  0  0  0  0  0  0  0
   18.2840   17.4226    8.6377 H   0  0  0  0  0  0  0  0  0  0  0  0
   18.1760   17.2800    6.8297 H   0  0  0  0  0  0  0  0  0  0  0  0
   20.9102   17.0722    9.7142 H   0  0  0  0  0  0  0  0  0  0  0  0
   24.6931   17.1031   10.9626 H   0  0  0  0  0  0  0  0  0  0  0  0
   22.8852   18.2081   14.5011 H   0  0  0  0  0  0  0  0  0  0  0  0
   23.9637   19.3155   16.2317 H   0  0  0  0  0  0  0  0  0  0  0  0
   25.1754   17.2810   16.7980 H   0  0  0  0  0  0  0  0  0  0  0  0
   26.3869   17.6133   15.5136 H   0  0  0  0  0  0  0  0  0  0  0  0
   25.7884   19.3400   17.9654 H   0  0  0  0  0  0  0  0  0  0  0  0
   27.2680   18.3430   17.6589 H   0  0  0  0  0  0  0  0  0  0  0  0
   26.6910   21.5980   15.1272 H   0  0  0  0  0  0  0  0  0  0  0  0
   22.4880   15.6608   14.4008 H   0  0  0  0  0  0  0  0  0  0  0  0
   21.1542   13.8256    9.4845 H   0  0  0  0  0  0  0  0  0  0  0  0
   18.6589   12.8453   10.4290 H   0  0  0  0  0  0  0  0  0  0  0  0
   19.7433   11.5122   10.9296 H   0  0  0  0  0  0  0  0  0  0  0  0
   17.8340   13.1871   12.6371 H   0  0  0  0  0  0  0  0  0  0  0  0
   17.9838   11.3731   12.4911 H   0  0  0  0  0  0  0  0  0  0  0  0
   18.7863   12.1022   14.5785 H   0  0  0  0  0  0  0  0  0  0  0  0
   19.3749   14.3502   14.2257 H   0  0  0  0  0  0  0  0  0  0  0  0
   20.8359   13.4467   14.7564 H   0  0  0  0  0  0  0  0  0  0  0  0
   22.4082   15.3979    6.0390 H   0  0  0  0  0  0  0  0  0  0  0  0
  1  2  1  0
  2  3  1  0
  3  4  2  0
  4  5  1  0
  5  6  1  0
  6  7  2  0
  6  8  2  0
  6  9  1  0
  9 10  2  0
 10 11  1  0
 11 12  1  0
 12 13  2  0
 12 14  1  0
 14 15  1  0
 15 16  1  0
 16 17  1  0
 17 18  1  0
 18 19  2  0
 18 20  1  0
 20 21  1  0
 21 22  2  0
 11 23  2  0
 23 24  1  0
 24 25  1  0
 25 26  2  0
 26 27  1  0
 27 28  1  0
 26 29  1  0
 29 30  1  0
 30 31  1  0
 31 32  1  0
  5 33  1  0
 33 34  2  0
 34  3  1  0
 28  9  1  0
 21 15  1  0
 28 24  2  0
 32 25  1  0
  1 35  1  0
  1 36  1  0
  1 37  1  0
  2 38  1  0
  2 39  1  0
  4 40  1  0
 10 41  1  0
 14 42  1  0
 15 43  1  1
 16 44  1  0
 16 45  1  0
 17 46  1  0
 17 47  1  0
 20 48  1  0
 23 49  1  0
 27 50  1  0
 29 51  1  0
 29 52  1  0
 30 53  1  0
 30 54  1  0
 31 55  1  0
 32 56  1  0
 32 57  1  0
 33 58  1  0
M  END
>  <meeko>  (693) 
{"is_sidechain": [true], "free_energy": -10.59, "intermolecular_energy": 0.0, "internal_energy": -10.59, "cluster_size": 20, "cluster_id": 1, "rank_in_cluster": 1}

>  <_RMSD_MCS_to_ref>  (693) 
0.6787697510938445

$$$$
ligand
     RDKit          3D

 48 51  0  0  0  0  0  0  0  0999 V2000
   18.9090   19.1540    7.5370 C   0  0  0  0  0  0  0  0  0  0  0  0
   18.7730   17.6460    7.6780 C   0  0  0  0  0  0  0  0  0  0  0  0
   20.0570   16.9390    7.4190 C   0  0  0  0  0  0  0  0  0  0  0  0
   20.6910   15.9810    8.1860 C   0  0  0  0  0  0  0  0  0  0  0  0
   21.8070   15.6620    7.4690 N   0  0  0  0  0  0  0  0  0  0  0  0
   23.1180   14.7480    8.0210 S   0  0  0  0  0  6  0  0  0  0  0  0
   22.6390   13.3790    8.0130 O   0  0  0  0  0  0  0  0  0  0  0  0
   24.2070   15.1440    7.1440 O   0  0  0  0  0  0  0  0  0  0  0  0
   23.4340   15.2710    9.6440 C   0  0  0  0  0  0  0  0  0  0  0  0
   24.4640   16.1170    9.8570 C   0  0  0  0  0  0  0  0  0  0  0  0
   24.7290   16.5930   11.2050 C   0  0  0  0  0  0  0  0  0  0  0  0
   23.9680   16.2190   12.2550 C   0  0  0  0  0  0  0  0  0  0  0  0
   24.3540   16.7580   13.5980 C   0  0  0  0  0  0  0  0  0  0  0  0
   24.1740   16.1160   14.6280 O   0  0  0  0  0  0  0  0  0  0  0  0
   24.8630   18.0310   13.5900 N   0  0  0  0  0  0  0  0  0  0  0  0
   25.1290   18.7480   14.8290 C   0  0  1  0  0  0  0  0  0  0  0  0
   26.1190   18.0080   15.7210 C   0  0  0  0  0  0  0  0  0  0  0  0
   26.3820   18.8280   16.9740 C   0  0  0  0  0  0  0  0  0  0  0  0
   26.8630   20.2190   16.6310 C   0  0  0  0  0  0  0  0  0  0  0  0
   27.6620   20.8310   17.3340 O   0  0  0  0  0  0  0  0  0  0  0  0
   26.3390   20.7890   15.5000 N   0  0  0  0  0  0  0  0  0  0  0  0
   25.7010   20.1270   14.4810 C   0  0  0  0  0  0  0  0  0  0  0  0
   25.5910   20.6270   13.3620 O   0  0  0  0  0  0  0  0  0  0  0  0
   22.8540   15.3540   12.0280 C   0  0  0  0  0  0  0  0  0  0  0  0
   21.8180   14.8440   12.7780 C   0  0  0  0  0  0  0  0  0  0  0  0
   21.0240   14.0310   12.0210 N   0  0  0  0  0  0  0  0  0  0  0  0
   21.5480   14.0500   10.8170 C   0  0  0  0  0  0  0  0  0  0  0  0
   22.6400   14.8840   10.7280 N   0  0  0  0  0  0  0  0  0  0  0  0
   21.8540   16.4360    6.3520 C   0  0  0  0  0  0  0  0  0  0  0  0
   20.7980   17.2190    6.2890 N   0  0  0  0  0  0  0  0  0  0  0  0
   18.9504   19.6134    8.5356 H   0  0  0  0  0  0  0  0  0  0  0  0
   19.8320   19.3891    6.9867 H   0  0  0  0  0  0  0  0  0  0  0  0
   18.0430   19.5504    6.9867 H   0  0  0  0  0  0  0  0  0  0  0  0
   18.4411   17.4143    8.7008 H   0  0  0  0  0  0  0  0  0  0  0  0
   18.0415   17.3017    6.9321 H   0  0  0  0  0  0  0  0  0  0  0  0
   20.3694   15.5693    9.1540 H   0  0  0  0  0  0  0  0  0  0  0  0
   25.0970   16.4432    9.0186 H   0  0  0  0  0  0  0  0  0  0  0  0
   25.5736   17.2773   11.3738 H   0  0  0  0  0  0  0  0  0  0  0  0
   25.0612   18.4895   12.6892 H   0  0  0  0  0  0  0  0  0  0  0  0
   24.1833   18.8362   15.3838 H   0  0  0  0  0  0  0  0  0  0  0  0
   25.6993   17.0312   16.0033 H   0  0  0  0  0  0  0  0  0  0  0  0
   27.0626   17.8576   15.1761 H   0  0  0  0  0  0  0  0  0  0  0  0
   25.4505   18.9042   17.5541 H   0  0  0  0  0  0  0  0  0  0  0  0
   27.1658   18.3248   17.5592 H   0  0  0  0  0  0  0  0  0  0  0  0
   26.4329   21.8104   15.4060 H   0  0  0  0  0  0  0  0  0  0  0  0
   21.6523   15.0621   13.8434 H   0  0  0  0  0  0  0  0  0  0  0  0
   21.1573   13.4639    9.9721 H   0  0  0  0  0  0  0  0  0  0  0  0
   22.6616   16.4112    5.6055 H   0  0  0  0  0  0  0  0  0  0  0  0
  1  2  1  0
  2  3  1  0
  3  4  2  0
  4  5  1  0
  5  6  1  0
  6  7  2  0
  6  8  2  0
  6  9  1  0
  9 10  2  0
 10 11  1  0
 11 12  2  0
 12 13  1  0
 13 14  2  0
 13 15  1  0
 15 16  1  0
 16 17  1  0
 17 18  1  0
 18 19  1  0
 19 20  2  0
 19 21  1  0
 21 22  1  0
 22 23  2  0
 12 24  1  0
 24 25  2  0
 25 26  1  0
 26 27  2  0
 27 28  1  0
  5 29  1  0
 29 30  2  0
 30  3  1  0
 28  9  1  0
 22 16  1  0
 28 24  1  0
  1 31  1  0
  1 32  1  0
  1 33  1  0
  2 34  1  0
  2 35  1  0
  4 36  1  0
 10 37  1  0
 11 38  1  0
 15 39  1  0
 16 40  1  1
 17 41  1  0
 17 42  1  0
 18 43  1  0
 18 44  1  0
 21 45  1  0
 25 46  1  0
 27 47  1  0
 29 48  1  0
M  END
>  <meeko>  (694) 
{"is_sidechain": [true], "free_energy": -10.59, "intermolecular_energy": 0.0, "internal_energy": -10.59, "cluster_size": 15, "cluster_id": 1, "rank_in_cluster": 1}

>  <_RMSD_MCS_to_ref>  (694) 
0.5733381782741027

$$$$
ligand
     RDKit          3D

 48 51  0  0  0  0  0  0  0  0999 V2000
   18.9090   19.1540    7.5370 C   0  0  0  0  0  0  0  0  0  0  0  0
   18.7730   17.6460    7.6780 C   0  0  0  0  0  0  0  0  0  0  0  0
   20.0630   16.9420    7.4440 C   0  0  0  0  0  0  0  0  0  0  0  0
   21.1540   16.8300    8.2820 C   0  0  0  0  0  0  0  0  0  0  0  0
   22.0530   16.0910    7.5670 N   0  0  0  0  0  0  0  0  0  0  0  0
   23.4830   15.4340    8.1520 S   0  0  0  0  0  6  0  0  0  0  0  0
   24.5510   16.2880    7.6720 O   0  0  0  0  0  0  0  0  0  0  0  0
   23.4150   14.0190    7.8390 O   0  0  0  0  0  0  0  0  0  0  0  0
   23.3590   15.6320    9.9140 C   0  0  0  0  0  0  0  0  0  0  0  0
   24.3730   16.3160   10.5920 C   0  0  0  0  0  0  0  0  0  0  0  0
   24.3050   16.4950   11.9860 C   0  0  0  0  0  0  0  0  0  0  0  0
   25.3840   17.2450   12.6760 C   0  0  0  0  0  0  0  0  0  0  0  0
   26.3840   17.5860   12.0520 O   0  0  0  0  0  0  0  0  0  0  0  0
   25.2000   17.5350   14.0050 N   0  0  0  0  0  0  0  0  0  0  0  0
   26.1470   18.3320   14.7630 C   0  0  2  0  0  0  0  0  0  0  0  0
   26.0760   18.0190   16.2550 C   0  0  0  0  0  0  0  0  0  0  0  0
   27.0830   18.8760   17.0050 C   0  0  0  0  0  0  0  0  0  0  0  0
   26.8630   20.3450   16.7310 C   0  0  0  0  0  0  0  0  0  0  0  0
   27.0870   21.2120   17.5710 O   0  0  0  0  0  0  0  0  0  0  0  0
   26.4290   20.6770   15.4740 N   0  0  0  0  0  0  0  0  0  0  0  0
   25.8690   19.8250   14.5500 C   0  0  0  0  0  0  0  0  0  0  0  0
   25.2130   20.2680   13.6090 O   0  0  0  0  0  0  0  0  0  0  0  0
   23.2060   15.9540   12.6820 C   0  0  0  0  0  0  0  0  0  0  0  0
   22.8960   15.9750   14.0270 N   0  0  0  0  0  0  0  0  0  0  0  0
   21.7600   15.3260   14.1390 C   0  0  0  0  0  0  0  0  0  0  0  0
   21.3170   14.8760   12.9280 N   0  0  0  0  0  0  0  0  0  0  0  0
   22.2220   15.2670   11.9710 C   0  0  0  0  0  0  0  0  0  0  0  0
   22.2590   15.0790   10.5870 C   0  0  0  0  0  0  0  0  0  0  0  0
   21.4990   15.7500    6.3750 C   0  0  0  0  0  0  0  0  0  0  0  0
   20.2900   16.2610    6.2640 N   0  0  0  0  0  0  0  0  0  0  0  0
   18.9504   19.6134    8.5356 H   0  0  0  0  0  0  0  0  0  0  0  0
   19.8320   19.3891    6.9867 H   0  0  0  0  0  0  0  0  0  0  0  0
   18.0430   19.5504    6.9867 H   0  0  0  0  0  0  0  0  0  0  0  0
   18.4226   17.4152    8.6949 H   0  0  0  0  0  0  0  0  0  0  0  0
   18.0558   17.2988    6.9196 H   0  0  0  0  0  0  0  0  0  0  0  0
   21.2725   17.2421    9.2950 H   0  0  0  0  0  0  0  0  0  0  0  0
   25.2302   16.7171   10.0313 H   0  0  0  0  0  0  0  0  0  0  0  0
   24.3607   17.1745   14.4809 H   0  0  0  0  0  0  0  0  0  0  0  0
   27.1548   18.0809   14.4007 H   0  0  0  0  0  0  0  0  0  0  0  0
   25.0633   18.2347   16.6264 H   0  0  0  0  0  0  0  0  0  0  0  0
   26.3091   16.9562   16.4165 H   0  0  0  0  0  0  0  0  0  0  0  0
   26.9765   18.6926   18.0844 H   0  0  0  0  0  0  0  0  0  0  0  0
   28.0929   18.6058   16.6629 H   0  0  0  0  0  0  0  0  0  0  0  0
   26.5324   21.6625   15.1931 H   0  0  0  0  0  0  0  0  0  0  0  0
   21.2310   15.1648   15.0899 H   0  0  0  0  0  0  0  0  0  0  0  0
   20.4550   14.3375   12.7612 H   0  0  0  0  0  0  0  0  0  0  0  0
   21.4697   14.5281   10.0546 H   0  0  0  0  0  0  0  0  0  0  0  0
   21.9913   15.1330    5.6089 H   0  0  0  0  0  0  0  0  0  0  0  0
  1  2  1  0
  2  3  1  0
  3  4  2  0
  4  5  1  0
  5  6  1  0
  6  7  2  0
  6  8  2  0
  6  9  1  0
  9 10  2  0
 10 11  1  0
 11 12  1  0
 12 13  2  0
 12 14  1  0
 14 15  1  0
 15 16  1  0
 16 17  1  0
 17 18  1  0
 18 19  2  0
 18 20  1  0
 20 21  1  0
 21 22  2  0
 11 23  2  0
 23 24  1  0
 24 25  2  0
 25 26  1  0
 26 27  1  0
 27 28  2  0
  5 29  1  0
 29 30  2  0
 30  3  1  0
 28  9  1  0
 21 15  1  0
 27 23  1  0
  1 31  1  0
  1 32  1  0
  1 33  1  0
  2 34  1  0
  2 35  1  0
  4 36  1  0
 10 37  1  0
 14 38  1  0
 15 39  1  6
 16 40  1  0
 16 41  1  0
 17 42  1  0
 17 43  1  0
 20 44  1  0
 25 45  1  0
 26 46  1  0
 28 47  1  0
 29 48  1  0
M  END
>  <meeko>  (695) 
{"is_sidechain": [true], "free_energy": -10.59, "intermolecular_energy": 0.0, "internal_energy": -10.59, "cluster_size": 20, "cluster_id": 1, "rank_in_cluster": 1}

>  <_RMSD_MCS_to_ref>  (695) 
0.7798514103482928

$$$$
ligand
     RDKit          3D

 48 51  0  0  0  0  0  0  0  0999 V2000
   18.9090   19.1540    7.5370 C   0  0  0  0  0  0  0  0  0  0  0  0
   18.7730   17.6460    7.6780 C   0  0  0  0  0  0  0  0  0  0  0  0
   20.0720   16.9460    7.4920 C   0  0  0  0  0  0  0  0  0  0  0  0
   20.9120   16.4030    8.4450 C   0  0  0  0  0  0  0  0  0  0  0  0
   21.9450   15.8790    7.7220 N   0  0  0  0  0  0  0  0  0  0  0  0
   23.3740   15.2680    8.3570 S   0  0  0  0  0  6  0  0  0  0  0  0
   24.2400   16.4050    8.5930 O   0  0  0  0  0  0  0  0  0  0  0  0
   23.7450   14.1650    7.4880 O   0  0  0  0  0  0  0  0  0  0  0  0
   22.8940   14.5860    9.9180 C   0  0  0  0  0  0  0  0  0  0  0  0
   22.0450   13.4670    9.9550 C   0  0  0  0  0  0  0  0  0  0  0  0
   21.6600   12.9010   11.1730 C   0  0  0  0  0  0  0  0  0  0  0  0
   22.1040   13.4390   12.3880 C   0  0  0  0  0  0  0  0  0  0  0  0
   22.9350   14.5680   12.3670 C   0  0  0  0  0  0  0  0  0  0  0  0
   23.4840   15.2730   13.4090 N   0  0  0  0  0  0  0  0  0  0  0  0
   24.1740   16.2530   12.8500 C   0  0  0  0  0  0  0  0  0  0  0  0
   24.9260   17.2530   13.5790 C   0  0  0  0  0  0  0  0  0  0  0  0
   26.0810   17.5610   13.3060 O   0  0  0  0  0  0  0  0  0  0  0  0
   24.2270   17.8190   14.6180 N   0  0  0  0  0  0  0  0  0  0  0  0
   24.8330   18.7360   15.5640 C   0  0  1  0  0  0  0  0  0  0  0  0
   25.9070   18.0570   16.4060 C   0  0  0  0  0  0  0  0  0  0  0  0
   26.5190   19.0670   17.3630 C   0  0  0  0  0  0  0  0  0  0  0  0
   27.0630   20.2650   16.6210 C   0  0  0  0  0  0  0  0  0  0  0  0
   28.0490   20.8860   17.0070 O   0  0  0  0  0  0  0  0  0  0  0  0
   26.3760   20.6570   15.5000 N   0  0  0  0  0  0  0  0  0  0  0  0
   25.4600   19.9080   14.8020 C   0  0  0  0  0  0  0  0  0  0  0  0
   25.1610   20.1970   13.6440 O   0  0  0  0  0  0  0  0  0  0  0  0
   24.0870   16.1950   11.4820 N   0  0  0  0  0  0  0  0  0  0  0  0
   23.3050   15.1170   11.1450 C   0  0  0  0  0  0  0  0  0  0  0  0
   21.7430   16.1360    6.4040 C   0  0  0  0  0  0  0  0  0  0  0  0
   20.6070   16.7780    6.2290 N   0  0  0  0  0  0  0  0  0  0  0  0
   18.9504   19.6134    8.5356 H   0  0  0  0  0  0  0  0  0  0  0  0
   19.8320   19.3891    6.9867 H   0  0  0  0  0  0  0  0  0  0  0  0
   18.0430   19.5504    6.9867 H   0  0  0  0  0  0  0  0  0  0  0  0
   18.3878   17.4173    8.6826 H   0  0  0  0  0  0  0  0  0  0  0  0
   18.0842   17.2940    6.8960 H   0  0  0  0  0  0  0  0  0  0  0  0
   20.7790   16.3947    9.5369 H   0  0  0  0  0  0  0  0  0  0  0  0
   21.6790   13.0313    9.0136 H   0  0  0  0  0  0  0  0  0  0  0  0
   20.9996   12.0213   11.1780 H   0  0  0  0  0  0  0  0  0  0  0  0
   21.8053   12.9828   13.3434 H   0  0  0  0  0  0  0  0  0  0  0  0
   23.2309   17.5820   14.7295 H   0  0  0  0  0  0  0  0  0  0  0  0
   24.0430   19.0911   16.2420 H   0  0  0  0  0  0  0  0  0  0  0  0
   25.4560   17.2347   16.9808 H   0  0  0  0  0  0  0  0  0  0  0  0
   26.6910   17.6580   15.7456 H   0  0  0  0  0  0  0  0  0  0  0  0
   25.7471   19.4038   18.0706 H   0  0  0  0  0  0  0  0  0  0  0  0
   27.3498   18.5816   17.8961 H   0  0  0  0  0  0  0  0  0  0  0  0
   26.5656   21.6059   15.1471 H   0  0  0  0  0  0  0  0  0  0  0  0
   24.5318   16.8478   10.8210 H   0  0  0  0  0  0  0  0  0  0  0  0
   22.4318   15.8482    5.5961 H   0  0  0  0  0  0  0  0  0  0  0  0
  1  2  1  0
  2  3  1  0
  3  4  2  0
  4  5  1  0
  5  6  1  0
  6  7  2  0
  6  8  2  0
  6  9  1  0
  9 10  2  0
 10 11  1  0
 11 12  2  0
 12 13  1  0
 13 14  1  0
 14 15  2  0
 15 16  1  0
 16 17  2  0
 16 18  1  0
 18 19  1  0
 19 20  1  0
 20 21  1  0
 21 22  1  0
 22 23  2  0
 22 24  1  0
 24 25  1  0
 25 26  2  0
 15 27  1  0
 27 28  1  0
  5 29  1  0
 29 30  2  0
 30  3  1  0
 28  9  1  0
 28 13  2  0
 25 19  1  0
  1 31  1  0
  1 32  1  0
  1 33  1  0
  2 34  1  0
  2 35  1  0
  4 36  1  0
 10 37  1  0
 11 38  1  0
 12 39  1  0
 18 40  1  0
 19 41  1  1
 20 42  1  0
 20 43  1  0
 21 44  1  0
 21 45  1  0
 24 46  1  0
 27 47  1  0
 29 48  1  0
M  END
>  <meeko>  (696) 
{"is_sidechain": [true], "free_energy": -10.59, "intermolecular_energy": 0.0, "internal_energy": -10.59, "cluster_size": 17, "cluster_id": 1, "rank_in_cluster": 1}

>  <_RMSD_MCS_to_ref>  (696) 
0.7635223201277963

$$$$
ligand
     RDKit          3D

 47 50  0  0  0  0  0  0  0  0999 V2000
   18.9090   19.1540    7.5370 C   0  0  0  0  0  0  0  0  0  0  0  0
   18.7730   17.6460    7.6780 C   0  0  0  0  0  0  0  0  0  0  0  0
   20.0920   16.9660    7.7920 C   0  0  0  0  0  0  0  0  0  0  0  0
   20.5880   16.2160    8.8390 C   0  0  0  0  0  0  0  0  0  0  0  0
   21.8300   15.8290    8.4220 N   0  0  0  0  0  0  0  0  0  0  0  0
   23.0020   15.1060    9.3850 S   0  0  0  0  0  6  0  0  0  0  0  0
   23.9190   16.1650    9.7520 O   0  0  0  0  0  0  0  0  0  0  0  0
   23.4250   13.9360    8.6380 O   0  0  0  0  0  0  0  0  0  0  0  0
   22.2030   14.5560   10.8310 C   0  0  0  0  0  0  0  0  0  0  0  0
   21.3730   13.4510   10.7460 C   0  0  0  0  0  0  0  0  0  0  0  0
   20.6970   12.9120   11.7930 N   0  0  0  0  0  0  0  0  0  0  0  0
   20.8260   13.4590   13.0310 C   0  0  0  0  0  0  0  0  0  0  0  0
   21.6400   14.5770   13.2130 C   0  0  0  0  0  0  0  0  0  0  0  0
   22.0270   15.3920   14.3110 C   0  0  0  0  0  0  0  0  0  0  0  0
   22.8800   16.3590   13.8140 C   0  0  0  0  0  0  0  0  0  0  0  0
   23.6100   17.4230   14.4740 C   0  0  0  0  0  0  0  0  0  0  0  0
   23.1880   18.0100   15.4660 O   0  0  0  0  0  0  0  0  0  0  0  0
   24.8280   17.7260   13.8980 N   0  0  0  0  0  0  0  0  0  0  0  0
   25.8710   18.3730   14.6780 C   0  0  2  0  0  0  0  0  0  0  0  0
   25.7710   17.9960   16.1500 C   0  0  0  0  0  0  0  0  0  0  0  0
   26.8640   18.7110   16.9300 C   0  0  0  0  0  0  0  0  0  0  0  0
   26.7890   20.2070   16.7290 C   0  0  0  0  0  0  0  0  0  0  0  0
   27.1110   21.0030   17.6060 O   0  0  0  0  0  0  0  0  0  0  0  0
   26.3770   20.6430   15.4950 N   0  0  0  0  0  0  0  0  0  0  0  0
   25.7280   19.8970   14.5400 C   0  0  0  0  0  0  0  0  0  0  0  0
   25.0990   20.4470   13.6370 O   0  0  0  0  0  0  0  0  0  0  0  0
   23.0310   16.1800   12.4670 O   0  0  0  0  0  0  0  0  0  0  0  0
   22.2960   15.0950   12.1020 C   0  0  0  0  0  0  0  0  0  0  0  0
   22.0570   16.3300    7.1790 C   0  0  0  0  0  0  0  0  0  0  0  0
   21.0340   17.0630    6.7820 N   0  0  0  0  0  0  0  0  0  0  0  0
   18.9504   19.6134    8.5356 H   0  0  0  0  0  0  0  0  0  0  0  0
   19.8320   19.3891    6.9867 H   0  0  0  0  0  0  0  0  0  0  0  0
   18.0430   19.5504    6.9867 H   0  0  0  0  0  0  0  0  0  0  0  0
   18.1835   17.4272    8.5806 H   0  0  0  0  0  0  0  0  0  0  0  0
   18.2776   17.2675    6.7717 H   0  0  0  0  0  0  0  0  0  0  0  0
   20.0945   15.9825    9.7940 H   0  0  0  0  0  0  0  0  0  0  0  0
   21.2528   12.9764    9.7610 H   0  0  0  0  0  0  0  0  0  0  0  0
   20.2902   13.0214   13.8862 H   0  0  0  0  0  0  0  0  0  0  0  0
   21.7082   15.2753   15.3573 H   0  0  0  0  0  0  0  0  0  0  0  0
   24.9988   17.4922   12.9095 H   0  0  0  0  0  0  0  0  0  0  0  0
   26.8480   18.0394   14.2982 H   0  0  0  0  0  0  0  0  0  0  0  0
   24.7867   18.2951   16.5394 H   0  0  0  0  0  0  0  0  0  0  0  0
   25.8927   16.9083   16.2598 H   0  0  0  0  0  0  0  0  0  0  0  0
   26.7465   18.4864   18.0004 H   0  0  0  0  0  0  0  0  0  0  0  0
   27.8400   18.3588   16.5648 H   0  0  0  0  0  0  0  0  0  0  0  0
   26.5734   21.6267   15.2610 H   0  0  0  0  0  0  0  0  0  0  0  0
   22.9663   16.1497    6.5868 H   0  0  0  0  0  0  0  0  0  0  0  0
  1  2  1  0
  2  3  1  0
  3  4  2  0
  4  5  1  0
  5  6  1  0
  6  7  2  0
  6  8  2  0
  6  9  1  0
  9 10  2  0
 10 11  1  0
 11 12  2  0
 12 13  1  0
 13 14  1  0
 14 15  2  0
 15 16  1  0
 16 17  2  0
 16 18  1  0
 18 19  1  0
 19 20  1  0
 20 21  1  0
 21 22  1  0
 22 23  2  0
 22 24  1  0
 24 25  1  0
 25 26  2  0
 15 27  1  0
 27 28  1  0
  5 29  1  0
 29 30  2  0
 30  3  1  0
 28  9  1  0
 28 13  2  0
 25 19  1  0
  1 31  1  0
  1 32  1  0
  1 33  1  0
  2 34  1  0
  2 35  1  0
  4 36  1  0
 10 37  1  0
 12 38  1  0
 14 39  1  0
 18 40  1  0
 19 41  1  6
 20 42  1  0
 20 43  1  0
 21 44  1  0
 21 45  1  0
 24 46  1  0
 29 47  1  0
M  END
>  <meeko>  (697) 
{"is_sidechain": [true], "free_energy": -10.59, "intermolecular_energy": 0.0, "internal_energy": -10.59, "cluster_size": 15, "cluster_id": 1, "rank_in_cluster": 1}

>  <_RMSD_MCS_to_ref>  (697) 
0.6237981333020409

$$$$
ligand
     RDKit          3D

 47 50  0  0  0  0  0  0  0  0999 V2000
   18.9090   19.1540    7.5370 C   0  0  0  0  0  0  0  0  0  0  0  0
   18.7730   17.6460    7.6780 C   0  0  0  0  0  0  0  0  0  0  0  0
   20.0420   16.9360    7.3620 C   0  0  0  0  0  0  0  0  0  0  0  0
   20.7600   16.0500    8.1410 C   0  0  0  0  0  0  0  0  0  0  0  0
   21.8220   15.7020    7.3560 N   0  0  0  0  0  0  0  0  0  0  0  0
   23.0860   14.6860    7.8240 S   0  0  0  0  0  6  0  0  0  0  0  0
   23.8630   14.4580    6.6200 O   0  0  0  0  0  0  0  0  0  0  0  0
   22.3930   13.5720    8.4550 O   0  0  0  0  0  0  0  0  0  0  0  0
   24.0490   15.4910    8.9940 C   0  0  0  0  0  0  0  0  0  0  0  0
   25.2200   16.0470    8.6340 C   0  0  0  0  0  0  0  0  0  0  0  0
   26.0550   16.7110    9.5170 N   0  0  0  0  0  0  0  0  0  0  0  0
   25.6680   16.8280   10.7560 C   0  0  0  0  0  0  0  0  0  0  0  0
   24.4140   16.2950   11.2150 C   0  0  0  0  0  0  0  0  0  0  0  0
   23.7600   16.2740   12.4320 C   0  0  0  0  0  0  0  0  0  0  0  0
   24.1320   16.8430   13.7110 C   0  0  0  0  0  0  0  0  0  0  0  0
   23.8440   16.2970   14.7700 O   0  0  0  0  0  0  0  0  0  0  0  0
   24.7830   18.0520   13.6530 N   0  0  0  0  0  0  0  0  0  0  0  0
   25.0540   18.8130   14.8670 C   0  0  1  0  0  0  0  0  0  0  0  0
   26.0010   18.0800   15.8120 C   0  0  0  0  0  0  0  0  0  0  0  0
   26.2850   18.9550   17.0230 C   0  0  0  0  0  0  0  0  0  0  0  0
   26.8320   20.3020   16.6110 C   0  0  0  0  0  0  0  0  0  0  0  0
   27.6580   20.9110   17.2830 O   0  0  0  0  0  0  0  0  0  0  0  0
   26.3370   20.8360   15.4490 N   0  0  0  0  0  0  0  0  0  0  0  0
   25.6900   20.1430   14.4570 C   0  0  0  0  0  0  0  0  0  0  0  0
   25.6160   20.5780   13.3080 O   0  0  0  0  0  0  0  0  0  0  0  0
   22.6140   15.4950   12.1710 C   0  0  0  0  0  0  0  0  0  0  0  0
   22.5180   15.1170   10.8960 N   0  0  0  0  0  0  0  0  0  0  0  0
   23.6280   15.6060   10.3030 N   0  0  0  0  0  0  0  0  0  0  0  0
   21.7520   16.3770    6.1820 C   0  0  0  0  0  0  0  0  0  0  0  0
   20.6690   17.1280    6.1470 N   0  0  0  0  0  0  0  0  0  0  0  0
   18.9504   19.6134    8.5356 H   0  0  0  0  0  0  0  0  0  0  0  0
   19.8320   19.3891    6.9867 H   0  0  0  0  0  0  0  0  0  0  0  0
   18.0430   19.5504    6.9867 H   0  0  0  0  0  0  0  0  0  0  0  0
   18.4840   17.4115    8.7131 H   0  0  0  0  0  0  0  0  0  0  0  0
   18.0089   17.3072    6.9629 H   0  0  0  0  0  0  0  0  0  0  0  0
   20.5295   15.7042    9.1595 H   0  0  0  0  0  0  0  0  0  0  0  0
   25.5309   15.9700    7.5817 H   0  0  0  0  0  0  0  0  0  0  0  0
   26.3201   17.3500   11.4718 H   0  0  0  0  0  0  0  0  0  0  0  0
   25.0831   18.4250   12.7410 H   0  0  0  0  0  0  0  0  0  0  0  0
   24.1053   18.9616   15.4035 H   0  0  0  0  0  0  0  0  0  0  0  0
   25.5357   17.1389   16.1404 H   0  0  0  0  0  0  0  0  0  0  0  0
   26.9434   17.8597   15.2892 H   0  0  0  0  0  0  0  0  0  0  0  0
   25.3508   19.1041   17.5843 H   0  0  0  0  0  0  0  0  0  0  0  0
   27.0377   18.4507   17.6468 H   0  0  0  0  0  0  0  0  0  0  0  0
   26.4621   21.8486   15.3081 H   0  0  0  0  0  0  0  0  0  0  0  0
   21.8750   15.2267   12.9404 H   0  0  0  0  0  0  0  0  0  0  0  0
   22.4941   16.3077    5.3730 H   0  0  0  0  0  0  0  0  0  0  0  0
  1  2  1  0
  2  3  1  0
  3  4  2  0
  4  5  1  0
  5  6  1  0
  6  7  2  0
  6  8  2  0
  6  9  1  0
  9 10  2  0
 10 11  1  0
 11 12  2  0
 12 13  1  0
 13 14  2  0
 14 15  1  0
 15 16  2  0
 15 17  1  0
 17 18  1  0
 18 19  1  0
 19 20  1  0
 20 21  1  0
 21 22  2  0
 21 23  1  0
 23 24  1  0
 24 25  2  0
 14 26  1  0
 26 27  2  0
 27 28  1  0
  5 29  1  0
 29 30  2  0
 30  3  1  0
 28  9  1  0
 28 13  1  0
 24 18  1  0
  1 31  1  0
  1 32  1  0
  1 33  1  0
  2 34  1  0
  2 35  1  0
  4 36  1  0
 10 37  1  0
 12 38  1  0
 17 39  1  0
 18 40  1  1
 19 41  1  0
 19 42  1  0
 20 43  1  0
 20 44  1  0
 23 45  1  0
 26 46  1  0
 29 47  1  0
M  END
>  <meeko>  (698) 
{"is_sidechain": [true], "free_energy": -10.59, "intermolecular_energy": 0.0, "internal_energy": -10.59, "cluster_size": 16, "cluster_id": 1, "rank_in_cluster": 1}

>  <_RMSD_MCS_to_ref>  (698) 
0.5932138456464637

$$$$
ligand
     RDKit          3D

 46 49  0  0  0  0  0  0  0  0999 V2000
   18.9090   19.1540    7.5370 C   0  0  0  0  0  0  0  0  0  0  0  0
   18.7730   17.6460    7.6780 C   0  0  0  0  0  0  0  0  0  0  0  0
   20.0940   16.9610    7.6810 C   0  0  0  0  0  0  0  0  0  0  0  0
   20.9480   16.7250    8.7400 C   0  0  0  0  0  0  0  0  0  0  0  0
   22.0110   16.0800    8.1750 N   0  0  0  0  0  0  0  0  0  0  0  0
   23.3300   15.4430    8.9910 S   0  0  0  0  0  6  0  0  0  0  0  0
   23.5200   14.1030    8.4680 O   0  0  0  0  0  0  0  0  0  0  0  0
   24.3680   16.4560    8.9240 O   0  0  0  0  0  0  0  0  0  0  0  0
   22.8420   15.2940   10.6930 C   0  0  0  0  0  0  0  0  0  0  0  0
   23.5570   16.0030   11.6490 C   0  0  0  0  0  0  0  0  0  0  0  0
   23.1670   15.8750   12.9870 C   0  0  0  0  0  0  0  0  0  0  0  0
   23.8630   16.5720   14.0940 C   0  0  0  0  0  0  0  0  0  0  0  0
   24.1330   15.9680   15.1250 O   0  0  0  0  0  0  0  0  0  0  0  0
   24.1530   17.9040   13.9090 N   0  0  0  0  0  0  0  0  0  0  0  0
   24.7110   18.7080   14.9910 C   0  0  1  0  0  0  0  0  0  0  0  0
   25.8220   17.9800   15.7400 C   0  0  0  0  0  0  0  0  0  0  0  0
   26.3890   18.8920   16.8170 C   0  0  0  0  0  0  0  0  0  0  0  0
   26.8660   20.2010   16.2330 C   0  0  0  0  0  0  0  0  0  0  0  0
   27.8330   20.8090   16.6810 O   0  0  0  0  0  0  0  0  0  0  0  0
   26.1430   20.7060   15.1820 N   0  0  0  0  0  0  0  0  0  0  0  0
   25.2770   19.9970   14.3880 C   0  0  0  0  0  0  0  0  0  0  0  0
   24.9710   20.3870   13.2620 O   0  0  0  0  0  0  0  0  0  0  0  0
   22.0890   15.0190   13.2750 C   0  0  0  0  0  0  0  0  0  0  0  0
   21.3700   14.5660   14.4010 C   0  0  0  0  0  0  0  0  0  0  0  0
   20.3830   13.7280   14.0710 N   0  0  0  0  0  0  0  0  0  0  0  0
   20.4500   13.6100   12.6880 O   0  0  0  0  0  0  0  0  0  0  0  0
   21.4690   14.3790   12.2120 C   0  0  0  0  0  0  0  0  0  0  0  0
   21.7870   14.4740   10.9060 N   0  0  0  0  0  0  0  0  0  0  0  0
   21.7740   15.9060    6.8500 C   0  0  0  0  0  0  0  0  0  0  0  0
   20.6220   16.4470    6.5120 N   0  0  0  0  0  0  0  0  0  0  0  0
   18.9504   19.6134    8.5356 H   0  0  0  0  0  0  0  0  0  0  0  0
   19.8320   19.3891    6.9867 H   0  0  0  0  0  0  0  0  0  0  0  0
   18.0430   19.5504    6.9867 H   0  0  0  0  0  0  0  0  0  0  0  0
   18.2564   17.4236    8.6233 H   0  0  0  0  0  0  0  0  0  0  0  0
   18.2023   17.2758    6.8136 H   0  0  0  0  0  0  0  0  0  0  0  0
   20.8049   16.9947    9.7968 H   0  0  0  0  0  0  0  0  0  0  0  0
   24.4034   16.6451   11.3637 H   0  0  0  0  0  0  0  0  0  0  0  0
   23.9736   18.3400   12.9933 H   0  0  0  0  0  0  0  0  0  0  0  0
   23.9084   18.9175   15.7134 H   0  0  0  0  0  0  0  0  0  0  0  0
   25.4151   17.0707   16.2064 H   0  0  0  0  0  0  0  0  0  0  0  0
   26.6202   17.7046   15.0350 H   0  0  0  0  0  0  0  0  0  0  0  0
   25.6060   19.0963   17.5621 H   0  0  0  0  0  0  0  0  0  0  0  0
   27.2476   18.3865   17.2831 H   0  0  0  0  0  0  0  0  0  0  0  0
   26.2608   21.7070   14.9699 H   0  0  0  0  0  0  0  0  0  0  0  0
   21.5964   14.8685   15.4341 H   0  0  0  0  0  0  0  0  0  0  0  0
   22.4499   15.3857    6.1554 H   0  0  0  0  0  0  0  0  0  0  0  0
  1  2  1  0
  2  3  1  0
  3  4  2  0
  4  5  1  0
  5  6  1  0
  6  7  2  0
  6  8  2  0
  6  9  1  0
  9 10  2  0
 10 11  1  0
 11 12  1  0
 12 13  2  0
 12 14  1  0
 14 15  1  0
 15 16  1  0
 16 17  1  0
 17 18  1  0
 18 19  2  0
 18 20  1  0
 20 21  1  0
 21 22  2  0
 11 23  2  0
 23 24  1  0
 24 25  2  0
 25 26  1  0
 26 27  1  0
 27 28  2  0
  5 29  1  0
 29 30  2  0
 30  3  1  0
 28  9  1  0
 21 15  1  0
 27 23  1  0
  1 31  1  0
  1 32  1  0
  1 33  1  0
  2 34  1  0
  2 35  1  0
  4 36  1  0
 10 37  1  0
 14 38  1  0
 15 39  1  1
 16 40  1  0
 16 41  1  0
 17 42  1  0
 17 43  1  0
 20 44  1  0
 24 45  1  0
 29 46  1  0
M  END
>  <meeko>  (699) 
{"is_sidechain": [true], "free_energy": -10.59, "intermolecular_energy": 0.0, "internal_energy": -10.59, "cluster_size": 20, "cluster_id": 1, "rank_in_cluster": 1}

>  <_RMSD_MCS_to_ref>  (699) 
0.4656435212572907

$$$$
ligand
     RDKit          3D

 46 49  0  0  0  0  0  0  0  0999 V2000
   18.9090   19.1540    7.5370 C   0  0  0  0  0  0  0  0  0  0  0  0
   18.7730   17.6460    7.6780 C   0  0  0  0  0  0  0  0  0  0  0  0
   20.0700   16.9430    7.4750 C   0  0  0  0  0  0  0  0  0  0  0  0
   21.1180   16.7830    8.3590 C   0  0  0  0  0  0  0  0  0  0  0  0
   22.0340   16.0480    7.6620 N   0  0  0  0  0  0  0  0  0  0  0  0
   23.6210   15.7640    8.1320 S   0  0  0  0  0  6  0  0  0  0  0  0
   24.3990   16.8670    7.6080 O   0  0  0  0  0  0  0  0  0  0  0  0
   23.8980   14.3830    7.7910 O   0  0  0  0  0  0  0  0  0  0  0  0
   23.5690   15.9050    9.8880 C   0  0  0  0  0  0  0  0  0  0  0  0
   24.6110   16.5570   10.5570 C   0  0  0  0  0  0  0  0  0  0  0  0
   24.5490   16.6560   11.9430 C   0  0  0  0  0  0  0  0  0  0  0  0
   25.6520   17.3680   12.6690 C   0  0  0  0  0  0  0  0  0  0  0  0
   26.6420   17.7780   12.0740 O   0  0  0  0  0  0  0  0  0  0  0  0
   25.4530   17.5270   14.0200 N   0  0  0  0  0  0  0  0  0  0  0  0
   26.3410   18.3210   14.8520 C   0  0  2  0  0  0  0  0  0  0  0  0
   26.1440   18.0290   16.3360 C   0  0  0  0  0  0  0  0  0  0  0  0
   27.0810   18.9020   17.1540 C   0  0  0  0  0  0  0  0  0  0  0  0
   26.8830   20.3660   16.8390 C   0  0  0  0  0  0  0  0  0  0  0  0
   27.0260   21.2470   17.6820 O   0  0  0  0  0  0  0  0  0  0  0  0
   26.5630   20.6770   15.5410 N   0  0  0  0  0  0  0  0  0  0  0  0
   26.0790   19.8080   14.5940 C   0  0  0  0  0  0  0  0  0  0  0  0
   25.4900   20.2240   13.5980 O   0  0  0  0  0  0  0  0  0  0  0  0
   23.5530   16.1660   12.7260 N   0  0  0  0  0  0  0  0  0  0  0  0
   22.5930   15.5340   12.0290 C   0  0  0  0  0  0  0  0  0  0  0  0
   21.5000   14.9550   12.6000 O   0  0  0  0  0  0  0  0  0  0  0  0
   20.7050   14.3860   11.6150 N   0  0  0  0  0  0  0  0  0  0  0  0
   21.3380   14.6280   10.4660 C   0  0  0  0  0  0  0  0  0  0  0  0
   22.5290   15.3600   10.6530 C   0  0  0  0  0  0  0  0  0  0  0  0
   21.5650   15.8250    6.4080 C   0  0  0  0  0  0  0  0  0  0  0  0
   20.3680   16.3530    6.2640 N   0  0  0  0  0  0  0  0  0  0  0  0
   18.9504   19.6134    8.5356 H   0  0  0  0  0  0  0  0  0  0  0  0
   19.8320   19.3891    6.9867 H   0  0  0  0  0  0  0  0  0  0  0  0
   18.0430   19.5504    6.9867 H   0  0  0  0  0  0  0  0  0  0  0  0
   18.3999   17.4167    8.6871 H   0  0  0  0  0  0  0  0  0  0  0  0
   18.0743   17.2960    6.9038 H   0  0  0  0  0  0  0  0  0  0  0  0
   21.1972   17.1610    9.3890 H   0  0  0  0  0  0  0  0  0  0  0  0
   25.4592   16.9813    9.9998 H   0  0  0  0  0  0  0  0  0  0  0  0
   24.6435   17.0657   14.4591 H   0  0  0  0  0  0  0  0  0  0  0  0
   27.3758   18.0566   14.5887 H   0  0  0  0  0  0  0  0  0  0  0  0
   25.1027   18.2454   16.6170 H   0  0  0  0  0  0  0  0  0  0  0  0
   26.3650   16.9696   16.5332 H   0  0  0  0  0  0  0  0  0  0  0  0
   26.8834   18.7357   18.2233 H   0  0  0  0  0  0  0  0  0  0  0  0
   28.1167   18.6300   16.9025 H   0  0  0  0  0  0  0  0  0  0  0  0
   26.6988   21.6555   15.2493 H   0  0  0  0  0  0  0  0  0  0  0  0
   20.9724   14.2944    9.4836 H   0  0  0  0  0  0  0  0  0  0  0  0
   22.1088   15.2797    5.6225 H   0  0  0  0  0  0  0  0  0  0  0  0
  1  2  1  0
  2  3  1  0
  3  4  2  0
  4  5  1  0
  5  6  1  0
  6  7  2  0
  6  8  2  0
  6  9  1  0
  9 10  2  0
 10 11  1  0
 11 12  1  0
 12 13  2  0
 12 14  1  0
 14 15  1  0
 15 16  1  0
 16 17  1  0
 17 18  1  0
 18 19  2  0
 18 20  1  0
 20 21  1  0
 21 22  2  0
 11 23  2  0
 23 24  1  0
 24 25  1  0
 25 26  1  0
 26 27  2  0
 27 28  1  0
  5 29  1  0
 29 30  2  0
 30  3  1  0
 28  9  1  0
 21 15  1  0
 28 24  2  0
  1 31  1  0
  1 32  1  0
  1 33  1  0
  2 34  1  0
  2 35  1  0
  4 36  1  0
 10 37  1  0
 14 38  1  0
 15 39  1  6
 16 40  1  0
 16 41  1  0
 17 42  1  0
 17 43  1  0
 20 44  1  0
 27 45  1  0
 29 46  1  0
M  END
>  <meeko>  (700) 
{"is_sidechain": [true], "free_energy": -10.59, "intermolecular_energy": 0.0, "internal_energy": -10.59, "cluster_size": 20, "cluster_id": 1, "rank_in_cluster": 1}

>  <_RMSD_MCS_to_ref>  (700) 
0.9282005291003778

$$$$
ligand
     RDKit          3D

 50 53  0  0  0  0  0  0  0  0999 V2000
   18.9090   19.1540    7.5370 C   0  0  0  0  0  0  0  0  0  0  0  0
   18.7730   17.6460    7.6780 C   0  0  0  0  0  0  0  0  0  0  0  0
   20.0050   16.9280    7.2520 C   0  0  0  0  0  0  0  0  0  0  0  0
   20.9010   16.2090    8.0180 C   0  0  0  0  0  0  0  0  0  0  0  0
   21.8240   15.7570    7.1190 N   0  0  0  0  0  0  0  0  0  0  0  0
   23.2800   15.0070    7.4930 S   0  0  0  0  0  6  0  0  0  0  0  0
   23.0660   13.5890    7.2760 O   0  0  0  0  0  0  0  0  0  0  0  0
   24.3010   15.7570    6.7870 O   0  0  0  0  0  0  0  0  0  0  0  0
   23.4610   15.2930    9.2310 C   0  0  0  0  0  0  0  0  0  0  0  0
   24.3740   16.2410    9.6810 C   0  0  0  0  0  0  0  0  0  0  0  0
   24.5120   16.4610   11.0530 C   0  0  0  0  0  0  0  0  0  0  0  0
   23.7390   15.7480   12.0120 C   0  0  0  0  0  0  0  0  0  0  0  0
   23.7940   15.8870   13.4210 C   0  0  0  0  0  0  0  0  0  0  0  0
   24.7440   16.8320   14.1310 C   0  0  0  0  0  0  0  0  0  0  0  0
   25.9600   16.6860   14.1670 O   0  0  0  0  0  0  0  0  0  0  0  0
   24.1140   17.8830   14.7670 N   0  0  0  0  0  0  0  0  0  0  0  0
   24.8100   18.7960   15.6520 C   0  0  1  0  0  0  0  0  0  0  0  0
   25.8500   18.0790   16.5080 C   0  0  0  0  0  0  0  0  0  0  0  0
   26.5560   19.0880   17.4010 C   0  0  0  0  0  0  0  0  0  0  0  0
   27.1720   20.2020   16.5890 C   0  0  0  0  0  0  0  0  0  0  0  0
   28.2120   20.7620   16.9210 O   0  0  0  0  0  0  0  0  0  0  0  0
   26.4910   20.5910   15.4630 N   0  0  0  0  0  0  0  0  0  0  0  0
   25.5070   19.8780   14.8200 C   0  0  0  0  0  0  0  0  0  0  0  0
   25.2100   20.1300   13.6520 O   0  0  0  0  0  0  0  0  0  0  0  0
   23.0080   15.1820   14.2950 N   0  0  0  0  0  0  0  0  0  0  0  0
   22.1380   14.3040   13.7710 C   0  0  0  0  0  0  0  0  0  0  0  0
   22.0030   14.0830   12.4140 C   0  0  0  0  0  0  0  0  0  0  0  0
   22.8030   14.8040   11.5210 C   0  0  0  0  0  0  0  0  0  0  0  0
   22.6700   14.5850   10.1390 C   0  0  0  0  0  0  0  0  0  0  0  0
   21.5120   16.2300    5.8850 C   0  0  0  0  0  0  0  0  0  0  0  0
   20.4030   16.9390    5.9290 N   0  0  0  0  0  0  0  0  0  0  0  0
   18.9504   19.6134    8.5356 H   0  0  0  0  0  0  0  0  0  0  0  0
   19.8320   19.3891    6.9867 H   0  0  0  0  0  0  0  0  0  0  0  0
   18.0430   19.5504    6.9867 H   0  0  0  0  0  0  0  0  0  0  0  0
   18.5695   17.4057    8.7320 H   0  0  0  0  0  0  0  0  0  0  0  0
   17.9493   17.3189    7.0265 H   0  0  0  0  0  0  0  0  0  0  0  0
   20.8768   16.0391    9.1045 H   0  0  0  0  0  0  0  0  0  0  0  0
   24.9813   16.8118    8.9631 H   0  0  0  0  0  0  0  0  0  0  0  0
   25.2399   17.2077   11.4031 H   0  0  0  0  0  0  0  0  0  0  0  0
   23.1066   18.0244   14.6058 H   0  0  0  0  0  0  0  0  0  0  0  0
   24.0641   19.2435   16.3254 H   0  0  0  0  0  0  0  0  0  0  0  0
   25.3523   17.3223   17.1322 H   0  0  0  0  0  0  0  0  0  0  0  0
   26.5872   17.5891   15.8549 H   0  0  0  0  0  0  0  0  0  0  0  0
   25.8263   19.5175   18.1031 H   0  0  0  0  0  0  0  0  0  0  0  0
   27.3594   18.5689   17.9442 H   0  0  0  0  0  0  0  0  0  0  0  0
   26.7412   21.5056   15.0607 H   0  0  0  0  0  0  0  0  0  0  0  0
   21.4990   13.7303   14.4584 H   0  0  0  0  0  0  0  0  0  0  0  0
   21.2747   13.3484   12.0398 H   0  0  0  0  0  0  0  0  0  0  0  0
   21.9382   13.8513    9.7700 H   0  0  0  0  0  0  0  0  0  0  0  0
   22.1030   16.0466    4.9756 H   0  0  0  0  0  0  0  0  0  0  0  0
  1  2  1  0
  2  3  1  0
  3  4  2  0
  4  5  1  0
  5  6  1  0
  6  7  2  0
  6  8  2  0
  6  9  1  0
  9 10  2  0
 10 11  1  0
 11 12  2  0
 12 13  1  0
 13 14  1  0
 14 15  2  0
 14 16  1  0
 16 17  1  0
 17 18  1  0
 18 19  1  0
 19 20  1  0
 20 21  2  0
 20 22  1  0
 22 23  1  0
 23 24  2  0
 13 25  2  0
 25 26  1  0
 26 27  2  0
 27 28  1  0
 28 29  2  0
  5 30  1  0
 30 31  2  0
 31  3  1  0
 29  9  1  0
 28 12  1  0
 23 17  1  0
  1 32  1  0
  1 33  1  0
  1 34  1  0
  2 35  1  0
  2 36  1  0
  4 37  1  0
 10 38  1  0
 11 39  1  0
 16 40  1  0
 17 41  1  1
 18 42  1  0
 18 43  1  0
 19 44  1  0
 19 45  1  0
 22 46  1  0
 26 47  1  0
 27 48  1  0
 29 49  1  0
 30 50  1  0
M  END
>  <meeko>  (701) 
{"is_sidechain": [true], "free_energy": -10.59, "intermolecular_energy": 0.0, "internal_energy": -10.59, "cluster_size": 19, "cluster_id": 1, "rank_in_cluster": 1}

>  <_RMSD_MCS_to_ref>  (701) 
0.8630281957541518

$$$$
ligand
     RDKit          3D

 41 43  0  0  0  0  0  0  0  0999 V2000
   18.9090   19.1540    7.5370 C   0  0  0  0  0  0  0  0  0  0  0  0
   18.7730   17.6460    7.6780 C   0  0  0  0  0  0  0  0  0  0  0  0
   20.0950   16.9660    7.7480 C   0  0  0  0  0  0  0  0  0  0  0  0
   20.6730   16.2960    8.8080 C   0  0  0  0  0  0  0  0  0  0  0  0
   21.8860   15.8960    8.3280 N   0  0  0  0  0  0  0  0  0  0  0  0
   22.9800   14.9090    9.1180 S   0  0  0  0  0  6  0  0  0  0  0  0
   24.2950   15.2390    8.6010 O   0  0  0  0  0  0  0  0  0  0  0  0
   22.4470   13.5620    9.0660 O   0  0  0  0  0  0  0  0  0  0  0  0
   23.0360   15.3260   10.8080 C   0  0  0  0  0  0  0  0  0  0  0  0
   22.0270   15.3310   11.6550 N   0  0  0  0  0  0  0  0  0  0  0  0
   22.5110   15.7260   12.8830 N   0  0  0  0  0  0  0  0  0  0  0  0
   23.8040   15.9520   12.7550 C   0  0  0  0  0  0  0  0  0  0  0  0
   24.6910   16.3840   13.8070 C   0  0  0  0  0  0  0  0  0  0  0  0
   25.1290   15.6190   14.6620 O   0  0  0  0  0  0  0  0  0  0  0  0
   25.0110   17.7200   13.7700 N   0  0  0  0  0  0  0  0  0  0  0  0
   25.9890   18.3150   14.6620 C   0  0  2  0  0  0  0  0  0  0  0  0
   25.6710   18.0320   16.1270 C   0  0  0  0  0  0  0  0  0  0  0  0
   26.7130   18.6970   17.0120 C   0  0  0  0  0  0  0  0  0  0  0  0
   26.8060   20.1800   16.7330 C   0  0  0  0  0  0  0  0  0  0  0  0
   27.0760   20.9970   17.6070 O   0  0  0  0  0  0  0  0  0  0  0  0
   26.6060   20.5740   15.4350 N   0  0  0  0  0  0  0  0  0  0  0  0
   26.0200   19.8300   14.4390 C   0  0  0  0  0  0  0  0  0  0  0  0
   25.5690   20.3680   13.4290 O   0  0  0  0  0  0  0  0  0  0  0  0
   24.1710   15.7110   11.4600 N   0  0  0  0  0  0  0  0  0  0  0  0
   21.9900   16.2540    7.0230 C   0  0  0  0  0  0  0  0  0  0  0  0
   20.9280   16.9340    6.6460 N   0  0  0  0  0  0  0  0  0  0  0  0
   18.9504   19.6134    8.5356 H   0  0  0  0  0  0  0  0  0  0  0  0
   19.8320   19.3891    6.9867 H   0  0  0  0  0  0  0  0  0  0  0  0
   18.0430   19.5504    6.9867 H   0  0  0  0  0  0  0  0  0  0  0  0
   18.2121   17.4255    8.5982 H   0  0  0  0  0  0  0  0  0  0  0  0
   18.2467   17.2699    6.7883 H   0  0  0  0  0  0  0  0  0  0  0  0
   20.2521   16.1241    9.8097 H   0  0  0  0  0  0  0  0  0  0  0  0
   24.5379   18.3230   13.0819 H   0  0  0  0  0  0  0  0  0  0  0  0
   26.9680   17.8680   14.4348 H   0  0  0  0  0  0  0  0  0  0  0  0
   24.6754   18.4320   16.3695 H   0  0  0  0  0  0  0  0  0  0  0  0
   25.6833   16.9459   16.3006 H   0  0  0  0  0  0  0  0  0  0  0  0
   26.4358   18.5475   18.0660 H   0  0  0  0  0  0  0  0  0  0  0  0
   27.6913   18.2418   16.7981 H   0  0  0  0  0  0  0  0  0  0  0  0
   26.9261   21.5197   15.1817 H   0  0  0  0  0  0  0  0  0  0  0  0
   25.1148   15.8019   11.0576 H   0  0  0  0  0  0  0  0  0  0  0  0
   22.8423   16.0101    6.3718 H   0  0  0  0  0  0  0  0  0  0  0  0
  1  2  1  0
  2  3  1  0
  3  4  2  0
  4  5  1  0
  5  6  1  0
  6  7  2  0
  6  8  2  0
  6  9  1  0
  9 10  2  0
 10 11  1  0
 11 12  2  0
 12 13  1  0
 13 14  2  0
 13 15  1  0
 15 16  1  0
 16 17  1  0
 17 18  1  0
 18 19  1  0
 19 20  2  0
 19 21  1  0
 21 22  1  0
 22 23  2  0
 12 24  1  0
  5 25  1  0
 25 26  2  0
 26  3  1  0
 24  9  1  0
 22 16  1  0
  1 27  1  0
  1 28  1  0
  1 29  1  0
  2 30  1  0
  2 31  1  0
  4 32  1  0
 15 33  1  0
 16 34  1  6
 17 35  1  0
 17 36  1  0
 18 37  1  0
 18 38  1  0
 21 39  1  0
 24 40  1  0
 25 41  1  0
M  END
>  <meeko>  (702) 
{"is_sidechain": [true], "free_energy": -10.59, "intermolecular_energy": 0.0, "internal_energy": -10.59, "cluster_size": 19, "cluster_id": 1, "rank_in_cluster": 1}

>  <_RMSD_MCS_to_ref>  (702) 
0.7297338175283125

$$$$
ligand
     RDKit          3D

 51 54  0  0  0  0  0  0  0  0999 V2000
   18.9090   19.1540    7.5370 C   0  0  0  0  0  0  0  0  0  0  0  0
   18.7730   17.6460    7.6780 C   0  0  0  0  0  0  0  0  0  0  0  0
   20.0930   16.9580    7.6570 C   0  0  0  0  0  0  0  0  0  0  0  0
   20.9430   16.6770    8.7080 C   0  0  0  0  0  0  0  0  0  0  0  0
   21.9880   16.0200    8.1280 N   0  0  0  0  0  0  0  0  0  0  0  0
   23.4460   15.6370    8.8710 S   0  0  0  0  0  6  0  0  0  0  0  0
   23.8590   14.3620    8.3180 O   0  0  0  0  0  0  0  0  0  0  0  0
   24.2660   16.8300    8.7600 O   0  0  0  0  0  0  0  0  0  0  0  0
   22.9970   15.3960   10.5680 C   0  0  0  0  0  0  0  0  0  0  0  0
   23.8590   15.9230   11.5430 C   0  0  0  0  0  0  0  0  0  0  0  0
   23.5730   15.7540   12.9020 C   0  0  0  0  0  0  0  0  0  0  0  0
   24.5300   16.3110   13.8960 C   0  0  0  0  0  0  0  0  0  0  0  0
   25.0660   15.5650   14.7080 O   0  0  0  0  0  0  0  0  0  0  0  0
   24.7870   17.6600   13.8270 N   0  0  0  0  0  0  0  0  0  0  0  0
   25.8200   18.2710   14.6520 C   0  0  2  0  0  0  0  0  0  0  0  0
   25.6340   17.9630   16.1340 C   0  0  0  0  0  0  0  0  0  0  0  0
   26.7180   18.6650   16.9380 C   0  0  0  0  0  0  0  0  0  0  0  0
   26.7230   20.1520   16.6690 C   0  0  0  0  0  0  0  0  0  0  0  0
   27.0100   20.9760   17.5320 O   0  0  0  0  0  0  0  0  0  0  0  0
   26.4180   20.5470   15.3910 N   0  0  0  0  0  0  0  0  0  0  0  0
   25.7680   19.7890   14.4490 C   0  0  0  0  0  0  0  0  0  0  0  0
   25.1910   20.3120   13.4950 O   0  0  0  0  0  0  0  0  0  0  0  0
   22.4320   15.0470   13.2810 C   0  0  0  0  0  0  0  0  0  0  0  0
   21.5720   14.5280   12.3070 C   0  0  0  0  0  0  0  0  0  0  0  0
   21.8360   14.7070   10.9430 C   0  0  0  0  0  0  0  0  0  0  0  0
   20.9160   14.2140   10.0120 N   0  0  0  0  0  0  0  0  0  0  0  0
   19.8210   13.4800   10.3730 C   0  0  0  0  0  0  0  0  0  0  0  0
   19.0030   13.0960    9.5430 O   0  0  0  0  0  0  0  0  0  0  0  0
   19.7420   13.1190   11.8510 C   0  0  0  0  0  0  0  0  0  0  0  0
   20.4630   13.8920   12.7970 O   0  0  0  0  0  0  0  0  0  0  0  0
   21.7860   15.9590    6.7860 C   0  0  0  0  0  0  0  0  0  0  0  0
   20.6360   16.5150    6.4680 N   0  0  0  0  0  0  0  0  0  0  0  0
   18.9504   19.6134    8.5356 H   0  0  0  0  0  0  0  0  0  0  0  0
   19.8320   19.3891    6.9867 H   0  0  0  0  0  0  0  0  0  0  0  0
   18.0430   19.5504    6.9867 H   0  0  0  0  0  0  0  0  0  0  0  0
   18.2725   17.4231    8.6318 H   0  0  0  0  0  0  0  0  0  0  0  0
   18.1869   17.2783    6.8228 H   0  0  0  0  0  0  0  0  0  0  0  0
   20.8081   16.9262    9.7709 H   0  0  0  0  0  0  0  0  0  0  0  0
   24.7626   16.4708   11.2372 H   0  0  0  0  0  0  0  0  0  0  0  0
   24.2403   18.2477   13.1816 H   0  0  0  0  0  0  0  0  0  0  0  0
   26.7917   17.8564   14.3456 H   0  0  0  0  0  0  0  0  0  0  0  0
   24.6461   18.3192   16.4613 H   0  0  0  0  0  0  0  0  0  0  0  0
   25.7040   16.8770   16.2943 H   0  0  0  0  0  0  0  0  0  0  0  0
   26.5366   18.4950   18.0095 H   0  0  0  0  0  0  0  0  0  0  0  0
   27.6937   18.2542   16.6393 H   0  0  0  0  0  0  0  0  0  0  0  0
   26.7022   21.4973   15.1135 H   0  0  0  0  0  0  0  0  0  0  0  0
   22.2079   14.8972   14.3475 H   0  0  0  0  0  0  0  0  0  0  0  0
   21.0700   14.4123    9.0131 H   0  0  0  0  0  0  0  0  0  0  0  0
   18.6811   13.1708   12.1370 H   0  0  0  0  0  0  0  0  0  0  0  0
   20.2237   12.1314   11.9025 H   0  0  0  0  0  0  0  0  0  0  0  0
   22.4852   15.5083    6.0662 H   0  0  0  0  0  0  0  0  0  0  0  0
  1  2  1  0
  2  3  1  0
  3  4  2  0
  4  5  1  0
  5  6  1  0
  6  7  2  0
  6  8  2  0
  6  9  1  0
  9 10  2  0
 10 11  1  0
 11 12  1  0
 12 13  2  0
 12 14  1  0
 14 15  1  0
 15 16  1  0
 16 17  1  0
 17 18  1  0
 18 19  2  0
 18 20  1  0
 20 21  1  0
 21 22  2  0
 11 23  2  0
 23 24  1  0
 24 25  2  0
 25 26  1  0
 26 27  1  0
 27 28  2  0
 27 29  1  0
 29 30  1  0
  5 31  1  0
 31 32  2  0
 32  3  1  0
 25  9  1  0
 21 15  1  0
 30 24  1  0
  1 33  1  0
  1 34  1  0
  1 35  1  0
  2 36  1  0
  2 37  1  0
  4 38  1  0
 10 39  1  0
 14 40  1  0
 15 41  1  6
 16 42  1  0
 16 43  1  0
 17 44  1  0
 17 45  1  0
 20 46  1  0
 23 47  1  0
 26 48  1  0
 29 49  1  0
 29 50  1  0
 31 51  1  0
M  END
>  <meeko>  (703) 
{"is_sidechain": [true], "free_energy": -10.59, "intermolecular_energy": 0.0, "internal_energy": -10.59, "cluster_size": 18, "cluster_id": 1, "rank_in_cluster": 1}

>  <_RMSD_MCS_to_ref>  (703) 
0.5831706439799589

$$$$
ligand
     RDKit          3D

 47 50  0  0  0  0  0  0  0  0999 V2000
   18.9090   19.1540    7.5370 C   0  0  0  0  0  0  0  0  0  0  0  0
   18.7730   17.6460    7.6780 C   0  0  0  0  0  0  0  0  0  0  0  0
   20.0890   16.9780    7.8680 C   0  0  0  0  0  0  0  0  0  0  0  0
   20.4900   16.1180    8.8720 C   0  0  0  0  0  0  0  0  0  0  0  0
   21.7660   15.7790    8.5260 N   0  0  0  0  0  0  0  0  0  0  0  0
   22.7740   14.7330    9.3830 S   0  0  0  0  0  6  0  0  0  0  0  0
   23.9010   15.5870    9.7250 O   0  0  0  0  0  0  0  0  0  0  0  0
   22.9710   13.5800    8.5230 O   0  0  0  0  0  0  0  0  0  0  0  0
   21.9790   14.2320   10.8480 C   0  0  0  0  0  0  0  0  0  0  0  0
   21.2330   13.1140   10.8100 C   0  0  0  0  0  0  0  0  0  0  0  0
   20.5120   12.7630   12.3540 S   0  0  0  0  0  0  0  0  0  0  0  0
   21.2620   14.1790   13.0560 C   0  0  0  0  0  0  0  0  0  0  0  0
   21.1410   14.5260   14.2900 N   0  0  0  0  0  0  0  0  0  0  0  0
   21.8580   15.6390   14.6650 C   0  0  0  0  0  0  0  0  0  0  0  0
   22.5850   16.4110   13.8420 C   0  0  0  0  0  0  0  0  0  0  0  0
   23.3920   17.5250   14.4170 C   0  0  0  0  0  0  0  0  0  0  0  0
   23.0070   18.1660   15.3900 O   0  0  0  0  0  0  0  0  0  0  0  0
   24.6130   17.7430   13.8190 N   0  0  0  0  0  0  0  0  0  0  0  0
   25.6960   18.3590   14.5700 C   0  0  2  0  0  0  0  0  0  0  0  0
   25.6160   17.9820   16.0440 C   0  0  0  0  0  0  0  0  0  0  0  0
   26.7400   18.6690   16.8030 C   0  0  0  0  0  0  0  0  0  0  0  0
   26.7070   20.1650   16.6030 C   0  0  0  0  0  0  0  0  0  0  0  0
   27.0890   20.9520   17.4660 O   0  0  0  0  0  0  0  0  0  0  0  0
   26.2640   20.6160   15.3850 N   0  0  0  0  0  0  0  0  0  0  0  0
   25.5880   19.8880   14.4360 C   0  0  0  0  0  0  0  0  0  0  0  0
   24.9650   20.4540   13.5370 O   0  0  0  0  0  0  0  0  0  0  0  0
   22.5900   16.0380   12.4060 C   0  0  0  0  0  0  0  0  0  0  0  0
   23.1100   16.7760   11.5730 O   0  0  0  0  0  0  0  0  0  0  0  0
   21.9920   14.8430   12.0960 N   0  0  0  0  0  0  0  0  0  0  0  0
   22.1330   16.4780    7.4210 C   0  0  0  0  0  0  0  0  0  0  0  0
   21.1210   17.1920    6.9720 N   0  0  0  0  0  0  0  0  0  0  0  0
   18.9504   19.6134    8.5356 H   0  0  0  0  0  0  0  0  0  0  0  0
   19.8320   19.3891    6.9867 H   0  0  0  0  0  0  0  0  0  0  0  0
   18.0430   19.5504    6.9867 H   0  0  0  0  0  0  0  0  0  0  0  0
   18.1361   17.4276    8.5478 H   0  0  0  0  0  0  0  0  0  0  0  0
   18.3289   17.2588    6.7491 H   0  0  0  0  0  0  0  0  0  0  0  0
   19.9142   15.7838    9.7476 H   0  0  0  0  0  0  0  0  0  0  0  0
   21.0951   12.4956    9.9108 H   0  0  0  0  0  0  0  0  0  0  0  0
   21.8333   15.9196   15.7283 H   0  0  0  0  0  0  0  0  0  0  0  0
   24.7600   17.4691   12.8370 H   0  0  0  0  0  0  0  0  0  0  0  0
   26.6553   18.0019   14.1672 H   0  0  0  0  0  0  0  0  0  0  0  0
   24.6469   18.3037   16.4530 H   0  0  0  0  0  0  0  0  0  0  0  0
   25.7141   16.8915   16.1501 H   0  0  0  0  0  0  0  0  0  0  0  0
   26.6340   18.4491   17.8756 H   0  0  0  0  0  0  0  0  0  0  0  0
   27.6986   18.2899   16.4192 H   0  0  0  0  0  0  0  0  0  0  0  0
   26.4583   21.6019   15.1590 H   0  0  0  0  0  0  0  0  0  0  0  0
   23.1338   16.4517    6.9653 H   0  0  0  0  0  0  0  0  0  0  0  0
  1  2  1  0
  2  3  1  0
  3  4  2  0
  4  5  1  0
  5  6  1  0
  6  7  2  0
  6  8  2  0
  6  9  1  0
  9 10  2  0
 10 11  1  0
 11 12  1  0
 12 13  2  0
 13 14  1  0
 14 15  2  0
 15 16  1  0
 16 17  2  0
 16 18  1  0
 18 19  1  0
 19 20  1  0
 20 21  1  0
 21 22  1  0
 22 23  2  0
 22 24  1  0
 24 25  1  0
 25 26  2  0
 15 27  1  0
 27 28  2  0
 27 29  1  0
  5 30  1  0
 30 31  2  0
 31  3  1  0
 29  9  1  0
 29 12  1  0
 25 19  1  0
  1 32  1  0
  1 33  1  0
  1 34  1  0
  2 35  1  0
  2 36  1  0
  4 37  1  0
 10 38  1  0
 14 39  1  0
 18 40  1  0
 19 41  1  6
 20 42  1  0
 20 43  1  0
 21 44  1  0
 21 45  1  0
 24 46  1  0
 30 47  1  0
M  END
>  <meeko>  (704) 
{"is_sidechain": [true], "free_energy": -10.59, "intermolecular_energy": 0.0, "internal_energy": -10.59, "cluster_size": 15, "cluster_id": 1, "rank_in_cluster": 1}

>  <_RMSD_MCS_to_ref>  (704) 
0.5075586446685532

$$$$
ligand
     RDKit          3D

 47 50  0  0  0  0  0  0  0  0999 V2000
   18.9090   19.1540    7.5370 C   0  0  0  0  0  0  0  0  0  0  0  0
   18.7730   17.6460    7.6780 C   0  0  0  0  0  0  0  0  0  0  0  0
   20.0040   16.9300    7.2490 C   0  0  0  0  0  0  0  0  0  0  0  0
   20.6520   15.8750    7.8630 C   0  0  0  0  0  0  0  0  0  0  0  0
   21.6830   15.5810    7.0190 N   0  0  0  0  0  0  0  0  0  0  0  0
   22.8870   14.4280    7.2540 S   0  0  0  0  0  6  0  0  0  0  0  0
   23.4570   14.1630    5.9450 O   0  0  0  0  0  0  0  0  0  0  0  0
   22.1810   13.3690    7.9600 O   0  0  0  0  0  0  0  0  0  0  0  0
   24.1120   15.0860    8.3000 C   0  0  0  0  0  0  0  0  0  0  0  0
   25.3340   15.3070    7.7870 C   0  0  0  0  0  0  0  0  0  0  0  0
   26.4100   16.0190    8.9520 S   0  0  0  0  0  0  0  0  0  0  0  0
   25.1350   16.0400   10.1530 C   0  0  0  0  0  0  0  0  0  0  0  0
   25.2880   16.5050   11.3430 N   0  0  0  0  0  0  0  0  0  0  0  0
   24.1650   16.4430   12.1430 C   0  0  0  0  0  0  0  0  0  0  0  0
   24.2430   16.9890   13.5470 C   0  0  0  0  0  0  0  0  0  0  0  0
   23.5330   16.5900   14.4610 O   0  0  0  0  0  0  0  0  0  0  0  0
   25.1760   17.9860   13.6800 N   0  0  0  0  0  0  0  0  0  0  0  0
   25.3160   18.7660   14.8980 C   0  0  1  0  0  0  0  0  0  0  0  0
   26.1910   18.0620   15.9290 C   0  0  0  0  0  0  0  0  0  0  0  0
   26.3200   18.9360   17.1670 C   0  0  0  0  0  0  0  0  0  0  0  0
   26.8520   20.3060   16.8180 C   0  0  0  0  0  0  0  0  0  0  0  0
   27.5760   20.9440   17.5770 O   0  0  0  0  0  0  0  0  0  0  0  0
   26.4600   20.8280   15.6110 N   0  0  0  0  0  0  0  0  0  0  0  0
   25.9380   20.1240   14.5550 C   0  0  0  0  0  0  0  0  0  0  0  0
   25.9620   20.5830   13.4140 O   0  0  0  0  0  0  0  0  0  0  0  0
   22.9880   15.9300   11.7640 C   0  0  0  0  0  0  0  0  0  0  0  0
   22.8670   15.3810   10.4030 C   0  0  0  0  0  0  0  0  0  0  0  0
   21.8210   14.8430   10.0630 O   0  0  0  0  0  0  0  0  0  0  0  0
   23.9870   15.4930    9.6220 N   0  0  0  0  0  0  0  0  0  0  0  0
   21.7030   16.4890    6.0080 C   0  0  0  0  0  0  0  0  0  0  0  0
   20.6710   17.3010    6.0940 N   0  0  0  0  0  0  0  0  0  0  0  0
   18.9504   19.6134    8.5356 H   0  0  0  0  0  0  0  0  0  0  0  0
   19.8320   19.3891    6.9867 H   0  0  0  0  0  0  0  0  0  0  0  0
   18.0430   19.5504    6.9867 H   0  0  0  0  0  0  0  0  0  0  0  0
   18.5720   17.4052    8.7323 H   0  0  0  0  0  0  0  0  0  0  0  0
   17.9474   17.3185    7.0290 H   0  0  0  0  0  0  0  0  0  0  0  0
   20.3955   15.3849    8.8138 H   0  0  0  0  0  0  0  0  0  0  0  0
   25.6197   15.0660    6.7525 H   0  0  0  0  0  0  0  0  0  0  0  0
   25.8007   18.1893   12.8867 H   0  0  0  0  0  0  0  0  0  0  0  0
   24.3147   18.8935   15.3352 H   0  0  0  0  0  0  0  0  0  0  0  0
   25.7317   17.1013   16.2048 H   0  0  0  0  0  0  0  0  0  0  0  0
   27.1886   17.8826   15.5016 H   0  0  0  0  0  0  0  0  0  0  0  0
   25.3300   19.0442   17.6341 H   0  0  0  0  0  0  0  0  0  0  0  0
   27.0263   18.4551   17.8597 H   0  0  0  0  0  0  0  0  0  0  0  0
   26.5678   21.8447   15.4857 H   0  0  0  0  0  0  0  0  0  0  0  0
   22.1309   15.9188   12.4534 H   0  0  0  0  0  0  0  0  0  0  0  0
   22.4750   16.5384    5.2260 H   0  0  0  0  0  0  0  0  0  0  0  0
  1  2  1  0
  2  3  1  0
  3  4  2  0
  4  5  1  0
  5  6  1  0
  6  7  2  0
  6  8  2  0
  6  9  1  0
  9 10  2  0
 10 11  1  0
 11 12  1  0
 12 13  2  0
 13 14  1  0
 14 15  1  0
 15 16  2  0
 15 17  1  0
 17 18  1  0
 18 19  1  0
 19 20  1  0
 20 21  1  0
 21 22  2  0
 21 23  1  0
 23 24  1  0
 24 25  2  0
 14 26  2  0
 26 27  1  0
 27 28  2  0
 27 29  1  0
  5 30  1  0
 30 31  2  0
 31  3  1  0
 29  9  1  0
 29 12  1  0
 24 18  1  0
  1 32  1  0
  1 33  1  0
  1 34  1  0
  2 35  1  0
  2 36  1  0
  4 37  1  0
 10 38  1  0
 17 39  1  0
 18 40  1  1
 19 41  1  0
 19 42  1  0
 20 43  1  0
 20 44  1  0
 23 45  1  0
 26 46  1  0
 30 47  1  0
M  END
>  <meeko>  (705) 
{"is_sidechain": [true], "free_energy": -10.59, "intermolecular_energy": 0.0, "internal_energy": -10.59, "cluster_size": 19, "cluster_id": 1, "rank_in_cluster": 1}

>  <_RMSD_MCS_to_ref>  (705) 
0.7602170742623451

$$$$
ligand
     RDKit          3D

 49 53  0  0  0  0  0  0  0  0999 V2000
   18.9090   19.1540    7.5370 C   0  0  0  0  0  0  0  0  0  0  0  0
   18.7730   17.6460    7.6780 C   0  0  0  0  0  0  0  0  0  0  0  0
   19.8870   16.9160    7.0130 C   0  0  0  0  0  0  0  0  0  0  0  0
   21.2350   16.9270    7.3150 C   0  0  0  0  0  0  0  0  0  0  0  0
   21.7940   16.1080    6.3760 N   0  0  0  0  0  0  0  0  0  0  0  0
   23.3840   15.5630    6.3650 S   0  0  0  0  0  6  0  0  0  0  0  0
   24.1940   16.7010    5.9810 O   0  0  0  0  0  0  0  0  0  0  0  0
   23.3700   14.3260    5.6090 O   0  0  0  0  0  0  0  0  0  0  0  0
   23.7050   15.1900    8.0710 C   0  0  0  0  0  0  0  0  0  0  0  0
   24.1310   13.9020    8.4240 C   0  0  0  0  0  0  0  0  0  0  0  0
   24.3910   13.5850    9.7650 C   0  0  0  0  0  0  0  0  0  0  0  0
   24.2260   14.5830   10.7440 C   0  0  0  0  0  0  0  0  0  0  0  0
   23.8140   15.8510   10.3420 C   0  0  0  0  0  0  0  0  0  0  0  0
   23.5460   16.2070    9.0230 C   0  0  0  0  0  0  0  0  0  0  0  0
   23.7080   16.6860   11.4130 O   0  0  0  0  0  0  0  0  0  0  0  0
   24.0590   15.9600   12.5120 C   0  0  0  0  0  0  0  0  0  0  0  0
   24.1230   16.3490   13.8370 C   0  0  0  0  0  0  0  0  0  0  0  0
   23.7090   17.9850   14.3520 S   0  0  0  0  0  0  0  0  0  0  0  0
   25.3420   18.5360   14.9690 C   0  0  2  0  0  0  0  0  0  0  0  0
   25.3680   18.3360   16.4840 C   0  0  0  0  0  0  0  0  0  0  0  0
   26.7120   18.7940   17.0310 C   0  0  0  0  0  0  0  0  0  0  0  0
   26.9780   20.2360   16.6740 C   0  0  0  0  0  0  0  0  0  0  0  0
   27.7120   20.9550   17.3450 O   0  0  0  0  0  0  0  0  0  0  0  0
   26.4040   20.6920   15.5150 N   0  0  0  0  0  0  0  0  0  0  0  0
   25.5960   20.0070   14.6330 C   0  0  0  0  0  0  0  0  0  0  0  0
   25.1820   20.5800   13.6280 O   0  0  0  0  0  0  0  0  0  0  0  0
   24.4890   15.4210   14.7540 N   0  0  0  0  0  0  0  0  0  0  0  0
   24.7870   14.1810   14.3120 C   0  0  0  0  0  0  0  0  0  0  0  0
   24.7580   13.7200   13.0500 N   0  0  0  0  0  0  0  0  0  0  0  0
   24.3820   14.6610   12.1520 C   0  0  0  0  0  0  0  0  0  0  0  0
   20.8130   15.5980    5.5880 C   0  0  0  0  0  0  0  0  0  0  0  0
   19.6390   16.0780    5.9430 N   0  0  0  0  0  0  0  0  0  0  0  0
   18.9504   19.6134    8.5356 H   0  0  0  0  0  0  0  0  0  0  0  0
   19.8320   19.3891    6.9867 H   0  0  0  0  0  0  0  0  0  0  0  0
   18.0430   19.5504    6.9867 H   0  0  0  0  0  0  0  0  0  0  0  0
   18.7698   17.3891    8.7476 H   0  0  0  0  0  0  0  0  0  0  0  0
   17.8338   17.3448    7.1910 H   0  0  0  0  0  0  0  0  0  0  0  0
   21.7418   17.4707    8.1258 H   0  0  0  0  0  0  0  0  0  0  0  0
   24.2620   13.1362    7.6453 H   0  0  0  0  0  0  0  0  0  0  0  0
   24.7184   12.5735   10.0472 H   0  0  0  0  0  0  0  0  0  0  0  0
   23.2292   17.2230    8.7450 H   0  0  0  0  0  0  0  0  0  0  0  0
   26.1331   17.9452   14.4841 H   0  0  0  0  0  0  0  0  0  0  0  0
   24.5632   18.9265   16.9460 H   0  0  0  0  0  0  0  0  0  0  0  0
   25.2201   17.2711   16.7167 H   0  0  0  0  0  0  0  0  0  0  0  0
   26.7094   18.6891   18.1260 H   0  0  0  0  0  0  0  0  0  0  0  0
   27.5021   18.1713   16.5861 H   0  0  0  0  0  0  0  0  0  0  0  0
   26.6023   21.6731   15.2722 H   0  0  0  0  0  0  0  0  0  0  0  0
   25.0920   13.4566   15.0816 H   0  0  0  0  0  0  0  0  0  0  0  0
   20.9760   14.8836    4.7676 H   0  0  0  0  0  0  0  0  0  0  0  0
  1  2  1  0
  2  3  1  0
  3  4  2  0
  4  5  1  0
  5  6  1  0
  6  7  2  0
  6  8  2  0
  6  9  1  0
  9 10  2  0
 10 11  1  0
 11 12  2  0
 12 13  1  0
 13 14  2  0
 13 15  1  0
 15 16  1  0
 16 17  2  0
 17 18  1  0
 18 19  1  0
 19 20  1  0
 20 21  1  0
 21 22  1  0
 22 23  2  0
 22 24  1  0
 24 25  1  0
 25 26  2  0
 17 27  1  0
 27 28  2  0
 28 29  1  0
 29 30  2  0
  5 31  1  0
 31 32  2  0
 32  3  1  0
 14  9  1  0
 30 16  1  0
 30 12  1  0
 25 19  1  0
  1 33  1  0
  1 34  1  0
  1 35  1  0
  2 36  1  0
  2 37  1  0
  4 38  1  0
 10 39  1  0
 11 40  1  0
 14 41  1  0
 19 42  1  6
 20 43  1  0
 20 44  1  0
 21 45  1  0
 21 46  1  0
 24 47  1  0
 28 48  1  0
 31 49  1  0
M  END
>  <meeko>  (706) 
{"is_sidechain": [true], "free_energy": -10.59, "intermolecular_energy": 0.0, "internal_energy": -10.59, "cluster_size": 20, "cluster_id": 1, "rank_in_cluster": 1}

>  <_RMSD_MCS_to_ref>  (706) 
0.6783370290644616

$$$$
ligand
     RDKit          3D

 49 52  0  0  0  0  0  0  0  0999 V2000
   18.9090   19.1540    7.5370 C   0  0  0  0  0  0  0  0  0  0  0  0
   18.7730   17.6460    7.6780 C   0  0  0  0  0  0  0  0  0  0  0  0
   20.0200   16.9310    7.2910 C   0  0  0  0  0  0  0  0  0  0  0  0
   20.7560   16.0140    8.0150 C   0  0  0  0  0  0  0  0  0  0  0  0
   21.7780   15.6690    7.1780 N   0  0  0  0  0  0  0  0  0  0  0  0
   23.1020   14.7270    7.5910 S   0  0  0  0  0  6  0  0  0  0  0  0
   24.1490   15.0410    6.6390 O   0  0  0  0  0  0  0  0  0  0  0  0
   22.5900   13.3860    7.7920 O   0  0  0  0  0  0  0  0  0  0  0  0
   23.6860   15.2410    9.1300 C   0  0  0  0  0  0  0  0  0  0  0  0
   24.9100   15.8350    9.3680 C   0  0  0  0  0  0  0  0  0  0  0  0
   25.0100   16.0540   10.7110 N   0  0  0  0  0  0  0  0  0  0  0  0
   23.8720   15.6110   11.3570 C   0  0  0  0  0  0  0  0  0  0  0  0
   23.5510   15.6400   12.7280 C   0  0  0  0  0  0  0  0  0  0  0  0
   24.5250   16.2220   13.6960 C   0  0  0  0  0  0  0  0  0  0  0  0
   25.1200   15.4920   14.4860 O   0  0  0  0  0  0  0  0  0  0  0  0
   24.7430   17.5790   13.6300 N   0  0  0  0  0  0  0  0  0  0  0  0
   25.7820   18.2140   14.4290 C   0  0  2  0  0  0  0  0  0  0  0  0
   25.6370   17.9110   15.9160 C   0  0  0  0  0  0  0  0  0  0  0  0
   26.7240   18.6380   16.6920 C   0  0  0  0  0  0  0  0  0  0  0  0
   26.6970   20.1230   16.4160 C   0  0  0  0  0  0  0  0  0  0  0  0
   26.9920   20.9570   17.2670 O   0  0  0  0  0  0  0  0  0  0  0  0
   26.3510   20.5050   15.1440 N   0  0  0  0  0  0  0  0  0  0  0  0
   25.6960   19.7300   14.2210 C   0  0  0  0  0  0  0  0  0  0  0  0
   25.0890   20.2370   13.2770 O   0  0  0  0  0  0  0  0  0  0  0  0
   22.3170   15.0890   13.1080 C   0  0  0  0  0  0  0  0  0  0  0  0
   21.4400   14.5720   12.1570 C   0  0  0  0  0  0  0  0  0  0  0  0
   21.7710   14.5760   10.7960 C   0  0  0  0  0  0  0  0  0  0  0  0
   23.0150   15.0950   10.3800 C   0  0  0  0  0  0  0  0  0  0  0  0
   21.6770   16.3900    6.0330 C   0  0  0  0  0  0  0  0  0  0  0  0
   20.6100   17.1600    6.0630 N   0  0  0  0  0  0  0  0  0  0  0  0
   18.9504   19.6134    8.5356 H   0  0  0  0  0  0  0  0  0  0  0  0
   19.8320   19.3891    6.9867 H   0  0  0  0  0  0  0  0  0  0  0  0
   18.0430   19.5504    6.9867 H   0  0  0  0  0  0  0  0  0  0  0  0
   18.5386   17.4078    8.7260 H   0  0  0  0  0  0  0  0  0  0  0  0
   17.9700   17.3145    7.0032 H   0  0  0  0  0  0  0  0  0  0  0  0
   20.5630   15.6456    9.0334 H   0  0  0  0  0  0  0  0  0  0  0  0
   25.6677   16.0862    8.6112 H   0  0  0  0  0  0  0  0  0  0  0  0
   25.8194   16.4881   11.1772 H   0  0  0  0  0  0  0  0  0  0  0  0
   24.1616   18.1554   13.0050 H   0  0  0  0  0  0  0  0  0  0  0  0
   26.7538   17.8157   14.1018 H   0  0  0  0  0  0  0  0  0  0  0  0
   24.6499   18.2492   16.2642 H   0  0  0  0  0  0  0  0  0  0  0  0
   25.7332   16.8275   16.0796 H   0  0  0  0  0  0  0  0  0  0  0  0
   26.5686   18.4708   17.7681 H   0  0  0  0  0  0  0  0  0  0  0  0
   27.7002   18.2438   16.3734 H   0  0  0  0  0  0  0  0  0  0  0  0
   26.6064   21.4605   14.8563 H   0  0  0  0  0  0  0  0  0  0  0  0
   22.0386   15.0651   14.1719 H   0  0  0  0  0  0  0  0  0  0  0  0
   20.4745   14.1550   12.4793 H   0  0  0  0  0  0  0  0  0  0  0  0
   21.0637   14.1760   10.0545 H   0  0  0  0  0  0  0  0  0  0  0  0
   22.3884   16.3382    5.1956 H   0  0  0  0  0  0  0  0  0  0  0  0
  1  2  1  0
  2  3  1  0
  3  4  2  0
  4  5  1  0
  5  6  1  0
  6  7  2  0
  6  8  2  0
  6  9  1  0
  9 10  2  0
 10 11  1  0
 11 12  1  0
 12 13  2  0
 13 14  1  0
 14 15  2  0
 14 16  1  0
 16 17  1  0
 17 18  1  0
 18 19  1  0
 19 20  1  0
 20 21  2  0
 20 22  1  0
 22 23  1  0
 23 24  2  0
 13 25  1  0
 25 26  2  0
 26 27  1  0
 27 28  2  0
  5 29  1  0
 29 30  2  0
 30  3  1  0
 28  9  1  0
 28 12  1  0
 23 17  1  0
  1 31  1  0
  1 32  1  0
  1 33  1  0
  2 34  1  0
  2 35  1  0
  4 36  1  0
 10 37  1  0
 11 38  1  0
 16 39  1  0
 17 40  1  6
 18 41  1  0
 18 42  1  0
 19 43  1  0
 19 44  1  0
 22 45  1  0
 25 46  1  0
 26 47  1  0
 27 48  1  0
 29 49  1  0
M  END
>  <meeko>  (707) 
{"is_sidechain": [true], "free_energy": -10.58, "intermolecular_energy": 0.0, "internal_energy": -10.58, "cluster_size": 14, "cluster_id": 1, "rank_in_cluster": 1}

>  <_RMSD_MCS_to_ref>  (707) 
0.5482735403062965

$$$$
ligand
     RDKit          3D

 49 52  0  0  0  0  0  0  0  0999 V2000
   18.9090   19.1540    7.5370 C   0  0  0  0  0  0  0  0  0  0  0  0
   18.7730   17.6460    7.6780 C   0  0  0  0  0  0  0  0  0  0  0  0
   20.0950   16.9630    7.6970 C   0  0  0  0  0  0  0  0  0  0  0  0
   20.8830   16.6270    8.7800 C   0  0  0  0  0  0  0  0  0  0  0  0
   21.9710   16.0160    8.2260 N   0  0  0  0  0  0  0  0  0  0  0  0
   23.3830   15.5860    9.0310 S   0  0  0  0  0  6  0  0  0  0  0  0
   23.8000   14.3160    8.4690 O   0  0  0  0  0  0  0  0  0  0  0  0
   24.2200   16.7700    8.9900 O   0  0  0  0  0  0  0  0  0  0  0  0
   22.8580   15.3150   10.7040 C   0  0  0  0  0  0  0  0  0  0  0  0
   23.5160   15.9760   11.7400 C   0  0  0  0  0  0  0  0  0  0  0  0
   23.1330   15.7620   13.0760 C   0  0  0  0  0  0  0  0  0  0  0  0
   23.8970   16.4680   14.1310 C   0  0  0  0  0  0  0  0  0  0  0  0
   24.2770   15.8600   15.1260 O   0  0  0  0  0  0  0  0  0  0  0  0
   24.0810   17.8210   13.9650 N   0  0  0  0  0  0  0  0  0  0  0  0
   24.6640   18.6400   15.0180 C   0  0  1  0  0  0  0  0  0  0  0  0
   25.7950   17.9230   15.7480 C   0  0  0  0  0  0  0  0  0  0  0  0
   26.3820   18.8450   16.8050 C   0  0  0  0  0  0  0  0  0  0  0  0
   26.8430   20.1490   16.1990 C   0  0  0  0  0  0  0  0  0  0  0  0
   27.8190   20.7630   16.6200 O   0  0  0  0  0  0  0  0  0  0  0  0
   26.0960   20.6430   15.1590 N   0  0  0  0  0  0  0  0  0  0  0  0
   25.2140   19.9250   14.3900 C   0  0  0  0  0  0  0  0  0  0  0  0
   24.8850   20.3130   13.2690 O   0  0  0  0  0  0  0  0  0  0  0  0
   22.0370   14.9080   13.3590 C   0  0  0  0  0  0  0  0  0  0  0  0
   21.3290   14.5130   14.5350 C   0  0  0  0  0  0  0  0  0  0  0  0
   20.3280   13.6450   14.1640 C   0  0  0  0  0  0  0  0  0  0  0  0
   20.3790   13.5040   12.8060 N   0  0  0  0  0  0  0  0  0  0  0  0
   21.3990   14.2720   12.2870 C   0  0  0  0  0  0  0  0  0  0  0  0
   21.7860   14.4490   10.9520 C   0  0  0  0  0  0  0  0  0  0  0  0
   21.8470   16.0250    6.8750 C   0  0  0  0  0  0  0  0  0  0  0  0
   20.7120   16.5890    6.5190 N   0  0  0  0  0  0  0  0  0  0  0  0
   18.9504   19.6134    8.5356 H   0  0  0  0  0  0  0  0  0  0  0  0
   19.8320   19.3891    6.9867 H   0  0  0  0  0  0  0  0  0  0  0  0
   18.0430   19.5504    6.9867 H   0  0  0  0  0  0  0  0  0  0  0  0
   18.2457   17.4239    8.6175 H   0  0  0  0  0  0  0  0  0  0  0  0
   18.2126   17.2741    6.8076 H   0  0  0  0  0  0  0  0  0  0  0  0
   20.6804   16.8098    9.8456 H   0  0  0  0  0  0  0  0  0  0  0  0
   24.3393   16.6687   11.5112 H   0  0  0  0  0  0  0  0  0  0  0  0
   23.8008   18.2635   13.0781 H   0  0  0  0  0  0  0  0  0  0  0  0
   23.8765   18.8584   15.7543 H   0  0  0  0  0  0  0  0  0  0  0  0
   25.4027   17.0155   16.2302 H   0  0  0  0  0  0  0  0  0  0  0  0
   26.5786   17.6462   15.0273 H   0  0  0  0  0  0  0  0  0  0  0  0
   25.6144   19.0542   17.5646 H   0  0  0  0  0  0  0  0  0  0  0  0
   27.2511   18.3457   17.2581 H   0  0  0  0  0  0  0  0  0  0  0  0
   26.2071   21.6423   14.9353 H   0  0  0  0  0  0  0  0  0  0  0  0
   21.5466   14.8455   15.5607 H   0  0  0  0  0  0  0  0  0  0  0  0
   19.6139   13.1523   14.8403 H   0  0  0  0  0  0  0  0  0  0  0  0
   19.7469   12.9099   12.2506 H   0  0  0  0  0  0  0  0  0  0  0  0
   21.2688   13.9289   10.1323 H   0  0  0  0  0  0  0  0  0  0  0  0
   22.5911   15.6178    6.1747 H   0  0  0  0  0  0  0  0  0  0  0  0
  1  2  1  0
  2  3  1  0
  3  4  2  0
  4  5  1  0
  5  6  1  0
  6  7  2  0
  6  8  2  0
  6  9  1  0
  9 10  2  0
 10 11  1  0
 11 12  1  0
 12 13  2  0
 12 14  1  0
 14 15  1  0
 15 16  1  0
 16 17  1  0
 17 18  1  0
 18 19  2  0
 18 20  1  0
 20 21  1  0
 21 22  2  0
 11 23  2  0
 23 24  1  0
 24 25  2  0
 25 26  1  0
 26 27  1  0
 27 28  2  0
  5 29  1  0
 29 30  2  0
 30  3  1  0
 28  9  1  0
 21 15  1  0
 27 23  1  0
  1 31  1  0
  1 32  1  0
  1 33  1  0
  2 34  1  0
  2 35  1  0
  4 36  1  0
 10 37  1  0
 14 38  1  0
 15 39  1  1
 16 40  1  0
 16 41  1  0
 17 42  1  0
 17 43  1  0
 20 44  1  0
 24 45  1  0
 25 46  1  0
 26 47  1  0
 28 48  1  0
 29 49  1  0
M  END
>  <meeko>  (708) 
{"is_sidechain": [true], "free_energy": -10.58, "intermolecular_energy": 0.0, "internal_energy": -10.58, "cluster_size": 20, "cluster_id": 1, "rank_in_cluster": 1}

>  <_RMSD_MCS_to_ref>  (708) 
0.38161711832673295

$$$$
ligand
     RDKit          3D

 47 50  0  0  0  0  0  0  0  0999 V2000
   18.9090   19.1540    7.5370 C   0  0  0  0  0  0  0  0  0  0  0  0
   18.7730   17.6460    7.6780 C   0  0  0  0  0  0  0  0  0  0  0  0
   20.0910   16.9760    7.8420 C   0  0  0  0  0  0  0  0  0  0  0  0
   20.6510   16.4280    8.9800 C   0  0  0  0  0  0  0  0  0  0  0  0
   21.8650   15.9600    8.5630 N   0  0  0  0  0  0  0  0  0  0  0  0
   22.9040   14.9960    9.4560 S   0  0  0  0  0  6  0  0  0  0  0  0
   22.3360   13.6620    9.4500 O   0  0  0  0  0  0  0  0  0  0  0  0
   24.2420   15.2780    8.9790 O   0  0  0  0  0  0  0  0  0  0  0  0
   22.8640   15.5300   11.1260 C   0  0  0  0  0  0  0  0  0  0  0  0
   23.6880   16.4180   11.6690 N   0  0  0  0  0  0  0  0  0  0  0  0
   23.3000   16.5360   12.9970 C   0  0  0  0  0  0  0  0  0  0  0  0
   23.9720   17.4190   13.9470 C   0  0  0  0  0  0  0  0  0  0  0  0
   23.3990   17.9570   14.8870 O   0  0  0  0  0  0  0  0  0  0  0  0
   25.3100   17.5680   13.6830 N   0  0  0  0  0  0  0  0  0  0  0  0
   26.2100   18.2680   14.5790 C   0  0  2  0  0  0  0  0  0  0  0  0
   25.9370   17.9260   16.0400 C   0  0  0  0  0  0  0  0  0  0  0  0
   26.8880   18.7090   16.9310 C   0  0  0  0  0  0  0  0  0  0  0  0
   26.7860   20.1950   16.6740 C   0  0  0  0  0  0  0  0  0  0  0  0
   26.9600   21.0290   17.5570 O   0  0  0  0  0  0  0  0  0  0  0  0
   26.5230   20.5780   15.3830 N   0  0  0  0  0  0  0  0  0  0  0  0
   26.0460   19.7780   14.3740 C   0  0  0  0  0  0  0  0  0  0  0  0
   25.5420   20.2650   13.3630 O   0  0  0  0  0  0  0  0  0  0  0  0
   22.2290   15.7060   13.2350 C   0  0  0  0  0  0  0  0  0  0  0  0
   21.4210   15.4050   14.3810 C   0  0  0  0  0  0  0  0  0  0  0  0
   20.4430   14.5440   14.3130 N   0  0  0  0  0  0  0  0  0  0  0  0
   20.2040   13.9240   13.0990 C   0  0  0  0  0  0  0  0  0  0  0  0
   20.9170   14.1540   11.9850 C   0  0  0  0  0  0  0  0  0  0  0  0
   21.9570   15.0680   12.0480 N   0  0  0  0  0  0  0  0  0  0  0  0
   21.9880   16.1700    7.2270 C   0  0  0  0  0  0  0  0  0  0  0  0
   20.9360   16.8110    6.7610 N   0  0  0  0  0  0  0  0  0  0  0  0
   18.9504   19.6134    8.5356 H   0  0  0  0  0  0  0  0  0  0  0  0
   19.8320   19.3891    6.9867 H   0  0  0  0  0  0  0  0  0  0  0  0
   18.0430   19.5504    6.9867 H   0  0  0  0  0  0  0  0  0  0  0  0
   18.1522   17.4271    8.5593 H   0  0  0  0  0  0  0  0  0  0  0  0
   18.3106   17.2610    6.7571 H   0  0  0  0  0  0  0  0  0  0  0  0
   20.2185   16.3796    9.9903 H   0  0  0  0  0  0  0  0  0  0  0  0
   25.6903   17.1668   12.8139 H   0  0  0  0  0  0  0  0  0  0  0  0
   27.2376   17.9526   14.3452 H   0  0  0  0  0  0  0  0  0  0  0  0
   24.8990   18.1901   16.2905 H   0  0  0  0  0  0  0  0  0  0  0  0
   26.0901   16.8483   16.1987 H   0  0  0  0  0  0  0  0  0  0  0  0
   26.6382   18.5097   17.9836 H   0  0  0  0  0  0  0  0  0  0  0  0
   27.9160   18.3884   16.7067 H   0  0  0  0  0  0  0  0  0  0  0  0
   26.7013   21.5646   15.1470 H   0  0  0  0  0  0  0  0  0  0  0  0
   21.6298   15.9098   15.3358 H   0  0  0  0  0  0  0  0  0  0  0  0
   19.3793   13.1983   13.0435 H   0  0  0  0  0  0  0  0  0  0  0  0
   20.6819   13.6306   11.0465 H   0  0  0  0  0  0  0  0  0  0  0  0
   22.8466   15.8494    6.6187 H   0  0  0  0  0  0  0  0  0  0  0  0
  1  2  1  0
  2  3  1  0
  3  4  2  0
  4  5  1  0
  5  6  1  0
  6  7  2  0
  6  8  2  0
  6  9  1  0
  9 10  2  0
 10 11  1  0
 11 12  1  0
 12 13  2  0
 12 14  1  0
 14 15  1  0
 15 16  1  0
 16 17  1  0
 17 18  1  0
 18 19  2  0
 18 20  1  0
 20 21  1  0
 21 22  2  0
 11 23  2  0
 23 24  1  0
 24 25  2  0
 25 26  1  0
 26 27  2  0
 27 28  1  0
  5 29  1  0
 29 30  2  0
 30  3  1  0
 28  9  1  0
 21 15  1  0
 28 23  1  0
  1 31  1  0
  1 32  1  0
  1 33  1  0
  2 34  1  0
  2 35  1  0
  4 36  1  0
 14 37  1  0
 15 38  1  6
 16 39  1  0
 16 40  1  0
 17 41  1  0
 17 42  1  0
 20 43  1  0
 24 44  1  0
 26 45  1  0
 27 46  1  0
 29 47  1  0
M  END
>  <meeko>  (709) 
{"is_sidechain": [true], "free_energy": -10.58, "intermolecular_energy": 0.0, "internal_energy": -10.58, "cluster_size": 20, "cluster_id": 1, "rank_in_cluster": 1}

>  <_RMSD_MCS_to_ref>  (709) 
0.7772856617743569

$$$$
ligand
     RDKit          3D

 44 47  0  0  0  0  0  0  0  0999 V2000
   18.9090   19.1540    7.5370 C   0  0  0  0  0  0  0  0  0  0  0  0
   18.7730   17.6460    7.6780 C   0  0  0  0  0  0  0  0  0  0  0  0
   20.0950   16.9700    7.7600 C   0  0  0  0  0  0  0  0  0  0  0  0
   20.5490   16.0630    8.6970 C   0  0  0  0  0  0  0  0  0  0  0  0
   21.8120   15.7560    8.2830 N   0  0  0  0  0  0  0  0  0  0  0  0
   22.8120   14.5620    8.9080 S   0  0  0  0  0  6  0  0  0  0  0  0
   22.0910   14.0420   10.0550 O   0  0  0  0  0  0  0  0  0  0  0  0
   23.2020   13.7140    7.7990 O   0  0  0  0  0  0  0  0  0  0  0  0
   24.2440   15.4350    9.4890 C   0  0  0  0  0  0  0  0  0  0  0  0
   25.4030   15.4040    8.6880 C   0  0  0  0  0  0  0  0  0  0  0  0
   26.5640   16.0590    9.0780 C   0  0  0  0  0  0  0  0  0  0  0  0
   26.5990   16.7710   10.2770 C   0  0  0  0  0  0  0  0  0  0  0  0
   25.4520   16.8350   11.0940 C   0  0  0  0  0  0  0  0  0  0  0  0
   25.3740   17.5160   12.2960 N   0  0  0  0  0  0  0  0  0  0  0  0
   24.1760   17.3780   12.8080 C   0  0  0  0  0  0  0  0  0  0  0  0
   23.7320   18.1050   14.3380 S   0  0  0  0  0  0  0  0  0  0  0  0
   25.3510   18.5590   15.0450 C   0  0  2  0  0  0  0  0  0  0  0  0
   25.3660   18.3700   16.5610 C   0  0  0  0  0  0  0  0  0  0  0  0
   26.7100   18.8090   17.1200 C   0  0  0  0  0  0  0  0  0  0  0  0
   27.0100   20.2410   16.7500 C   0  0  0  0  0  0  0  0  0  0  0  0
   27.7430   20.9550   17.4290 O   0  0  0  0  0  0  0  0  0  0  0  0
   26.4930   20.6840   15.5590 N   0  0  0  0  0  0  0  0  0  0  0  0
   25.7860   19.9620   14.6260 C   0  0  0  0  0  0  0  0  0  0  0  0
   25.6030   20.4280   13.5030 O   0  0  0  0  0  0  0  0  0  0  0  0
   23.0730   16.4620   11.8870 S   0  0  0  0  0  0  0  0  0  0  0  0
   24.2850   16.1710   10.6910 C   0  0  0  0  0  0  0  0  0  0  0  0
   22.0940   16.4560    7.1530 C   0  0  0  0  0  0  0  0  0  0  0  0
   21.0670   17.2030    6.8050 N   0  0  0  0  0  0  0  0  0  0  0  0
   18.9504   19.6134    8.5356 H   0  0  0  0  0  0  0  0  0  0  0  0
   19.8320   19.3891    6.9867 H   0  0  0  0  0  0  0  0  0  0  0  0
   18.0430   19.5504    6.9867 H   0  0  0  0  0  0  0  0  0  0  0  0
   18.2044   17.4253    8.5934 H   0  0  0  0  0  0  0  0  0  0  0  0
   18.2542   17.2678    6.7848 H   0  0  0  0  0  0  0  0  0  0  0  0
   20.0140   15.6761    9.5769 H   0  0  0  0  0  0  0  0  0  0  0  0
   25.3879   14.8513    7.7371 H   0  0  0  0  0  0  0  0  0  0  0  0
   27.4586   16.0162    8.4394 H   0  0  0  0  0  0  0  0  0  0  0  0
   27.5225   17.2830   10.5853 H   0  0  0  0  0  0  0  0  0  0  0  0
   26.0998   17.8696   14.6278 H   0  0  0  0  0  0  0  0  0  0  0  0
   24.5668   18.9760   17.0127 H   0  0  0  0  0  0  0  0  0  0  0  0
   25.2033   17.3080   16.7968 H   0  0  0  0  0  0  0  0  0  0  0  0
   26.6906   18.7175   18.2160 H   0  0  0  0  0  0  0  0  0  0  0  0
   27.4934   18.1659   16.6925 H   0  0  0  0  0  0  0  0  0  0  0  0
   26.6536   21.6768   15.3368 H   0  0  0  0  0  0  0  0  0  0  0  0
   23.0468   16.4057    6.6056 H   0  0  0  0  0  0  0  0  0  0  0  0
  1  2  1  0
  2  3  1  0
  3  4  2  0
  4  5  1  0
  5  6  1  0
  6  7  2  0
  6  8  2  0
  6  9  1  0
  9 10  2  0
 10 11  1  0
 11 12  2  0
 12 13  1  0
 13 14  1  0
 14 15  2  0
 15 16  1  0
 16 17  1  0
 17 18  1  0
 18 19  1  0
 19 20  1  0
 20 21  2  0
 20 22  1  0
 22 23  1  0
 23 24  2  0
 15 25  1  0
 25 26  1  0
  5 27  1  0
 27 28  2  0
 28  3  1  0
 26  9  1  0
 26 13  2  0
 23 17  1  0
  1 29  1  0
  1 30  1  0
  1 31  1  0
  2 32  1  0
  2 33  1  0
  4 34  1  0
 10 35  1  0
 11 36  1  0
 12 37  1  0
 17 38  1  6
 18 39  1  0
 18 40  1  0
 19 41  1  0
 19 42  1  0
 22 43  1  0
 27 44  1  0
M  END
>  <meeko>  (710) 
{"is_sidechain": [true], "free_energy": -10.58, "intermolecular_energy": 0.0, "internal_energy": -10.58, "cluster_size": 20, "cluster_id": 1, "rank_in_cluster": 1}

>  <_RMSD_MCS_to_ref>  (710) 
0.7833912655882759

$$$$
ligand
     RDKit          3D

 50 53  0  0  0  0  0  0  0  0999 V2000
   18.9090   19.1540    7.5370 C   0  0  0  0  0  0  0  0  0  0  0  0
   18.7730   17.6460    7.6780 C   0  0  0  0  0  0  0  0  0  0  0  0
   20.0960   16.9670    7.7370 C   0  0  0  0  0  0  0  0  0  0  0  0
   20.7640   16.4600    8.8340 C   0  0  0  0  0  0  0  0  0  0  0  0
   21.9250   15.9600    8.3170 N   0  0  0  0  0  0  0  0  0  0  0  0
   23.2430   15.4130    9.2010 S   0  0  0  0  0  6  0  0  0  0  0  0
   24.3080   16.3540    8.9150 O   0  0  0  0  0  0  0  0  0  0  0  0
   23.3440   13.9990    8.9010 O   0  0  0  0  0  0  0  0  0  0  0  0
   22.8570   15.5580   10.9230 C   0  0  0  0  0  0  0  0  0  0  0  0
   23.5760   16.4320   11.7430 C   0  0  0  0  0  0  0  0  0  0  0  0
   23.2230   16.5050   13.0820 C   0  0  0  0  0  0  0  0  0  0  0  0
   23.9550   17.4420   13.9950 C   0  0  0  0  0  0  0  0  0  0  0  0
   23.3660   18.0630   14.8700 O   0  0  0  0  0  0  0  0  0  0  0  0
   25.3080   17.5240   13.7720 N   0  0  0  0  0  0  0  0  0  0  0  0
   26.2050   18.2460   14.6590 C   0  0  2  0  0  0  0  0  0  0  0  0
   25.9430   17.9220   16.1260 C   0  0  0  0  0  0  0  0  0  0  0  0
   26.8920   18.7280   17.0000 C   0  0  0  0  0  0  0  0  0  0  0  0
   26.7740   20.2070   16.7200 C   0  0  0  0  0  0  0  0  0  0  0  0
   26.9280   21.0570   17.5930 O   0  0  0  0  0  0  0  0  0  0  0  0
   26.5160   20.5690   15.4220 N   0  0  0  0  0  0  0  0  0  0  0  0
   26.0200   19.7510   14.4370 C   0  0  0  0  0  0  0  0  0  0  0  0
   25.4790   20.2200   13.4370 O   0  0  0  0  0  0  0  0  0  0  0  0
   22.2270   15.7790   13.6440 N   0  0  0  0  0  0  0  0  0  0  0  0
   21.5510   14.9490   12.8280 C   0  0  0  0  0  0  0  0  0  0  0  0
   20.5300   14.2200   13.4290 N   0  0  0  0  0  0  0  0  0  0  0  0
   19.7320   13.3310   12.7750 C   0  0  0  0  0  0  0  0  0  0  0  0
   18.8420   12.7020   13.3320 O   0  0  0  0  0  0  0  0  0  0  0  0
   19.9950   13.1570   11.3290 C   0  0  0  0  0  0  0  0  0  0  0  0
   20.9670   13.8400   10.7120 C   0  0  0  0  0  0  0  0  0  0  0  0
   21.8100   14.7880   11.4590 C   0  0  0  0  0  0  0  0  0  0  0  0
   21.9460   16.1740    6.9760 C   0  0  0  0  0  0  0  0  0  0  0  0
   20.8470   16.7890    6.5930 N   0  0  0  0  0  0  0  0  0  0  0  0
   18.9504   19.6134    8.5356 H   0  0  0  0  0  0  0  0  0  0  0  0
   19.8320   19.3891    6.9867 H   0  0  0  0  0  0  0  0  0  0  0  0
   18.0430   19.5504    6.9867 H   0  0  0  0  0  0  0  0  0  0  0  0
   18.2194   17.4248    8.6025 H   0  0  0  0  0  0  0  0  0  0  0  0
   18.2389   17.2701    6.7929 H   0  0  0  0  0  0  0  0  0  0  0  0
   20.4361   16.4590    9.8840 H   0  0  0  0  0  0  0  0  0  0  0  0
   24.3965   17.0430   11.3388 H   0  0  0  0  0  0  0  0  0  0  0  0
   25.7023   17.0555   12.9438 H   0  0  0  0  0  0  0  0  0  0  0  0
   27.2345   17.9372   14.4249 H   0  0  0  0  0  0  0  0  0  0  0  0
   24.9038   18.1795   16.3786 H   0  0  0  0  0  0  0  0  0  0  0  0
   26.1070   16.8482   16.2996 H   0  0  0  0  0  0  0  0  0  0  0  0
   26.6498   18.5431   18.0570 H   0  0  0  0  0  0  0  0  0  0  0  0
   27.9219   18.4135   16.7756 H   0  0  0  0  0  0  0  0  0  0  0  0
   26.7128   21.5460   15.1621 H   0  0  0  0  0  0  0  0  0  0  0  0
   20.3666   14.3621   14.4360 H   0  0  0  0  0  0  0  0  0  0  0  0
   19.3797   12.4527   10.7499 H   0  0  0  0  0  0  0  0  0  0  0  0
   21.1376   13.6913    9.6355 H   0  0  0  0  0  0  0  0  0  0  0  0
   22.7651   15.8757    6.3051 H   0  0  0  0  0  0  0  0  0  0  0  0
  1  2  1  0
  2  3  1  0
  3  4  2  0
  4  5  1  0
  5  6  1  0
  6  7  2  0
  6  8  2  0
  6  9  1  0
  9 10  2  0
 10 11  1  0
 11 12  1  0
 12 13  2  0
 12 14  1  0
 14 15  1  0
 15 16  1  0
 16 17  1  0
 17 18  1  0
 18 19  2  0
 18 20  1  0
 20 21  1  0
 21 22  2  0
 11 23  2  0
 23 24  1  0
 24 25  1  0
 25 26  1  0
 26 27  2  0
 26 28  1  0
 28 29  2  0
 29 30  1  0
  5 31  1  0
 31 32  2  0
 32  3  1  0
 30  9  1  0
 21 15  1  0
 30 24  2  0
  1 33  1  0
  1 34  1  0
  1 35  1  0
  2 36  1  0
  2 37  1  0
  4 38  1  0
 10 39  1  0
 14 40  1  0
 15 41  1  6
 16 42  1  0
 16 43  1  0
 17 44  1  0
 17 45  1  0
 20 46  1  0
 25 47  1  0
 28 48  1  0
 29 49  1  0
 31 50  1  0
M  END
>  <meeko>  (711) 
{"is_sidechain": [true], "free_energy": -10.58, "intermolecular_energy": 0.0, "internal_energy": -10.58, "cluster_size": 19, "cluster_id": 1, "rank_in_cluster": 1}

>  <_RMSD_MCS_to_ref>  (711) 
0.7793939240774769

$$$$
ligand
     RDKit          3D

 52 56  0  0  0  0  0  0  0  0999 V2000
   18.9090   19.1540    7.5370 C   0  0  0  0  0  0  0  0  0  0  0  0
   18.7730   17.6460    7.6780 C   0  0  0  0  0  0  0  0  0  0  0  0
   20.0950   16.9700    7.7830 C   0  0  0  0  0  0  0  0  0  0  0  0
   21.1010   16.8790    6.8410 C   0  0  0  0  0  0  0  0  0  0  0  0
   22.0740   16.1510    7.4630 N   0  0  0  0  0  0  0  0  0  0  0  0
   23.5930   15.8080    6.8320 S   0  0  0  0  0  6  0  0  0  0  0  0
   23.4250   14.7030    5.9090 O   0  0  0  0  0  0  0  0  0  0  0  0
   24.1010   17.0940    6.3950 O   0  0  0  0  0  0  0  0  0  0  0  0
   24.5370   15.2600    8.2370 C   0  0  0  0  0  0  0  0  0  0  0  0
   24.7000   16.1800    9.2850 C   0  0  0  0  0  0  0  0  0  0  0  0
   25.3890   15.8210   10.4410 C   0  0  0  0  0  0  0  0  0  0  0  0
   25.5350   16.7810   11.5220 C   0  0  0  0  0  0  0  0  0  0  0  0
   24.6040   17.1160   12.4800 C   0  0  0  0  0  0  0  0  0  0  0  0
   25.2350   18.0590   13.2390 N   0  0  0  0  0  0  0  0  0  0  0  0
   24.7250   18.7430   14.4110 C   0  0  1  0  0  0  0  0  0  0  0  0
   25.1740   18.1340   15.7410 C   0  0  0  0  0  0  0  0  0  0  0  0
   26.6030   18.5110   16.1070 C   0  0  0  0  0  0  0  0  0  0  0  0
   26.8260   20.0010   16.0270 C   0  0  0  0  0  0  0  0  0  0  0  0
   27.6490   20.5800   16.7290 O   0  0  0  0  0  0  0  0  0  0  0  0
   26.0790   20.6880   15.1050 N   0  0  0  0  0  0  0  0  0  0  0  0
   25.0370   20.2230   14.3380 C   0  0  0  0  0  0  0  0  0  0  0  0
   24.3940   20.9930   13.6270 O   0  0  0  0  0  0  0  0  0  0  0  0
   26.4800   18.2900   12.7920 N   0  0  0  0  0  0  0  0  0  0  0  0
   26.6770   17.5100   11.7390 N   0  0  0  0  0  0  0  0  0  0  0  0
   25.9110   14.5270   10.5260 C   0  0  0  0  0  0  0  0  0  0  0  0
   25.7790   13.6010    9.5020 C   0  0  0  0  0  0  0  0  0  0  0  0
   26.3290   12.3940    9.7080 N   0  0  0  0  0  0  0  0  0  0  0  0
   26.2320   11.4650    8.7370 C   0  0  0  0  0  0  0  0  0  0  0  0
   25.6010   11.6900    7.5360 C   0  0  0  0  0  0  0  0  0  0  0  0
   25.0310   12.9400    7.3250 C   0  0  0  0  0  0  0  0  0  0  0  0
   25.0900   13.9510    8.3180 C   0  0  0  0  0  0  0  0  0  0  0  0
   21.6550   15.8150    8.7090 C   0  0  0  0  0  0  0  0  0  0  0  0
   20.4590   16.3130    8.9430 N   0  0  0  0  0  0  0  0  0  0  0  0
   18.9504   19.6134    8.5356 H   0  0  0  0  0  0  0  0  0  0  0  0
   19.8320   19.3891    6.9867 H   0  0  0  0  0  0  0  0  0  0  0  0
   18.0430   19.5504    6.9867 H   0  0  0  0  0  0  0  0  0  0  0  0
   18.1896   17.4260    8.5842 H   0  0  0  0  0  0  0  0  0  0  0  0
   18.2700   17.2663    6.7764 H   0  0  0  0  0  0  0  0  0  0  0  0
   21.1150   17.2970    5.8236 H   0  0  0  0  0  0  0  0  0  0  0  0
   24.2802   17.1925    9.1924 H   0  0  0  0  0  0  0  0  0  0  0  0
   23.5869   16.7161   12.6047 H   0  0  0  0  0  0  0  0  0  0  0  0
   23.6338   18.6052   14.3949 H   0  0  0  0  0  0  0  0  0  0  0  0
   24.5017   18.4896   16.5357 H   0  0  0  0  0  0  0  0  0  0  0  0
   25.1357   17.0398   15.6352 H   0  0  0  0  0  0  0  0  0  0  0  0
   26.8083   18.1746   17.1340 H   0  0  0  0  0  0  0  0  0  0  0  0
   27.2800   18.0244   15.3895 H   0  0  0  0  0  0  0  0  0  0  0  0
   26.3303   21.6777   14.9699 H   0  0  0  0  0  0  0  0  0  0  0  0
   26.4470   14.2319   11.4401 H   0  0  0  0  0  0  0  0  0  0  0  0
   26.6804   10.4762    8.9139 H   0  0  0  0  0  0  0  0  0  0  0  0
   25.5490   10.9055    6.7667 H   0  0  0  0  0  0  0  0  0  0  0  0
   24.5251   13.1489    6.3708 H   0  0  0  0  0  0  0  0  0  0  0  0
   22.2336   15.2111    9.4235 H   0  0  0  0  0  0  0  0  0  0  0  0
  1  2  1  0
  2  3  1  0
  3  4  2  0
  4  5  1  0
  5  6  1  0
  6  7  2  0
  6  8  2  0
  6  9  1  0
  9 10  2  0
 10 11  1  0
 11 12  1  0
 12 13  2  0
 13 14  1  0
 14 15  1  0
 15 16  1  0
 16 17  1  0
 17 18  1  0
 18 19  2  0
 18 20  1  0
 20 21  1  0
 21 22  2  0
 14 23  1  0
 23 24  2  0
 11 25  2  0
 25 26  1  0
 26 27  2  0
 27 28  1  0
 28 29  2  0
 29 30  1  0
 30 31  2  0
  5 32  1  0
 32 33  2  0
 33  3  1  0
 31  9  1  0
 24 12  1  0
 31 26  1  0
 21 15  1  0
  1 34  1  0
  1 35  1  0
  1 36  1  0
  2 37  1  0
  2 38  1  0
  4 39  1  0
 10 40  1  0
 13 41  1  0
 15 42  1  6
 16 43  1  0
 16 44  1  0
 17 45  1  0
 17 46  1  0
 20 47  1  0
 25 48  1  0
 28 49  1  0
 29 50  1  0
 30 51  1  0
 32 52  1  0
M  END
>  <meeko>  (712) 
{"is_sidechain": [true], "free_energy": -10.58, "intermolecular_energy": 0.0, "internal_energy": -10.58, "cluster_size": 20, "cluster_id": 1, "rank_in_cluster": 1}

>  <_RMSD_MCS_to_ref>  (712) 
0.6586758602597258

$$$$
ligand
     RDKit          3D

 48 51  0  0  0  0  0  0  0  0999 V2000
   18.9090   19.1540    7.5370 C   0  0  0  0  0  0  0  0  0  0  0  0
   18.7730   17.6460    7.6780 C   0  0  0  0  0  0  0  0  0  0  0  0
   20.0890   16.9770    7.8630 C   0  0  0  0  0  0  0  0  0  0  0  0
   20.5150   16.1690    8.8980 C   0  0  0  0  0  0  0  0  0  0  0  0
   21.8100   15.8680    8.5780 N   0  0  0  0  0  0  0  0  0  0  0  0
   22.7670   14.7050    9.3360 S   0  0  0  0  0  6  0  0  0  0  0  0
   21.8250   13.6980    9.7890 O   0  0  0  0  0  0  0  0  0  0  0  0
   23.8050   14.4000    8.3680 O   0  0  0  0  0  0  0  0  0  0  0  0
   23.4280   15.4540   10.6230 O   0  0  0  0  0  0  0  0  0  0  0  0
   24.6160   16.1260   10.5540 C   0  0  0  0  0  0  0  0  0  0  0  0
   25.5200   16.0830    9.4890 C   0  0  0  0  0  0  0  0  0  0  0  0
   26.7100   16.8350    9.5290 C   0  0  0  0  0  0  0  0  0  0  0  0
   27.0140   17.6390   10.6280 C   0  0  0  0  0  0  0  0  0  0  0  0
   26.1160   17.6680   11.6780 C   0  0  0  0  0  0  0  0  0  0  0  0
   24.9370   16.9230   11.6420 C   0  0  0  0  0  0  0  0  0  0  0  0
   24.1600   17.1890   12.8930 C   0  0  0  0  0  0  0  0  0  0  0  0
   25.1260   17.8380   13.8110 N   0  0  0  0  0  0  0  0  0  0  0  0
   24.5060   18.7940   14.7480 C   0  0  1  0  0  0  0  0  0  0  0  0
   24.8450   18.5000   16.2150 C   0  0  0  0  0  0  0  0  0  0  0  0
   26.3430   18.6250   16.4620 C   0  0  0  0  0  0  0  0  0  0  0  0
   26.8540   19.9790   16.0370 C   0  0  0  0  0  0  0  0  0  0  0  0
   27.8620   20.4810   16.5260 O   0  0  0  0  0  0  0  0  0  0  0  0
   26.1530   20.6260   15.0530 N   0  0  0  0  0  0  0  0  0  0  0  0
   24.9980   20.2150   14.4300 C   0  0  0  0  0  0  0  0  0  0  0  0
   24.4280   20.9470   13.6220 O   0  0  0  0  0  0  0  0  0  0  0  0
   26.1690   18.4560   12.9490 C   0  0  0  0  0  0  0  0  0  0  0  0
   22.1030   16.4050    7.3660 C   0  0  0  0  0  0  0  0  0  0  0  0
   21.0830   17.1060    6.9130 N   0  0  0  0  0  0  0  0  0  0  0  0
   18.9504   19.6134    8.5356 H   0  0  0  0  0  0  0  0  0  0  0  0
   19.8320   19.3891    6.9867 H   0  0  0  0  0  0  0  0  0  0  0  0
   18.0430   19.5504    6.9867 H   0  0  0  0  0  0  0  0  0  0  0  0
   18.1391   17.4277    8.5501 H   0  0  0  0  0  0  0  0  0  0  0  0
   18.3256   17.2595    6.7504 H   0  0  0  0  0  0  0  0  0  0  0  0
   19.9433   15.8419    9.7790 H   0  0  0  0  0  0  0  0  0  0  0  0
   25.3001   15.4564    8.6120 H   0  0  0  0  0  0  0  0  0  0  0  0
   27.4099   16.7878    8.6817 H   0  0  0  0  0  0  0  0  0  0  0  0
   27.9402   18.2317   10.6578 H   0  0  0  0  0  0  0  0  0  0  0  0
   23.3120   17.8587   12.6869 H   0  0  0  0  0  0  0  0  0  0  0  0
   23.7362   16.2685   13.3209 H   0  0  0  0  0  0  0  0  0  0  0  0
   23.4179   18.6980   14.6187 H   0  0  0  0  0  0  0  0  0  0  0  0
   24.3129   19.2163   16.8582 H   0  0  0  0  0  0  0  0  0  0  0  0
   24.5349   17.4707   16.4480 H   0  0  0  0  0  0  0  0  0  0  0  0
   26.5427   18.4865   17.5348 H   0  0  0  0  0  0  0  0  0  0  0  0
   26.8595   17.8556   15.8693 H   0  0  0  0  0  0  0  0  0  0  0  0
   26.5379   21.5295   14.7425 H   0  0  0  0  0  0  0  0  0  0  0  0
   25.9404   19.5153   12.7601 H   0  0  0  0  0  0  0  0  0  0  0  0
   27.1652   18.4339   13.4149 H   0  0  0  0  0  0  0  0  0  0  0  0
   23.0580   16.2734    6.8362 H   0  0  0  0  0  0  0  0  0  0  0  0
  1  2  1  0
  2  3  1  0
  3  4  2  0
  4  5  1  0
  5  6  1  0
  6  7  2  0
  6  8  2  0
  6  9  1  0
  9 10  1  0
 10 11  2  0
 11 12  1  0
 12 13  2  0
 13 14  1  0
 14 15  2  0
 15 16  1  0
 16 17  1  0
 17 18  1  0
 18 19  1  0
 19 20  1  0
 20 21  1  0
 21 22  2  0
 21 23  1  0
 23 24  1  0
 24 25  2  0
 17 26  1  0
  5 27  1  0
 27 28  2  0
 28  3  1  0
 15 10  1  0
 24 18  1  0
 26 14  1  0
  1 29  1  0
  1 30  1  0
  1 31  1  0
  2 32  1  0
  2 33  1  0
  4 34  1  0
 11 35  1  0
 12 36  1  0
 13 37  1  0
 16 38  1  0
 16 39  1  0
 18 40  1  1
 19 41  1  0
 19 42  1  0
 20 43  1  0
 20 44  1  0
 23 45  1  0
 26 46  1  0
 26 47  1  0
 27 48  1  0
M  END
>  <meeko>  (713) 
{"is_sidechain": [true], "free_energy": -10.58, "intermolecular_energy": 0.0, "internal_energy": -10.58, "cluster_size": 19, "cluster_id": 1, "rank_in_cluster": 1}

>  <_RMSD_MCS_to_ref>  (713) 
1.3453664928189644

$$$$
ligand
     RDKit          3D

 52 56  0  0  0  0  0  0  0  0999 V2000
   18.8250   19.0170    7.5350 C   0  0  0  0  0  0  0  0  0  0  0  0
   18.5200   17.5420    7.7330 C   0  0  0  0  0  0  0  0  0  0  0  0
   19.7310   16.7600    8.1050 C   0  0  0  0  0  0  0  0  0  0  0  0
   20.3040   16.5940    9.3510 C   0  0  0  0  0  0  0  0  0  0  0  0
   21.3560   15.7580    9.1240 N   0  0  0  0  0  0  0  0  0  0  0  0
   22.3650   15.0570   10.2770 S   0  0  0  0  0  6  0  0  0  0  0  0
   23.1050   16.1590   10.8670 O   0  0  0  0  0  0  0  0  0  0  0  0
   23.0640   14.0330    9.5160 O   0  0  0  0  0  0  0  0  0  0  0  0
   21.3530   14.3050   11.5020 C   0  0  0  0  0  0  0  0  0  0  0  0
   20.4420   13.4060   11.0580 C   0  0  0  0  0  0  0  0  0  0  0  0
   19.5870   12.7510   11.9800 C   0  0  0  0  0  0  0  0  0  0  0  0
   18.6260   11.8650   11.8370 N   0  0  0  0  0  0  0  0  0  0  0  0
   18.1320   11.5740   13.0900 N   0  0  0  0  0  0  0  0  0  0  0  0
   18.8030   12.2910   13.9640 C   0  0  0  0  0  0  0  0  0  0  0  0
   19.7350   13.0540   13.3200 N   0  0  0  0  0  0  0  0  0  0  0  0
   20.6680   13.9600   13.8070 C   0  0  0  0  0  0  0  0  0  0  0  0
   21.4910   14.6000   12.9450 C   0  0  0  0  0  0  0  0  0  0  0  0
   22.4640   15.5240   13.5510 C   0  0  0  0  0  0  0  0  0  0  0  0
   22.0350   16.6640   14.2310 C   0  0  0  0  0  0  0  0  0  0  0  0
   22.9650   17.5450   14.7990 C   0  0  0  0  0  0  0  0  0  0  0  0
   24.3450   17.3130   14.7080 C   0  0  0  0  0  0  0  0  0  0  0  0
   25.2950   18.2160   15.2930 N   0  0  0  0  0  0  0  0  0  0  0  0
   26.2130   17.7350   16.3210 C   0  0  0  0  0  0  0  0  0  0  0  0
   26.4580   18.7990   17.3700 C   0  0  0  0  0  0  0  0  0  0  0  0
   26.9160   20.0570   16.7000 C   0  0  0  0  0  0  0  0  0  0  0  0
   27.5660   20.9170   17.2860 O   0  0  0  0  0  0  0  0  0  0  0  0
   26.4880   20.2320   15.4150 N   0  0  0  0  0  0  0  0  0  0  0  0
   25.5320   19.4910   14.7610 C   0  0  0  0  0  0  0  0  0  0  0  0
   24.9870   19.9890   13.7800 O   0  0  0  0  0  0  0  0  0  0  0  0
   24.7590   16.1520   14.0350 C   0  0  0  0  0  0  0  0  0  0  0  0
   23.8330   15.2680   13.4650 C   0  0  0  0  0  0  0  0  0  0  0  0
   21.4300   15.4780    7.7970 C   0  0  0  0  0  0  0  0  0  0  0  0
   20.4390   16.0530    7.1500 N   0  0  0  0  0  0  0  0  0  0  0  0
   18.9260   19.5054    8.5155 H   0  0  0  0  0  0  0  0  0  0  0  0
   19.7645   19.1250    6.9731 H   0  0  0  0  0  0  0  0  0  0  0  0
   18.0054   19.4887    6.9731 H   0  0  0  0  0  0  0  0  0  0  0  0
   17.7729   17.4396    8.5338 H   0  0  0  0  0  0  0  0  0  0  0  0
   18.1429   17.1451    6.7789 H   0  0  0  0  0  0  0  0  0  0  0  0
   19.9845   17.0352   10.3067 H   0  0  0  0  0  0  0  0  0  0  0  0
   20.3657   13.1844    9.9832 H   0  0  0  0  0  0  0  0  0  0  0  0
   18.6384   12.2783   15.0515 H   0  0  0  0  0  0  0  0  0  0  0  0
   20.7374   14.1560   14.8872 H   0  0  0  0  0  0  0  0  0  0  0  0
   20.9589   16.8729   14.3220 H   0  0  0  0  0  0  0  0  0  0  0  0
   22.6042   18.4392   15.3285 H   0  0  0  0  0  0  0  0  0  0  0  0
   25.7792   16.8469   16.8038 H   0  0  0  0  0  0  0  0  0  0  0  0
   27.1725   17.4845   15.8449 H   0  0  0  0  0  0  0  0  0  0  0  0
   25.5258   18.9941   17.9204 H   0  0  0  0  0  0  0  0  0  0  0  0
   27.2303   18.4532   18.0728 H   0  0  0  0  0  0  0  0  0  0  0  0
   26.9257   20.9967   14.8816 H   0  0  0  0  0  0  0  0  0  0  0  0
   25.8336   15.9317   13.9535 H   0  0  0  0  0  0  0  0  0  0  0  0
   24.1880   14.3655   12.9459 H   0  0  0  0  0  0  0  0  0  0  0  0
   22.2088   14.8579    7.3291 H   0  0  0  0  0  0  0  0  0  0  0  0
  1  2  1  0
  2  3  1  0
  3  4  2  0
  4  5  1  0
  5  6  1  0
  6  7  2  0
  6  8  2  0
  6  9  1  0
  9 10  2  0
 10 11  1  0
 11 12  2  0
 12 13  1  0
 13 14  2  0
 14 15  1  0
 15 16  1  0
 16 17  2  0
 17 18  1  0
 18 19  2  0
 19 20  1  0
 20 21  2  0
 21 22  1  0
 22 23  1  0
 23 24  1  0
 24 25  1  0
 25 26  2  0
 25 27  1  0
 27 28  1  0
 28 29  2  0
 21 30  1  0
 30 31  2  0
  5 32  1  0
 32 33  2  0
 33  3  1  0
 17  9  1  0
 31 18  1  0
 15 11  1  0
 28 22  1  0
  1 34  1  0
  1 35  1  0
  1 36  1  0
  2 37  1  0
  2 38  1  0
  4 39  1  0
 10 40  1  0
 14 41  1  0
 16 42  1  0
 19 43  1  0
 20 44  1  0
 23 45  1  0
 23 46  1  0
 24 47  1  0
 24 48  1  0
 27 49  1  0
 30 50  1  0
 31 51  1  0
 32 52  1  0
M  END
>  <meeko>  (714) 
{"is_sidechain": [true], "free_energy": -10.57, "intermolecular_energy": 0.0, "internal_energy": -10.57, "cluster_size": 11, "cluster_id": 1, "rank_in_cluster": 1}

>  <_RMSD_MCS_to_ref>  (714) 
0.4974501231279382

$$$$
ligand
     RDKit          3D

 53 57  0  0  0  0  0  0  0  0999 V2000
   18.8250   19.0170    7.5350 C   0  0  0  0  0  0  0  0  0  0  0  0
   18.5200   17.5420    7.7330 C   0  0  0  0  0  0  0  0  0  0  0  0
   19.7370   16.7580    8.0820 C   0  0  0  0  0  0  0  0  0  0  0  0
   20.7840   16.3770    7.2690 C   0  0  0  0  0  0  0  0  0  0  0  0
   21.6420   15.7210    8.1070 N   0  0  0  0  0  0  0  0  0  0  0  0
   22.9560   14.7980    7.6180 S   0  0  0  0  0  6  0  0  0  0  0  0
   22.7410   13.4800    8.1840 O   0  0  0  0  0  0  0  0  0  0  0  0
   23.1120   15.0270    6.1960 O   0  0  0  0  0  0  0  0  0  0  0  0
   24.4000   15.4790    8.4250 C   0  0  0  0  0  0  0  0  0  0  0  0
   25.4360   16.0030    7.6710 O   0  0  0  0  0  0  0  0  0  0  0  0
   26.4130   16.4150    8.5100 C   0  0  0  0  0  0  0  0  0  0  0  0
   26.0630   16.1690    9.8110 C   0  0  0  0  0  0  0  0  0  0  0  0
   24.7740   15.5760    9.7660 C   0  0  0  0  0  0  0  0  0  0  0  0
   23.9720   15.1160   10.8760 C   0  0  0  0  0  0  0  0  0  0  0  0
   23.2580   13.9090   10.7860 C   0  0  0  0  0  0  0  0  0  0  0  0
   22.4650   13.4510   11.8550 C   0  0  0  0  0  0  0  0  0  0  0  0
   22.3640   14.1940   13.0310 C   0  0  0  0  0  0  0  0  0  0  0  0
   23.0640   15.3840   13.0910 C   0  0  0  0  0  0  0  0  0  0  0  0
   23.8590   15.8540   12.0460 C   0  0  0  0  0  0  0  0  0  0  0  0
   24.4920   17.1510   12.4370 C   0  0  0  0  0  0  0  0  0  0  0  0
   23.9710   17.3700   13.7810 N   0  0  0  0  0  0  0  0  0  0  0  0
   24.5280   18.3450   14.7140 C   0  0  1  0  0  0  0  0  0  0  0  0
   25.5730   17.6910   15.6210 C   0  0  0  0  0  0  0  0  0  0  0  0
   26.0660   18.6890   16.6540 C   0  0  0  0  0  0  0  0  0  0  0  0
   26.6120   19.9270   15.9890 C   0  0  0  0  0  0  0  0  0  0  0  0
   27.5690   20.5510   16.4380 O   0  0  0  0  0  0  0  0  0  0  0  0
   25.9670   20.3470   14.8540 N   0  0  0  0  0  0  0  0  0  0  0  0
   25.1410   19.5910   14.0540 C   0  0  0  0  0  0  0  0  0  0  0  0
   24.9190   19.9430   12.8980 O   0  0  0  0  0  0  0  0  0  0  0  0
   23.1590   16.3310   14.2060 C   0  0  0  0  0  0  0  0  0  0  0  0
   22.6480   16.1800   15.2970 O   0  0  0  0  0  0  0  0  0  0  0  0
   21.0960   15.6720    9.3480 C   0  0  0  0  0  0  0  0  0  0  0  0
   19.9310   16.2870    9.3660 N   0  0  0  0  0  0  0  0  0  0  0  0
   18.9260   19.5054    8.5155 H   0  0  0  0  0  0  0  0  0  0  0  0
   19.7645   19.1250    6.9731 H   0  0  0  0  0  0  0  0  0  0  0  0
   18.0054   19.4887    6.9731 H   0  0  0  0  0  0  0  0  0  0  0  0
   17.7863   17.4380    8.5460 H   0  0  0  0  0  0  0  0  0  0  0  0
   18.1251   17.1485    6.7847 H   0  0  0  0  0  0  0  0  0  0  0  0
   20.9019   16.5596    6.1907 H   0  0  0  0  0  0  0  0  0  0  0  0
   27.3567   16.8823    8.1921 H   0  0  0  0  0  0  0  0  0  0  0  0
   26.6598   16.3868   10.7090 H   0  0  0  0  0  0  0  0  0  0  0  0
   23.3199   13.3118    9.8643 H   0  0  0  0  0  0  0  0  0  0  0  0
   21.9207   12.4996   11.7622 H   0  0  0  0  0  0  0  0  0  0  0  0
   21.7519   13.8468   13.8765 H   0  0  0  0  0  0  0  0  0  0  0  0
   25.5890   17.0704   12.4452 H   0  0  0  0  0  0  0  0  0  0  0  0
   24.2666   17.9735   11.7422 H   0  0  0  0  0  0  0  0  0  0  0  0
   23.6657   18.6958   15.3000 H   0  0  0  0  0  0  0  0  0  0  0  0
   25.1210   16.8295   16.1343 H   0  0  0  0  0  0  0  0  0  0  0  0
   26.4235   17.3578   15.0081 H   0  0  0  0  0  0  0  0  0  0  0  0
   25.2291   18.9717   17.3095 H   0  0  0  0  0  0  0  0  0  0  0  0
   26.8712   18.2203   17.2389 H   0  0  0  0  0  0  0  0  0  0  0  0
   26.1157   21.3264   14.5720 H   0  0  0  0  0  0  0  0  0  0  0  0
   21.5614   15.1862   10.2183 H   0  0  0  0  0  0  0  0  0  0  0  0
  1  2  1  0
  2  3  1  0
  3  4  2  0
  4  5  1  0
  5  6  1  0
  6  7  2  0
  6  8  2  0
  6  9  1  0
  9 10  1  0
 10 11  1  0
 11 12  2  0
 12 13  1  0
 13 14  1  0
 14 15  2  0
 15 16  1  0
 16 17  2  0
 17 18  1  0
 18 19  2  0
 19 20  1  0
 20 21  1  0
 21 22  1  0
 22 23  1  0
 23 24  1  0
 24 25  1  0
 25 26  2  0
 25 27  1  0
 27 28  1  0
 28 29  2  0
 21 30  1  0
 30 31  2  0
  5 32  1  0
 32 33  2  0
 33  3  1  0
 13  9  2  0
 19 14  1  0
 28 22  1  0
 30 18  1  0
  1 34  1  0
  1 35  1  0
  1 36  1  0
  2 37  1  0
  2 38  1  0
  4 39  1  0
 11 40  1  0
 12 41  1  0
 15 42  1  0
 16 43  1  0
 17 44  1  0
 20 45  1  0
 20 46  1  0
 22 47  1  1
 23 48  1  0
 23 49  1  0
 24 50  1  0
 24 51  1  0
 27 52  1  0
 32 53  1  0
M  END
>  <meeko>  (715) 
{"is_sidechain": [true], "free_energy": -10.57, "intermolecular_energy": 0.0, "internal_energy": -10.57, "cluster_size": 15, "cluster_id": 1, "rank_in_cluster": 1}

>  <_RMSD_MCS_to_ref>  (715) 
0.8877202074227367

$$$$
ligand
     RDKit          3D

 56 60  0  0  0  0  0  0  0  0999 V2000
   18.7970   18.8160    7.7190 C   0  0  0  0  0  0  0  0  0  0  0  0
   18.5280   17.3300    7.8810 C   0  0  0  0  0  0  0  0  0  0  0  0
   19.7240   16.5030    7.5570 C   0  0  0  0  0  0  0  0  0  0  0  0
   20.7980   16.1830    8.3630 C   0  0  0  0  0  0  0  0  0  0  0  0
   21.5760   15.3830    7.5790 N   0  0  0  0  0  0  0  0  0  0  0  0
   23.0140   14.6420    8.0130 S   0  0  0  0  0  6  0  0  0  0  0  0
   22.7160   13.2230    7.9240 O   0  0  0  0  0  0  0  0  0  0  0  0
   24.0680   15.2520    7.2270 O   0  0  0  0  0  0  0  0  0  0  0  0
   23.3010   15.0330    9.7280 C   0  0  0  0  0  0  0  0  0  0  0  0
   24.4510   15.8040   10.0080 C   0  0  0  0  0  0  0  0  0  0  0  0
   24.7270   16.1300   11.3220 C   0  0  0  0  0  0  0  0  0  0  0  0
   23.8780   15.7050   12.3370 C   0  0  0  0  0  0  0  0  0  0  0  0
   22.7360   14.9640   12.0960 C   0  0  0  0  0  0  0  0  0  0  0  0
   22.4290   14.6160   10.7670 C   0  0  0  0  0  0  0  0  0  0  0  0
   21.1920   13.8350   10.5760 C   0  0  0  0  0  0  0  0  0  0  0  0
   19.8700   14.4460   10.5850 C   0  0  0  0  0  0  0  0  0  0  0  0
   18.7600   13.7160   10.3960 C   0  0  0  0  0  0  0  0  0  0  0  0
   18.8730   12.2540   10.1690 C   0  0  0  0  0  0  0  0  0  0  0  0
   17.8800   11.5530   10.0210 O   0  0  0  0  0  0  0  0  0  0  0  0
   20.1530   11.7560   10.1410 N   0  0  0  0  0  0  0  0  0  0  0  0
   21.2820   12.5150   10.3300 C   0  0  0  0  0  0  0  0  0  0  0  0
   24.4060   16.1990   13.6120 C   0  0  0  0  0  0  0  0  0  0  0  0
   23.8490   16.0660   14.6830 O   0  0  0  0  0  0  0  0  0  0  0  0
   25.6070   16.8340   13.3290 N   0  0  0  0  0  0  0  0  0  0  0  0
   26.3300   17.6750   14.2790 C   0  0  2  0  0  0  0  0  0  0  0  0
   25.9300   17.4480   15.7360 C   0  0  0  0  0  0  0  0  0  0  0  0
   26.7860   18.3260   16.6350 C   0  0  0  0  0  0  0  0  0  0  0  0
   26.6670   19.7830   16.2540 C   0  0  0  0  0  0  0  0  0  0  0  0
   26.9010   20.6890   17.0500 O   0  0  0  0  0  0  0  0  0  0  0  0
   26.3650   20.0550   14.9440 N   0  0  0  0  0  0  0  0  0  0  0  0
   26.2010   19.1620   13.9110 C   0  0  0  0  0  0  0  0  0  0  0  0
   26.0630   19.5630   12.7550 O   0  0  0  0  0  0  0  0  0  0  0  0
   25.8410   16.9420   11.8960 C   0  0  0  0  0  0  0  0  0  0  0  0
   21.0170   15.2860    6.3450 C   0  0  0  0  0  0  0  0  0  0  0  0
   19.8680   15.9270    6.3080 N   0  0  0  0  0  0  0  0  0  0  0  0
   18.8816   19.2836    8.7111 H   0  0  0  0  0  0  0  0  0  0  0  0
   19.7359   18.9603    7.1643 H   0  0  0  0  0  0  0  0  0  0  0  0
   17.9683   19.2803    7.1643 H   0  0  0  0  0  0  0  0  0  0  0  0
   18.2340   17.1347    8.9228 H   0  0  0  0  0  0  0  0  0  0  0  0
   17.7264   17.0536    7.1803 H   0  0  0  0  0  0  0  0  0  0  0  0
   20.9837   16.5004    9.3997 H   0  0  0  0  0  0  0  0  0  0  0  0
   25.1136   16.1382    9.1961 H   0  0  0  0  0  0  0  0  0  0  0  0
   22.0820   14.6533   12.9241 H   0  0  0  0  0  0  0  0  0  0  0  0
   19.7794   15.5297   10.7504 H   0  0  0  0  0  0  0  0  0  0  0  0
   17.7717   14.1988   10.4093 H   0  0  0  0  0  0  0  0  0  0  0  0
   20.2739   10.7480    9.9670 H   0  0  0  0  0  0  0  0  0  0  0  0
   22.2719   12.0380   10.2797 H   0  0  0  0  0  0  0  0  0  0  0  0
   27.3840   17.3706   14.1992 H   0  0  0  0  0  0  0  0  0  0  0  0
   24.8696   17.7077   15.8706 H   0  0  0  0  0  0  0  0  0  0  0  0
   26.0829   16.3911   15.9996 H   0  0  0  0  0  0  0  0  0  0  0  0
   26.4570   18.2001   17.6771 H   0  0  0  0  0  0  0  0  0  0  0  0
   27.8366   18.0216   16.5190 H   0  0  0  0  0  0  0  0  0  0  0  0
   26.2465   21.0498   14.7046 H   0  0  0  0  0  0  0  0  0  0  0  0
   25.7827   17.9884   11.5619 H   0  0  0  0  0  0  0  0  0  0  0  0
   26.8386   16.5955   11.5882 H   0  0  0  0  0  0  0  0  0  0  0  0
   21.4621   14.7472    5.4955 H   0  0  0  0  0  0  0  0  0  0  0  0
  1  2  1  0
  2  3  1  0
  3  4  2  0
  4  5  1  0
  5  6  1  0
  6  7  2  0
  6  8  2  0
  6  9  1  0
  9 10  2  0
 10 11  1  0
 11 12  2  0
 12 13  1  0
 13 14  2  0
 14 15  1  0
 15 16  1  0
 16 17  2  0
 17 18  1  0
 18 19  2  0
 18 20  1  0
 20 21  1  0
 12 22  1  0
 22 23  2  0
 22 24  1  0
 24 25  1  0
 25 26  1  0
 26 27  1  0
 27 28  1  0
 28 29  2  0
 28 30  1  0
 30 31  1  0
 31 32  2  0
 24 33  1  0
  5 34  1  0
 34 35  2  0
 35  3  1  0
 14  9  1  0
 21 15  2  0
 31 25  1  0
 33 11  1  0
  1 36  1  0
  1 37  1  0
  1 38  1  0
  2 39  1  0
  2 40  1  0
  4 41  1  0
 10 42  1  0
 13 43  1  0
 16 44  1  0
 17 45  1  0
 20 46  1  0
 21 47  1  0
 25 48  1  1
 26 49  1  0
 26 50  1  0
 27 51  1  0
 27 52  1  0
 30 53  1  0
 33 54  1  0
 33 55  1  0
 34 56  1  0
M  END
>  <meeko>  (716) 
{"is_sidechain": [true], "free_energy": -10.57, "intermolecular_energy": 0.0, "internal_energy": -10.57, "cluster_size": 14, "cluster_id": 1, "rank_in_cluster": 1}

>  <_RMSD_MCS_to_ref>  (716) 
0.9891093636870155

$$$$
ligand
     RDKit          3D

 47 50  0  0  0  0  0  0  0  0999 V2000
   18.7970   18.8170    7.7190 C   0  0  0  0  0  0  0  0  0  0  0  0
   18.5280   17.3290    7.8810 C   0  0  0  0  0  0  0  0  0  0  0  0
   19.7830   16.5450    8.0350 C   0  0  0  0  0  0  0  0  0  0  0  0
   20.1880   15.7490    9.0880 C   0  0  0  0  0  0  0  0  0  0  0  0
   21.4150   15.2870    8.7080 N   0  0  0  0  0  0  0  0  0  0  0  0
   22.3100   14.1030    9.4960 S   0  0  0  0  0  6  0  0  0  0  0  0
   23.6460   14.6540    9.6000 O   0  0  0  0  0  0  0  0  0  0  0  0
   22.0140   12.8750    8.7840 O   0  0  0  0  0  0  0  0  0  0  0  0
   21.6610   13.9430   11.1400 C   0  0  0  0  0  0  0  0  0  0  0  0
   20.6430   13.0220   11.4440 C   0  0  0  0  0  0  0  0  0  0  0  0
   20.1430   12.9060   12.7380 C   0  0  0  0  0  0  0  0  0  0  0  0
   20.6450   13.7070   13.7630 C   0  0  0  0  0  0  0  0  0  0  0  0
   21.6650   14.6400   13.4930 C   0  0  0  0  0  0  0  0  0  0  0  0
   22.2380   15.4830   14.4290 N   0  0  0  0  0  0  0  0  0  0  0  0
   23.1600   16.2260   13.8480 C   0  0  0  0  0  0  0  0  0  0  0  0
   23.9410   17.2220   14.5770 C   0  0  0  0  0  0  0  0  0  0  0  0
   23.4830   18.0540   15.3580 O   0  0  0  0  0  0  0  0  0  0  0  0
   25.2970   17.1510   14.3210 N   0  0  0  0  0  0  0  0  0  0  0  0
   26.2730   17.9330   15.0580 C   0  0  2  0  0  0  0  0  0  0  0  0
   26.0790   17.8170   16.5670 C   0  0  0  0  0  0  0  0  0  0  0  0
   27.1120   18.6760   17.2800 C   0  0  0  0  0  0  0  0  0  0  0  0
   27.0480   20.1110   16.8140 C   0  0  0  0  0  0  0  0  0  0  0  0
   27.2860   21.0570   17.5580 O   0  0  0  0  0  0  0  0  0  0  0  0
   26.7360   20.3140   15.4930 N   0  0  0  0  0  0  0  0  0  0  0  0
   26.1470   19.4040   14.6500 C   0  0  0  0  0  0  0  0  0  0  0  0
   25.5740   19.7700   13.6250 O   0  0  0  0  0  0  0  0  0  0  0  0
   23.3910   15.9640   12.1800 S   0  0  0  0  0  0  0  0  0  0  0  0
   22.1610   14.7470   12.1890 C   0  0  0  0  0  0  0  0  0  0  0  0
   21.7110   15.7710    7.4740 C   0  0  0  0  0  0  0  0  0  0  0  0
   20.7320   16.5330    7.0320 N   0  0  0  0  0  0  0  0  0  0  0  0
   18.8815   19.2845    8.7111 H   0  0  0  0  0  0  0  0  0  0  0  0
   19.7359   18.9616    7.1643 H   0  0  0  0  0  0  0  0  0  0  0  0
   17.9682   19.2812    7.1643 H   0  0  0  0  0  0  0  0  0  0  0  0
   17.9034   17.1770    8.7736 H   0  0  0  0  0  0  0  0  0  0  0  0
   18.0189   16.9767    6.9718 H   0  0  0  0  0  0  0  0  0  0  0  0
   19.6454   15.5357   10.0208 H   0  0  0  0  0  0  0  0  0  0  0  0
   20.2353   12.3831   10.6468 H   0  0  0  0  0  0  0  0  0  0  0  0
   19.3470   12.1780   12.9532 H   0  0  0  0  0  0  0  0  0  0  0  0
   20.2443   13.6102   14.7828 H   0  0  0  0  0  0  0  0  0  0  0  0
   25.6281   16.5187   13.5784 H   0  0  0  0  0  0  0  0  0  0  0  0
   27.2717   17.5415   14.8146 H   0  0  0  0  0  0  0  0  0  0  0  0
   25.0690   18.1612   16.8341 H   0  0  0  0  0  0  0  0  0  0  0  0
   26.2022   16.7674   16.8723 H   0  0  0  0  0  0  0  0  0  0  0  0
   26.9206   18.6419   18.3627 H   0  0  0  0  0  0  0  0  0  0  0  0
   28.1120   18.2801   17.0490 H   0  0  0  0  0  0  0  0  0  0  0  0
   26.9654   21.2364   15.0963 H   0  0  0  0  0  0  0  0  0  0  0  0
   22.6378   15.5567    6.9216 H   0  0  0  0  0  0  0  0  0  0  0  0
  1  2  1  0
  2  3  1  0
  3  4  2  0
  4  5  1  0
  5  6  1  0
  6  7  2  0
  6  8  2  0
  6  9  1  0
  9 10  2  0
 10 11  1  0
 11 12  2  0
 12 13  1  0
 13 14  1  0
 14 15  2  0
 15 16  1  0
 16 17  2  0
 16 18  1  0
 18 19  1  0
 19 20  1  0
 20 21  1  0
 21 22  1  0
 22 23  2  0
 22 24  1  0
 24 25  1  0
 25 26  2  0
 15 27  1  0
 27 28  1  0
  5 29  1  0
 29 30  2  0
 30  3  1  0
 28  9  1  0
 28 13  2  0
 25 19  1  0
  1 31  1  0
  1 32  1  0
  1 33  1  0
  2 34  1  0
  2 35  1  0
  4 36  1  0
 10 37  1  0
 11 38  1  0
 12 39  1  0
 18 40  1  0
 19 41  1  1
 20 42  1  0
 20 43  1  0
 21 44  1  0
 21 45  1  0
 24 46  1  0
 29 47  1  0
M  END
>  <meeko>  (717) 
{"is_sidechain": [true], "free_energy": -10.57, "intermolecular_energy": 0.0, "internal_energy": -10.57, "cluster_size": 16, "cluster_id": 1, "rank_in_cluster": 1}

>  <_RMSD_MCS_to_ref>  (717) 
0.7556355676588485

$$$$
ligand
     RDKit          3D

 47 50  0  0  0  0  0  0  0  0999 V2000
   18.9090   19.1540    7.5370 C   0  0  0  0  0  0  0  0  0  0  0  0
   18.7730   17.6460    7.6780 C   0  0  0  0  0  0  0  0  0  0  0  0
   20.0900   16.9560    7.6310 C   0  0  0  0  0  0  0  0  0  0  0  0
   21.0410   16.8280    8.6260 C   0  0  0  0  0  0  0  0  0  0  0  0
   22.0510   16.1240    8.0350 N   0  0  0  0  0  0  0  0  0  0  0  0
   23.4390   15.5760    8.8020 S   0  0  0  0  0  6  0  0  0  0  0  0
   23.7040   14.2480    8.2860 O   0  0  0  0  0  0  0  0  0  0  0  0
   24.3880   16.6640    8.6700 O   0  0  0  0  0  0  0  0  0  0  0  0
   23.0350   15.4220   10.5000 C   0  0  0  0  0  0  0  0  0  0  0  0
   23.9320   15.8810   11.4700 C   0  0  0  0  0  0  0  0  0  0  0  0
   23.5970   15.7530   12.8160 C   0  0  0  0  0  0  0  0  0  0  0  0
   24.5550   16.2510   13.8580 C   0  0  0  0  0  0  0  0  0  0  0  0
   25.0630   15.4940   14.6760 O   0  0  0  0  0  0  0  0  0  0  0  0
   24.8200   17.6000   13.8030 N   0  0  0  0  0  0  0  0  0  0  0  0
   25.8380   18.2310   14.6250 C   0  0  2  0  0  0  0  0  0  0  0  0
   25.6330   17.9440   16.1090 C   0  0  0  0  0  0  0  0  0  0  0  0
   26.7120   18.6480   16.9170 C   0  0  0  0  0  0  0  0  0  0  0  0
   26.7330   20.1300   16.6290 C   0  0  0  0  0  0  0  0  0  0  0  0
   27.0250   20.9630   17.4810 O   0  0  0  0  0  0  0  0  0  0  0  0
   26.4380   20.5110   15.3440 N   0  0  0  0  0  0  0  0  0  0  0  0
   25.7990   19.7460   14.3980 C   0  0  0  0  0  0  0  0  0  0  0  0
   25.2530   20.2680   13.4280 O   0  0  0  0  0  0  0  0  0  0  0  0
   22.4430   15.2090   13.2990 N   0  0  0  0  0  0  0  0  0  0  0  0
   21.5960   14.7640   12.3400 C   0  0  0  0  0  0  0  0  0  0  0  0
   20.3300   14.1490   12.4540 C   0  0  0  0  0  0  0  0  0  0  0  0
   19.9100   13.9010   11.1670 C   0  0  0  0  0  0  0  0  0  0  0  0
   20.8380   14.3250   10.2670 O   0  0  0  0  0  0  0  0  0  0  0  0
   21.8640   14.8580   10.9800 C   0  0  0  0  0  0  0  0  0  0  0  0
   21.7000   15.8280    6.7570 C   0  0  0  0  0  0  0  0  0  0  0  0
   20.5110   16.3230    6.4790 N   0  0  0  0  0  0  0  0  0  0  0  0
   18.9504   19.6134    8.5356 H   0  0  0  0  0  0  0  0  0  0  0  0
   19.8320   19.3891    6.9867 H   0  0  0  0  0  0  0  0  0  0  0  0
   18.0430   19.5504    6.9867 H   0  0  0  0  0  0  0  0  0  0  0  0
   18.2901   17.4224    8.6407 H   0  0  0  0  0  0  0  0  0  0  0  0
   18.1703   17.2809    6.8333 H   0  0  0  0  0  0  0  0  0  0  0  0
   20.9948   17.2066    9.6578 H   0  0  0  0  0  0  0  0  0  0  0  0
   24.8885   16.3366   11.1741 H   0  0  0  0  0  0  0  0  0  0  0  0
   24.2753   18.1853   13.1537 H   0  0  0  0  0  0  0  0  0  0  0  0
   26.8135   17.8160   14.3315 H   0  0  0  0  0  0  0  0  0  0  0  0
   24.6440   18.3115   16.4200 H   0  0  0  0  0  0  0  0  0  0  0  0
   25.6938   16.8597   16.2838 H   0  0  0  0  0  0  0  0  0  0  0  0
   26.5156   18.4938   17.9883 H   0  0  0  0  0  0  0  0  0  0  0  0
   27.6879   18.2255   16.6358 H   0  0  0  0  0  0  0  0  0  0  0  0
   26.7224   21.4599   15.0620 H   0  0  0  0  0  0  0  0  0  0  0  0
   19.7892   13.9155   13.3830 H   0  0  0  0  0  0  0  0  0  0  0  0
   18.9544   13.4249   10.9022 H   0  0  0  0  0  0  0  0  0  0  0  0
   22.3212   15.2553    6.0527 H   0  0  0  0  0  0  0  0  0  0  0  0
  1  2  1  0
  2  3  1  0
  3  4  2  0
  4  5  1  0
  5  6  1  0
  6  7  2  0
  6  8  2  0
  6  9  1  0
  9 10  2  0
 10 11  1  0
 11 12  1  0
 12 13  2  0
 12 14  1  0
 14 15  1  0
 15 16  1  0
 16 17  1  0
 17 18  1  0
 18 19  2  0
 18 20  1  0
 20 21  1  0
 21 22  2  0
 11 23  2  0
 23 24  1  0
 24 25  1  0
 25 26  2  0
 26 27  1  0
 27 28  1  0
  5 29  1  0
 29 30  2  0
 30  3  1  0
 28  9  1  0
 21 15  1  0
 28 24  2  0
  1 31  1  0
  1 32  1  0
  1 33  1  0
  2 34  1  0
  2 35  1  0
  4 36  1  0
 10 37  1  0
 14 38  1  0
 15 39  1  6
 16 40  1  0
 16 41  1  0
 17 42  1  0
 17 43  1  0
 20 44  1  0
 25 45  1  0
 26 46  1  0
 29 47  1  0
M  END
>  <meeko>  (718) 
{"is_sidechain": [true], "free_energy": -10.57, "intermolecular_energy": 0.0, "internal_energy": -10.57, "cluster_size": 18, "cluster_id": 1, "rank_in_cluster": 1}

>  <_RMSD_MCS_to_ref>  (718) 
0.5832305623755406

$$$$
ligand
     RDKit          3D

 47 50  0  0  0  0  0  0  0  0999 V2000
   18.9090   19.1540    7.5370 C   0  0  0  0  0  0  0  0  0  0  0  0
   18.7730   17.6460    7.6780 C   0  0  0  0  0  0  0  0  0  0  0  0
   19.9940   16.9280    7.2230 C   0  0  0  0  0  0  0  0  0  0  0  0
   21.0930   16.5300    7.9610 C   0  0  0  0  0  0  0  0  0  0  0  0
   21.9080   15.9260    7.0470 N   0  0  0  0  0  0  0  0  0  0  0  0
   23.3610   15.1520    7.3730 S   0  0  0  0  0  6  0  0  0  0  0  0
   24.3650   15.8730    6.6100 O   0  0  0  0  0  0  0  0  0  0  0  0
   23.1100   13.7360    7.1730 O   0  0  0  0  0  0  0  0  0  0  0  0
   23.6830   15.4200    9.0970 C   0  0  0  0  0  0  0  0  0  0  0  0
   24.8350   16.1090    9.4600 C   0  0  0  0  0  0  0  0  0  0  0  0
   25.0790   16.3150   10.8170 C   0  0  0  0  0  0  0  0  0  0  0  0
   24.1400   15.8100   11.7380 C   0  0  0  0  0  0  0  0  0  0  0  0
   23.9970   15.7940   13.1640 C   0  0  0  0  0  0  0  0  0  0  0  0
   24.9060   16.3640   14.1450 C   0  0  0  0  0  0  0  0  0  0  0  0
   25.4990   15.6670   14.9640 O   0  0  0  0  0  0  0  0  0  0  0  0
   25.0730   17.7270   14.0950 N   0  0  0  0  0  0  0  0  0  0  0  0
   26.0620   18.4030   14.9250 C   0  0  2  0  0  0  0  0  0  0  0  0
   25.8130   18.1880   16.4130 C   0  0  0  0  0  0  0  0  0  0  0  0
   26.8510   18.9580   17.2160 C   0  0  0  0  0  0  0  0  0  0  0  0
   26.8550   20.4230   16.8490 C   0  0  0  0  0  0  0  0  0  0  0  0
   27.0930   21.3070   17.6670 O   0  0  0  0  0  0  0  0  0  0  0  0
   26.6050   20.7280   15.5350 N   0  0  0  0  0  0  0  0  0  0  0  0
   26.0000   19.9020   14.6220 C   0  0  0  0  0  0  0  0  0  0  0  0
   25.4490   20.3510   13.6170 O   0  0  0  0  0  0  0  0  0  0  0  0
   22.8180   15.1110   13.3980 C   0  0  0  0  0  0  0  0  0  0  0  0
   22.2340   14.7200   12.2380 O   0  0  0  0  0  0  0  0  0  0  0  0
   23.0320   15.1400   11.2220 C   0  0  0  0  0  0  0  0  0  0  0  0
   22.7440   14.9110    9.9290 N   0  0  0  0  0  0  0  0  0  0  0  0
   21.2980   15.9330    5.8320 C   0  0  0  0  0  0  0  0  0  0  0  0
   20.1390   16.5560    5.9010 N   0  0  0  0  0  0  0  0  0  0  0  0
   18.9504   19.6134    8.5356 H   0  0  0  0  0  0  0  0  0  0  0  0
   19.8320   19.3891    6.9867 H   0  0  0  0  0  0  0  0  0  0  0  0
   18.0430   19.5504    6.9867 H   0  0  0  0  0  0  0  0  0  0  0  0
   18.5927   17.4037    8.7357 H   0  0  0  0  0  0  0  0  0  0  0  0
   17.9340   17.3213    7.0450 H   0  0  0  0  0  0  0  0  0  0  0  0
   21.2703   16.6682    9.0378 H   0  0  0  0  0  0  0  0  0  0  0  0
   25.5347   16.4813    8.6972 H   0  0  0  0  0  0  0  0  0  0  0  0
   25.9753   16.8542   11.1575 H   0  0  0  0  0  0  0  0  0  0  0  0
   24.4863   18.2832   13.4568 H   0  0  0  0  0  0  0  0  0  0  0  0
   27.0514   17.9832   14.6907 H   0  0  0  0  0  0  0  0  0  0  0  0
   24.8068   18.5488   16.6725 H   0  0  0  0  0  0  0  0  0  0  0  0
   25.8891   17.1159   16.6469 H   0  0  0  0  0  0  0  0  0  0  0  0
   26.6214   18.8579   18.2871 H   0  0  0  0  0  0  0  0  0  0  0  0
   27.8434   18.5413   16.9892 H   0  0  0  0  0  0  0  0  0  0  0  0
   26.8972   21.6589   15.2050 H   0  0  0  0  0  0  0  0  0  0  0  0
   22.4059   14.9102   14.3979 H   0  0  0  0  0  0  0  0  0  0  0  0
   21.7138   15.4817    4.9191 H   0  0  0  0  0  0  0  0  0  0  0  0
  1  2  1  0
  2  3  1  0
  3  4  2  0
  4  5  1  0
  5  6  1  0
  6  7  2  0
  6  8  2  0
  6  9  1  0
  9 10  2  0
 10 11  1  0
 11 12  2  0
 12 13  1  0
 13 14  1  0
 14 15  2  0
 14 16  1  0
 16 17  1  0
 17 18  1  0
 18 19  1  0
 19 20  1  0
 20 21  2  0
 20 22  1  0
 22 23  1  0
 23 24  2  0
 13 25  2  0
 25 26  1  0
 26 27  1  0
 27 28  2  0
  5 29  1  0
 29 30  2  0
 30  3  1  0
 28  9  1  0
 27 12  1  0
 23 17  1  0
  1 31  1  0
  1 32  1  0
  1 33  1  0
  2 34  1  0
  2 35  1  0
  4 36  1  0
 10 37  1  0
 11 38  1  0
 16 39  1  0
 17 40  1  6
 18 41  1  0
 18 42  1  0
 19 43  1  0
 19 44  1  0
 22 45  1  0
 25 46  1  0
 29 47  1  0
M  END
>  <meeko>  (719) 
{"is_sidechain": [true], "free_energy": -10.57, "intermolecular_energy": 0.0, "internal_energy": -10.57, "cluster_size": 10, "cluster_id": 1, "rank_in_cluster": 1}

>  <_RMSD_MCS_to_ref>  (719) 
0.8589862241813507

$$$$
ligand
     RDKit          3D

 47 50  0  0  0  0  0  0  0  0999 V2000
   18.9090   19.1540    7.5370 C   0  0  0  0  0  0  0  0  0  0  0  0
   18.7730   17.6460    7.6780 C   0  0  0  0  0  0  0  0  0  0  0  0
   20.0090   16.9290    7.2640 C   0  0  0  0  0  0  0  0  0  0  0  0
   21.1970   16.7770    7.9520 C   0  0  0  0  0  0  0  0  0  0  0  0
   21.9860   16.0550    7.1020 N   0  0  0  0  0  0  0  0  0  0  0  0
   23.4970   15.4290    7.4530 S   0  0  0  0  0  6  0  0  0  0  0  0
   23.3650   13.9850    7.4210 O   0  0  0  0  0  0  0  0  0  0  0  0
   24.4450   16.1490    6.6260 O   0  0  0  0  0  0  0  0  0  0  0  0
   23.9330   15.8050    9.0730 C   0  0  0  0  0  0  0  0  0  0  0  0
   25.0100   16.5390    9.3860 N   0  0  0  0  0  0  0  0  0  0  0  0
   25.0090   16.6140   10.7670 O   0  0  0  0  0  0  0  0  0  0  0  0
   23.9420   15.9330   11.2720 C   0  0  0  0  0  0  0  0  0  0  0  0
   23.6010   15.7800   12.6170 C   0  0  0  0  0  0  0  0  0  0  0  0
   24.3720   16.3520   13.7440 C   0  0  0  0  0  0  0  0  0  0  0  0
   24.3010   15.8370   14.8550 O   0  0  0  0  0  0  0  0  0  0  0  0
   25.1630   17.4480   13.4920 N   0  0  0  0  0  0  0  0  0  0  0  0
   26.0460   18.0010   14.5100 C   0  0  2  0  0  0  0  0  0  0  0  0
   25.3660   18.0850   15.8720 C   0  0  0  0  0  0  0  0  0  0  0  0
   26.3280   18.6940   16.8820 C   0  0  0  0  0  0  0  0  0  0  0  0
   26.8290   20.0410   16.4180 C   0  0  0  0  0  0  0  0  0  0  0  0
   27.0870   20.9520   17.2000 O   0  0  0  0  0  0  0  0  0  0  0  0
   27.0160   20.1970   15.0680 N   0  0  0  0  0  0  0  0  0  0  0  0
   26.4810   19.4050   14.0820 C   0  0  0  0  0  0  0  0  0  0  0  0
   26.3780   19.8140   12.9260 O   0  0  0  0  0  0  0  0  0  0  0  0
   22.4350   15.0360   12.8750 C   0  0  0  0  0  0  0  0  0  0  0  0
   21.6780   14.4800   11.8400 C   0  0  0  0  0  0  0  0  0  0  0  0
   22.0550   14.6480   10.5030 C   0  0  0  0  0  0  0  0  0  0  0  0
   23.2130   15.3940   10.2200 C   0  0  0  0  0  0  0  0  0  0  0  0
   21.2740   15.7450    5.9890 C   0  0  0  0  0  0  0  0  0  0  0  0
   20.0730   16.2820    6.0450 N   0  0  0  0  0  0  0  0  0  0  0  0
   18.9504   19.6134    8.5356 H   0  0  0  0  0  0  0  0  0  0  0  0
   19.8320   19.3891    6.9867 H   0  0  0  0  0  0  0  0  0  0  0  0
   18.0430   19.5504    6.9867 H   0  0  0  0  0  0  0  0  0  0  0  0
   18.5601   17.4064    8.7303 H   0  0  0  0  0  0  0  0  0  0  0  0
   17.9555   17.3177    7.0193 H   0  0  0  0  0  0  0  0  0  0  0  0
   21.4499   17.1516    8.9549 H   0  0  0  0  0  0  0  0  0  0  0  0
   25.1304   17.8884   12.5615 H   0  0  0  0  0  0  0  0  0  0  0  0
   26.9136   17.3316   14.6061 H   0  0  0  0  0  0  0  0  0  0  0  0
   24.4676   18.7150   15.7952 H   0  0  0  0  0  0  0  0  0  0  0  0
   25.0786   17.0756   16.2015 H   0  0  0  0  0  0  0  0  0  0  0  0
   25.8080   18.8167   17.8435 H   0  0  0  0  0  0  0  0  0  0  0  0
   27.1910   18.0205   16.9900 H   0  0  0  0  0  0  0  0  0  0  0  0
   27.6127   20.9804   14.7661 H   0  0  0  0  0  0  0  0  0  0  0  0
   22.1115   14.8884   13.9160 H   0  0  0  0  0  0  0  0  0  0  0  0
   20.7732   13.9023   12.0798 H   0  0  0  0  0  0  0  0  0  0  0  0
   21.4586   14.2062    9.6911 H   0  0  0  0  0  0  0  0  0  0  0  0
   21.6479   15.1310    5.1565 H   0  0  0  0  0  0  0  0  0  0  0  0
  1  2  1  0
  2  3  1  0
  3  4  2  0
  4  5  1  0
  5  6  1  0
  6  7  2  0
  6  8  2  0
  6  9  1  0
  9 10  2  0
 10 11  1  0
 11 12  1  0
 12 13  2  0
 13 14  1  0
 14 15  2  0
 14 16  1  0
 16 17  1  0
 17 18  1  0
 18 19  1  0
 19 20  1  0
 20 21  2  0
 20 22  1  0
 22 23  1  0
 23 24  2  0
 13 25  1  0
 25 26  2  0
 26 27  1  0
 27 28  2  0
  5 29  1  0
 29 30  2  0
 30  3  1  0
 28  9  1  0
 28 12  1  0
 23 17  1  0
  1 31  1  0
  1 32  1  0
  1 33  1  0
  2 34  1  0
  2 35  1  0
  4 36  1  0
 16 37  1  0
 17 38  1  1
 18 39  1  0
 18 40  1  0
 19 41  1  0
 19 42  1  0
 22 43  1  0
 25 44  1  0
 26 45  1  0
 27 46  1  0
 29 47  1  0
M  END
>  <meeko>  (720) 
{"is_sidechain": [true], "free_energy": -10.57, "intermolecular_energy": 0.0, "internal_energy": -10.57, "cluster_size": 11, "cluster_id": 1, "rank_in_cluster": 1}

>  <_RMSD_MCS_to_ref>  (720) 
1.00267664002132

$$$$
ligand
     RDKit          3D

 51 54  0  0  0  0  0  0  0  0999 V2000
   18.9090   19.1540    7.5370 C   0  0  0  0  0  0  0  0  0  0  0  0
   18.7730   17.6460    7.6780 C   0  0  0  0  0  0  0  0  0  0  0  0
   20.0920   16.9580    7.6300 C   0  0  0  0  0  0  0  0  0  0  0  0
   20.9720   16.6970    8.6620 C   0  0  0  0  0  0  0  0  0  0  0  0
   22.0190   16.0630    8.0550 N   0  0  0  0  0  0  0  0  0  0  0  0
   23.4930   15.6850    8.7690 S   0  0  0  0  0  6  0  0  0  0  0  0
   24.3420   16.8280    8.4910 O   0  0  0  0  0  0  0  0  0  0  0  0
   23.8040   14.3490    8.3000 O   0  0  0  0  0  0  0  0  0  0  0  0
   23.2520   15.5990   10.5310 C   0  0  0  0  0  0  0  0  0  0  0  0
   24.0200   16.4050   11.3830 C   0  0  0  0  0  0  0  0  0  0  0  0
   23.8350   16.3400   12.7660 C   0  0  0  0  0  0  0  0  0  0  0  0
   24.6600   17.2300   13.6290 C   0  0  0  0  0  0  0  0  0  0  0  0
   25.8810   17.1250   13.6250 O   0  0  0  0  0  0  0  0  0  0  0  0
   23.9830   18.1210   14.4290 N   0  0  0  0  0  0  0  0  0  0  0  0
   24.6870   18.9170   15.4270 C   0  0  1  0  0  0  0  0  0  0  0  0
   25.6700   18.0860   16.2440 C   0  0  0  0  0  0  0  0  0  0  0  0
   26.3980   18.9880   17.2290 C   0  0  0  0  0  0  0  0  0  0  0  0
   27.0810   20.1350   16.5220 C   0  0  0  0  0  0  0  0  0  0  0  0
   28.1470   20.6050   16.9060 O   0  0  0  0  0  0  0  0  0  0  0  0
   26.4340   20.6560   15.4300 N   0  0  0  0  0  0  0  0  0  0  0  0
   25.4530   20.0280   14.7030 C   0  0  0  0  0  0  0  0  0  0  0  0
   25.2090   20.3570   13.5420 O   0  0  0  0  0  0  0  0  0  0  0  0
   22.8700   15.4810   13.2970 C   0  0  0  0  0  0  0  0  0  0  0  0
   22.0920   14.6660   12.4600 C   0  0  0  0  0  0  0  0  0  0  0  0
   21.1330   13.8120   13.0290 C   0  0  0  0  0  0  0  0  0  0  0  0
   20.3380   12.9910   12.2350 C   0  0  0  0  0  0  0  0  0  0  0  0
   20.4890   13.0150   10.8580 C   0  0  0  0  0  0  0  0  0  0  0  0
   21.4370   13.8590   10.2750 C   0  0  0  0  0  0  0  0  0  0  0  0
   22.2680   14.7090   11.0510 C   0  0  0  0  0  0  0  0  0  0  0  0
   21.7720   15.9660    6.7230 C   0  0  0  0  0  0  0  0  0  0  0  0
   20.6050   16.5020    6.4320 N   0  0  0  0  0  0  0  0  0  0  0  0
   18.9504   19.6134    8.5356 H   0  0  0  0  0  0  0  0  0  0  0  0
   19.8320   19.3891    6.9867 H   0  0  0  0  0  0  0  0  0  0  0  0
   18.0430   19.5504    6.9867 H   0  0  0  0  0  0  0  0  0  0  0  0
   18.2909   17.4218    8.6410 H   0  0  0  0  0  0  0  0  0  0  0  0
   18.1691   17.2800    6.8346 H   0  0  0  0  0  0  0  0  0  0  0  0
   20.8564   16.9431    9.7279 H   0  0  0  0  0  0  0  0  0  0  0  0
   24.7701   17.0903   10.9614 H   0  0  0  0  0  0  0  0  0  0  0  0
   22.9642   18.2273   14.3214 H   0  0  0  0  0  0  0  0  0  0  0  0
   23.9430   19.3279   16.1254 H   0  0  0  0  0  0  0  0  0  0  0  0
   25.1226   17.3072   16.7951 H   0  0  0  0  0  0  0  0  0  0  0  0
   26.3998   17.6132   15.5703 H   0  0  0  0  0  0  0  0  0  0  0  0
   25.6713   19.3926   17.9488 H   0  0  0  0  0  0  0  0  0  0  0  0
   27.1654   18.3915   17.7440 H   0  0  0  0  0  0  0  0  0  0  0  0
   26.7085   21.6020   15.1289 H   0  0  0  0  0  0  0  0  0  0  0  0
   22.7177   15.4427   14.3857 H   0  0  0  0  0  0  0  0  0  0  0  0
   21.0081   13.7918   14.1217 H   0  0  0  0  0  0  0  0  0  0  0  0
   19.5937   12.3265   12.6982 H   0  0  0  0  0  0  0  0  0  0  0  0
   19.8627   12.3698   10.2243 H   0  0  0  0  0  0  0  0  0  0  0  0
   21.5430   13.8652    9.1801 H   0  0  0  0  0  0  0  0  0  0  0  0
   22.4510   15.5048    5.9907 H   0  0  0  0  0  0  0  0  0  0  0  0
  1  2  1  0
  2  3  1  0
  3  4  2  0
  4  5  1  0
  5  6  1  0
  6  7  2  0
  6  8  2  0
  6  9  1  0
  9 10  2  0
 10 11  1  0
 11 12  1  0
 12 13  2  0
 12 14  1  0
 14 15  1  0
 15 16  1  0
 16 17  1  0
 17 18  1  0
 18 19  2  0
 18 20  1  0
 20 21  1  0
 21 22  2  0
 11 23  2  0
 23 24  1  0
 24 25  2  0
 25 26  1  0
 26 27  2  0
 27 28  1  0
 28 29  2  0
  5 30  1  0
 30 31  2  0
 31  3  1  0
 29  9  1  0
 21 15  1  0
 29 24  1  0
  1 32  1  0
  1 33  1  0
  1 34  1  0
  2 35  1  0
  2 36  1  0
  4 37  1  0
 10 38  1  0
 14 39  1  0
 15 40  1  1
 16 41  1  0
 16 42  1  0
 17 43  1  0
 17 44  1  0
 20 45  1  0
 23 46  1  0
 25 47  1  0
 26 48  1  0
 27 49  1  0
 28 50  1  0
 30 51  1  0
M  END
>  <meeko>  (721) 
{"is_sidechain": [true], "free_energy": -10.57, "intermolecular_energy": 0.0, "internal_energy": -10.57, "cluster_size": 20, "cluster_id": 1, "rank_in_cluster": 1}

>  <_RMSD_MCS_to_ref>  (721) 
0.7607366313135062

$$$$
ligand
     RDKit          3D

 60 64  0  0  0  0  0  0  0  0999 V2000
   18.8250   19.0170    7.5350 C   0  0  0  0  0  0  0  0  0  0  0  0
   18.5200   17.5420    7.7330 C   0  0  0  0  0  0  0  0  0  0  0  0
   19.7560   16.7290    7.8880 C   0  0  0  0  0  0  0  0  0  0  0  0
   20.0860   15.8290    8.8830 C   0  0  0  0  0  0  0  0  0  0  0  0
   21.3300   15.3850    8.5330 N   0  0  0  0  0  0  0  0  0  0  0  0
   22.1780   14.1630    9.3080 S   0  0  0  0  0  6  0  0  0  0  0  0
   21.2070   13.0970    9.4760 O   0  0  0  0  0  0  0  0  0  0  0  0
   23.4070   13.9410    8.5730 O   0  0  0  0  0  0  0  0  0  0  0  0
   22.5800   14.7820   10.9200 C   0  0  0  0  0  0  0  0  0  0  0  0
   23.8430   15.3590   11.1180 C   0  0  0  0  0  0  0  0  0  0  0  0
   24.1130   15.8810   12.3710 C   0  0  0  0  0  0  0  0  0  0  0  0
   23.1900   15.8650   13.4150 C   0  0  0  0  0  0  0  0  0  0  0  0
   21.9370   15.3130   13.2280 C   0  0  0  0  0  0  0  0  0  0  0  0
   21.6300   14.7790   11.9610 C   0  0  0  0  0  0  0  0  0  0  0  0
   20.3160   14.1440   11.7980 C   0  0  0  0  0  0  0  0  0  0  0  0
   19.4060   14.8590   11.3960 O   0  0  0  0  0  0  0  0  0  0  0  0
   20.1960   12.8070   12.0920 N   0  0  0  0  0  0  0  0  0  0  0  0
   18.9090   12.1430   11.9970 C   0  0  0  0  0  0  0  0  0  0  0  0
   19.2140   10.6870   12.3120 C   0  0  0  0  0  0  0  0  0  0  0  0
   20.3590   10.7950   13.3100 C   0  0  0  0  0  0  0  0  0  0  0  0
   21.1720   11.9670   12.7750 C   0  0  0  0  0  0  0  0  0  0  0  0
   23.7770   16.5120   14.6270 C   0  0  0  0  0  0  0  0  0  0  0  0
   25.1350   16.8190   14.1950 N   0  0  0  0  0  0  0  0  0  0  0  0
   26.0280   17.7090   14.9280 C   0  0  2  0  0  0  0  0  0  0  0  0
   25.8090   17.6460   16.4370 C   0  0  0  0  0  0  0  0  0  0  0  0
   26.8280   18.5360   17.1320 C   0  0  0  0  0  0  0  0  0  0  0  0
   26.7640   19.9520   16.6080 C   0  0  0  0  0  0  0  0  0  0  0  0
   26.9300   20.9290   17.3320 O   0  0  0  0  0  0  0  0  0  0  0  0
   26.5210   20.0980   15.2660 N   0  0  0  0  0  0  0  0  0  0  0  0
   25.8940   19.1700   14.4660 C   0  0  0  0  0  0  0  0  0  0  0  0
   25.2680   19.5280   13.4710 O   0  0  0  0  0  0  0  0  0  0  0  0
   25.3350   16.5320   12.8530 C   0  0  0  0  0  0  0  0  0  0  0  0
   26.3160   16.7600   12.1720 O   0  0  0  0  0  0  0  0  0  0  0  0
   21.7000   15.9700    7.3650 C   0  0  0  0  0  0  0  0  0  0  0  0
   20.7650   16.7990    6.9480 N   0  0  0  0  0  0  0  0  0  0  0  0
   18.9260   19.5054    8.5155 H   0  0  0  0  0  0  0  0  0  0  0  0
   19.7645   19.1250    6.9731 H   0  0  0  0  0  0  0  0  0  0  0  0
   18.0054   19.4887    6.9731 H   0  0  0  0  0  0  0  0  0  0  0  0
   17.9038   17.4258    8.6368 H   0  0  0  0  0  0  0  0  0  0  0  0
   17.9897   17.1835    6.8384 H   0  0  0  0  0  0  0  0  0  0  0  0
   19.4850   15.5368    9.7567 H   0  0  0  0  0  0  0  0  0  0  0  0
   24.5887   15.3952   10.3101 H   0  0  0  0  0  0  0  0  0  0  0  0
   21.2006   15.2912   14.0448 H   0  0  0  0  0  0  0  0  0  0  0  0
   18.2005   12.5598   12.7279 H   0  0  0  0  0  0  0  0  0  0  0  0
   18.4418   12.2706   11.0093 H   0  0  0  0  0  0  0  0  0  0  0  0
   18.3427   10.1869   12.7601 H   0  0  0  0  0  0  0  0  0  0  0  0
   19.4643   10.0904   11.4224 H   0  0  0  0  0  0  0  0  0  0  0  0
   19.9826   11.0045   14.3221 H   0  0  0  0  0  0  0  0  0  0  0  0
   20.9437    9.8677   13.4002 H   0  0  0  0  0  0  0  0  0  0  0  0
   21.6495   12.5173   13.5991 H   0  0  0  0  0  0  0  0  0  0  0  0
   21.9842   11.6426   12.1078 H   0  0  0  0  0  0  0  0  0  0  0  0
   23.2284   17.4273   14.8940 H   0  0  0  0  0  0  0  0  0  0  0  0
   23.7355   15.8787   15.5254 H   0  0  0  0  0  0  0  0  0  0  0  0
   27.0433   17.3497   14.7042 H   0  0  0  0  0  0  0  0  0  0  0  0
   24.7935   17.9950   16.6755 H   0  0  0  0  0  0  0  0  0  0  0  0
   25.9296   16.6089   16.7832 H   0  0  0  0  0  0  0  0  0  0  0  0
   26.6204   18.5434   18.2122 H   0  0  0  0  0  0  0  0  0  0  0  0
   27.8332   18.1360   16.9330 H   0  0  0  0  0  0  0  0  0  0  0  0
   26.8330   20.9729   14.8209 H   0  0  0  0  0  0  0  0  0  0  0  0
   22.6477   15.7786    6.8404 H   0  0  0  0  0  0  0  0  0  0  0  0
  1  2  1  0
  2  3  1  0
  3  4  2  0
  4  5  1  0
  5  6  1  0
  6  7  2  0
  6  8  2  0
  6  9  1  0
  9 10  2  0
 10 11  1  0
 11 12  2  0
 12 13  1  0
 13 14  2  0
 14 15  1  0
 15 16  2  0
 15 17  1  0
 17 18  1  0
 18 19  1  0
 19 20  1  0
 20 21  1  0
 12 22  1  0
 22 23  1  0
 23 24  1  0
 24 25  1  0
 25 26  1  0
 26 27  1  0
 27 28  2  0
 27 29  1  0
 29 30  1  0
 30 31  2  0
 23 32  1  0
 32 33  2  0
  5 34  1  0
 34 35  2  0
 35  3  1  0
 14  9  1  0
 21 17  1  0
 30 24  1  0
 32 11  1  0
  1 36  1  0
  1 37  1  0
  1 38  1  0
  2 39  1  0
  2 40  1  0
  4 41  1  0
 10 42  1  0
 13 43  1  0
 18 44  1  0
 18 45  1  0
 19 46  1  0
 19 47  1  0
 20 48  1  0
 20 49  1  0
 21 50  1  0
 21 51  1  0
 22 52  1  0
 22 53  1  0
 24 54  1  1
 25 55  1  0
 25 56  1  0
 26 57  1  0
 26 58  1  0
 29 59  1  0
 34 60  1  0
M  END
>  <meeko>  (722) 
{"is_sidechain": [true], "free_energy": -10.56, "intermolecular_energy": 0.0, "internal_energy": -10.56, "cluster_size": 14, "cluster_id": 1, "rank_in_cluster": 1}

>  <_RMSD_MCS_to_ref>  (722) 
1.9706359943485814

$$$$
ligand
     RDKit          3D

 48 51  0  0  0  0  0  0  0  0999 V2000
   18.7970   18.8170    7.7190 C   0  0  0  0  0  0  0  0  0  0  0  0
   18.5280   17.3290    7.8810 C   0  0  0  0  0  0  0  0  0  0  0  0
   19.7840   16.5350    7.9530 C   0  0  0  0  0  0  0  0  0  0  0  0
   20.3700   15.9360    9.0500 C   0  0  0  0  0  0  0  0  0  0  0  0
   21.5090   15.3690    8.5540 N   0  0  0  0  0  0  0  0  0  0  0  0
   22.5140   14.2790    9.3660 S   0  0  0  0  0  6  0  0  0  0  0  0
   22.3680   13.0460    8.6090 O   0  0  0  0  0  0  0  0  0  0  0  0
   23.8010   14.9500    9.4300 O   0  0  0  0  0  0  0  0  0  0  0  0
   21.8370   14.0950   10.9700 C   0  0  0  0  0  0  0  0  0  0  0  0
   20.8520   13.1860   11.1470 C   0  0  0  0  0  0  0  0  0  0  0  0
   20.2150   12.9950   12.4390 C   0  0  0  0  0  0  0  0  0  0  0  0
   20.6170   13.7480   13.4730 C   0  0  0  0  0  0  0  0  0  0  0  0
   21.6340   14.6890   13.3080 N   0  0  0  0  0  0  0  0  0  0  0  0
   22.1320   15.5110   14.2630 N   0  0  0  0  0  0  0  0  0  0  0  0
   23.1040   16.2160   13.6560 C   0  0  0  0  0  0  0  0  0  0  0  0
   23.8930   17.2270   14.3750 C   0  0  0  0  0  0  0  0  0  0  0  0
   23.3820   18.1460   15.0080 O   0  0  0  0  0  0  0  0  0  0  0  0
   25.2510   17.0350   14.2820 N   0  0  0  0  0  0  0  0  0  0  0  0
   26.2040   17.8110   15.0490 C   0  0  2  0  0  0  0  0  0  0  0  0
   25.9000   17.7750   16.5430 C   0  0  0  0  0  0  0  0  0  0  0  0
   26.9170   18.6220   17.2910 C   0  0  0  0  0  0  0  0  0  0  0  0
   26.9500   20.0350   16.7610 C   0  0  0  0  0  0  0  0  0  0  0  0
   27.1870   21.0020   17.4780 O   0  0  0  0  0  0  0  0  0  0  0  0
   26.7350   20.1900   15.4150 N   0  0  0  0  0  0  0  0  0  0  0  0
   26.1760   19.2650   14.5670 C   0  0  0  0  0  0  0  0  0  0  0  0
   25.7080   19.6060   13.4820 O   0  0  0  0  0  0  0  0  0  0  0  0
   23.2290   15.8520   12.2950 C   0  0  0  0  0  0  0  0  0  0  0  0
   22.2730   14.8860   12.0820 C   0  0  0  0  0  0  0  0  0  0  0  0
   21.5620   15.5800    7.2130 C   0  0  0  0  0  0  0  0  0  0  0  0
   20.5310   16.2950    6.8160 N   0  0  0  0  0  0  0  0  0  0  0  0
   18.8815   19.2845    8.7111 H   0  0  0  0  0  0  0  0  0  0  0  0
   19.7359   18.9616    7.1643 H   0  0  0  0  0  0  0  0  0  0  0  0
   17.9682   19.2812    7.1643 H   0  0  0  0  0  0  0  0  0  0  0  0
   17.9557   17.1713    8.8071 H   0  0  0  0  0  0  0  0  0  0  0  0
   17.9645   16.9900    6.9993 H   0  0  0  0  0  0  0  0  0  0  0  0
   20.0032   15.9192   10.0869 H   0  0  0  0  0  0  0  0  0  0  0  0
   20.5248   12.5761   10.2921 H   0  0  0  0  0  0  0  0  0  0  0  0
   19.4184   12.2471   12.5663 H   0  0  0  0  0  0  0  0  0  0  0  0
   20.1422   13.6232   14.4574 H   0  0  0  0  0  0  0  0  0  0  0  0
   25.6051   16.3104   13.6413 H   0  0  0  0  0  0  0  0  0  0  0  0
   27.1990   17.3680   14.8949 H   0  0  0  0  0  0  0  0  0  0  0  0
   24.8902   18.1734   16.7208 H   0  0  0  0  0  0  0  0  0  0  0  0
   25.9547   16.7367   16.9020 H   0  0  0  0  0  0  0  0  0  0  0  0
   26.6486   18.6455   18.3575 H   0  0  0  0  0  0  0  0  0  0  0  0
   27.9121   18.1749   17.1498 H   0  0  0  0  0  0  0  0  0  0  0  0
   27.0207   21.0881   14.9994 H   0  0  0  0  0  0  0  0  0  0  0  0
   23.9413   16.2565   11.5608 H   0  0  0  0  0  0  0  0  0  0  0  0
   22.3565   15.2052    6.5509 H   0  0  0  0  0  0  0  0  0  0  0  0
  1  2  1  0
  2  3  1  0
  3  4  2  0
  4  5  1  0
  5  6  1  0
  6  7  2  0
  6  8  2  0
  6  9  1  0
  9 10  2  0
 10 11  1  0
 11 12  2  0
 12 13  1  0
 13 14  1  0
 14 15  2  0
 15 16  1  0
 16 17  2  0
 16 18  1  0
 18 19  1  0
 19 20  1  0
 20 21  1  0
 21 22  1  0
 22 23  2  0
 22 24  1  0
 24 25  1  0
 25 26  2  0
 15 27  1  0
 27 28  2  0
  5 29  1  0
 29 30  2  0
 30  3  1  0
 28  9  1  0
 28 13  1  0
 25 19  1  0
  1 31  1  0
  1 32  1  0
  1 33  1  0
  2 34  1  0
  2 35  1  0
  4 36  1  0
 10 37  1  0
 11 38  1  0
 12 39  1  0
 18 40  1  0
 19 41  1  1
 20 42  1  0
 20 43  1  0
 21 44  1  0
 21 45  1  0
 24 46  1  0
 27 47  1  0
 29 48  1  0
M  END
>  <meeko>  (723) 
{"is_sidechain": [true], "free_energy": -10.56, "intermolecular_energy": 0.0, "internal_energy": -10.56, "cluster_size": 11, "cluster_id": 1, "rank_in_cluster": 1}

>  <_RMSD_MCS_to_ref>  (723) 
0.7607017228264376

$$$$
ligand
     RDKit          3D

 48 51  0  0  0  0  0  0  0  0999 V2000
   18.7970   18.8170    7.7190 C   0  0  0  0  0  0  0  0  0  0  0  0
   18.5280   17.3290    7.8810 C   0  0  0  0  0  0  0  0  0  0  0  0
   19.7710   16.5180    7.7830 C   0  0  0  0  0  0  0  0  0  0  0  0
   20.1530   15.4190    8.5270 C   0  0  0  0  0  0  0  0  0  0  0  0
   21.3710   15.0760    8.0140 N   0  0  0  0  0  0  0  0  0  0  0  0
   22.3450   13.8250    8.5620 S   0  0  0  0  0  6  0  0  0  0  0  0
   21.4990   13.0860    9.4810 O   0  0  0  0  0  0  0  0  0  0  0  0
   22.9340   13.2010    7.3940 O   0  0  0  0  0  0  0  0  0  0  0  0
   23.6380   14.6180    9.4940 C   0  0  0  0  0  0  0  0  0  0  0  0
   24.6930   15.1920    8.7650 C   0  0  0  0  0  0  0  0  0  0  0  0
   25.7490   15.8070    9.4120 C   0  0  0  0  0  0  0  0  0  0  0  0
   25.7660   15.8810   10.8040 C   0  0  0  0  0  0  0  0  0  0  0  0
   24.7020   15.3540   11.5870 C   0  0  0  0  0  0  0  0  0  0  0  0
   24.5030   15.3470   13.0300 C   0  0  0  0  0  0  0  0  0  0  0  0
   25.3430   15.9440   14.0660 C   0  0  0  0  0  0  0  0  0  0  0  0
   25.8040   15.2920   14.9970 O   0  0  0  0  0  0  0  0  0  0  0  0
   25.5320   17.2970   13.9520 N   0  0  0  0  0  0  0  0  0  0  0  0
   26.3980   18.0370   14.8550 C   0  0  2  0  0  0  0  0  0  0  0  0
   25.9890   17.8630   16.3130 C   0  0  0  0  0  0  0  0  0  0  0  0
   26.9120   18.6870   17.1980 C   0  0  0  0  0  0  0  0  0  0  0  0
   26.9220   20.1390   16.7810 C   0  0  0  0  0  0  0  0  0  0  0  0
   27.0410   21.0560   17.5870 O   0  0  0  0  0  0  0  0  0  0  0  0
   26.8190   20.3920   15.4360 N   0  0  0  0  0  0  0  0  0  0  0  0
   26.3340   19.5230   14.4900 C   0  0  0  0  0  0  0  0  0  0  0  0
   25.8830   19.9300   13.4200 O   0  0  0  0  0  0  0  0  0  0  0  0
   23.3710   14.6380   13.3750 C   0  0  0  0  0  0  0  0  0  0  0  0
   22.4980   14.0920   12.0320 S   0  0  0  0  0  0  0  0  0  0  0  0
   23.6550   14.7060   10.9090 C   0  0  0  0  0  0  0  0  0  0  0  0
   21.6860   15.9250    7.0030 C   0  0  0  0  0  0  0  0  0  0  0  0
   20.7370   16.8230    6.8440 N   0  0  0  0  0  0  0  0  0  0  0  0
   18.8815   19.2845    8.7111 H   0  0  0  0  0  0  0  0  0  0  0  0
   19.7359   18.9616    7.1643 H   0  0  0  0  0  0  0  0  0  0  0  0
   17.9682   19.2812    7.1643 H   0  0  0  0  0  0  0  0  0  0  0  0
   18.0701   17.1573    8.8663 H   0  0  0  0  0  0  0  0  0  0  0  0
   17.8570   17.0172    7.0670 H   0  0  0  0  0  0  0  0  0  0  0  0
   19.6024   14.9318    9.3452 H   0  0  0  0  0  0  0  0  0  0  0  0
   24.6787   15.1517    7.6658 H   0  0  0  0  0  0  0  0  0  0  0  0
   26.5758   16.2379    8.8283 H   0  0  0  0  0  0  0  0  0  0  0  0
   26.6204   16.3570   11.3074 H   0  0  0  0  0  0  0  0  0  0  0  0
   25.0440   17.8063   13.2014 H   0  0  0  0  0  0  0  0  0  0  0  0
   27.4201   17.6454   14.7456 H   0  0  0  0  0  0  0  0  0  0  0  0
   24.9517   18.2039   16.4465 H   0  0  0  0  0  0  0  0  0  0  0  0
   26.0637   16.8015   16.5916 H   0  0  0  0  0  0  0  0  0  0  0  0
   26.5666   18.6160   18.2399 H   0  0  0  0  0  0  0  0  0  0  0  0
   27.9332   18.2905   17.0981 H   0  0  0  0  0  0  0  0  0  0  0  0
   27.1335   21.3160   15.1070 H   0  0  0  0  0  0  0  0  0  0  0  0
   23.0674   14.4474   14.4149 H   0  0  0  0  0  0  0  0  0  0  0  0
   22.6051   15.8703    6.4012 H   0  0  0  0  0  0  0  0  0  0  0  0
  1  2  1  0
  2  3  1  0
  3  4  2  0
  4  5  1  0
  5  6  1  0
  6  7  2  0
  6  8  2  0
  6  9  1  0
  9 10  2  0
 10 11  1  0
 11 12  2  0
 12 13  1  0
 13 14  1  0
 14 15  1  0
 15 16  2  0
 15 17  1  0
 17 18  1  0
 18 19  1  0
 19 20  1  0
 20 21  1  0
 21 22  2  0
 21 23  1  0
 23 24  1  0
 24 25  2  0
 14 26  2  0
 26 27  1  0
 27 28  1  0
  5 29  1  0
 29 30  2  0
 30  3  1  0
 28  9  1  0
 28 13  2  0
 24 18  1  0
  1 31  1  0
  1 32  1  0
  1 33  1  0
  2 34  1  0
  2 35  1  0
  4 36  1  0
 10 37  1  0
 11 38  1  0
 12 39  1  0
 17 40  1  0
 18 41  1  1
 19 42  1  0
 19 43  1  0
 20 44  1  0
 20 45  1  0
 23 46  1  0
 26 47  1  0
 29 48  1  0
M  END
>  <meeko>  (724) 
{"is_sidechain": [true], "free_energy": -10.56, "intermolecular_energy": 0.0, "internal_energy": -10.56, "cluster_size": 19, "cluster_id": 1, "rank_in_cluster": 1}

>  <_RMSD_MCS_to_ref>  (724) 
0.8120656103761286

$$$$
ligand
     RDKit          3D

 48 51  0  0  0  0  0  0  0  0999 V2000
   18.9090   19.1540    7.5370 C   0  0  0  0  0  0  0  0  0  0  0  0
   18.7730   17.6460    7.6780 C   0  0  0  0  0  0  0  0  0  0  0  0
   20.0240   16.9310    7.3060 C   0  0  0  0  0  0  0  0  0  0  0  0
   21.0730   16.5390    8.1130 C   0  0  0  0  0  0  0  0  0  0  0  0
   21.9560   15.9510    7.2530 N   0  0  0  0  0  0  0  0  0  0  0  0
   23.3370   15.0970    7.6850 S   0  0  0  0  0  6  0  0  0  0  0  0
   22.9450   13.7010    7.6910 O   0  0  0  0  0  0  0  0  0  0  0  0
   24.4010   15.6010    6.8400 O   0  0  0  0  0  0  0  0  0  0  0  0
   23.6450   15.6110    9.3490 C   0  0  0  0  0  0  0  0  0  0  0  0
   24.7930   16.3310    9.6560 C   0  0  0  0  0  0  0  0  0  0  0  0
   25.0090   16.7240   10.9760 C   0  0  0  0  0  0  0  0  0  0  0  0
   24.0810   16.4160   12.0050 C   0  0  0  0  0  0  0  0  0  0  0  0
   24.2460   16.8040   13.3700 C   0  0  0  0  0  0  0  0  0  0  0  0
   25.3960   17.5120   13.7610 N   0  0  0  0  0  0  0  0  0  0  0  0
   25.4080   18.4260   14.9150 C   0  0  1  0  0  0  0  0  0  0  0  0
   26.3100   17.8670   16.0120 C   0  0  0  0  0  0  0  0  0  0  0  0
   26.3760   18.8490   17.1710 C   0  0  0  0  0  0  0  0  0  0  0  0
   26.8650   20.2020   16.7140 C   0  0  0  0  0  0  0  0  0  0  0  0
   27.4950   20.9560   17.4510 O   0  0  0  0  0  0  0  0  0  0  0  0
   26.5280   20.5770   15.4390 N   0  0  0  0  0  0  0  0  0  0  0  0
   25.9720   19.7870   14.4640 C   0  0  0  0  0  0  0  0  0  0  0  0
   25.9160   20.1720   13.2940 O   0  0  0  0  0  0  0  0  0  0  0  0
   23.2990   16.3540   14.2910 C   0  0  0  0  0  0  0  0  0  0  0  0
   22.2090   15.6310   13.8420 C   0  0  0  0  0  0  0  0  0  0  0  0
   22.0020   15.3020   12.5550 N   0  0  0  0  0  0  0  0  0  0  0  0
   22.9230   15.6760   11.6610 C   0  0  0  0  0  0  0  0  0  0  0  0
   22.7160   15.2990   10.3440 C   0  0  0  0  0  0  0  0  0  0  0  0
   21.4270   15.9520    6.0020 C   0  0  0  0  0  0  0  0  0  0  0  0
   20.2550   16.5520    5.9970 N   0  0  0  0  0  0  0  0  0  0  0  0
   18.9504   19.6134    8.5356 H   0  0  0  0  0  0  0  0  0  0  0  0
   19.8320   19.3891    6.9867 H   0  0  0  0  0  0  0  0  0  0  0  0
   18.0430   19.5504    6.9867 H   0  0  0  0  0  0  0  0  0  0  0  0
   18.5271   17.4088    8.7236 H   0  0  0  0  0  0  0  0  0  0  0  0
   17.9782   17.3135    6.9942 H   0  0  0  0  0  0  0  0  0  0  0  0
   21.1745   16.6702    9.2004 H   0  0  0  0  0  0  0  0  0  0  0  0
   25.5194   16.5867    8.8705 H   0  0  0  0  0  0  0  0  0  0  0  0
   25.9207   17.2864   11.2262 H   0  0  0  0  0  0  0  0  0  0  0  0
   26.2631   17.3864   13.2194 H   0  0  0  0  0  0  0  0  0  0  0  0
   24.3841   18.5380   15.3011 H   0  0  0  0  0  0  0  0  0  0  0  0
   25.9029   16.9089   16.3673 H   0  0  0  0  0  0  0  0  0  0  0  0
   27.3213   17.7116   15.6081 H   0  0  0  0  0  0  0  0  0  0  0  0
   25.3715   18.9587   17.6057 H   0  0  0  0  0  0  0  0  0  0  0  0
   27.0820   18.4581   17.9185 H   0  0  0  0  0  0  0  0  0  0  0  0
   26.7121   21.5581   15.1853 H   0  0  0  0  0  0  0  0  0  0  0  0
   23.4183   16.5720   15.3626 H   0  0  0  0  0  0  0  0  0  0  0  0
   21.4652   15.3049   14.5839 H   0  0  0  0  0  0  0  0  0  0  0  0
   21.8042   14.7444   10.0775 H   0  0  0  0  0  0  0  0  0  0  0  0
   21.9102   15.5129    5.1167 H   0  0  0  0  0  0  0  0  0  0  0  0
  1  2  1  0
  2  3  1  0
  3  4  2  0
  4  5  1  0
  5  6  1  0
  6  7  2  0
  6  8  2  0
  6  9  1  0
  9 10  2  0
 10 11  1  0
 11 12  2  0
 12 13  1  0
 13 14  1  0
 14 15  1  0
 15 16  1  0
 16 17  1  0
 17 18  1  0
 18 19  2  0
 18 20  1  0
 20 21  1  0
 21 22  2  0
 13 23  2  0
 23 24  1  0
 24 25  2  0
 25 26  1  0
 26 27  2  0
  5 28  1  0
 28 29  2  0
 29  3  1  0
 27  9  1  0
 26 12  1  0
 21 15  1  0
  1 30  1  0
  1 31  1  0
  1 32  1  0
  2 33  1  0
  2 34  1  0
  4 35  1  0
 10 36  1  0
 11 37  1  0
 14 38  1  0
 15 39  1  1
 16 40  1  0
 16 41  1  0
 17 42  1  0
 17 43  1  0
 20 44  1  0
 23 45  1  0
 24 46  1  0
 27 47  1  0
 28 48  1  0
M  END
>  <meeko>  (725) 
{"is_sidechain": [true], "free_energy": -10.56, "intermolecular_energy": 0.0, "internal_energy": -10.56, "cluster_size": 20, "cluster_id": 1, "rank_in_cluster": 1}

>  <_RMSD_MCS_to_ref>  (725) 
0.7004022653685046

$$$$
ligand
     RDKit          3D

 47 50  0  0  0  0  0  0  0  0999 V2000
   18.9090   19.1540    7.5370 C   0  0  0  0  0  0  0  0  0  0  0  0
   18.7730   17.6460    7.6780 C   0  0  0  0  0  0  0  0  0  0  0  0
   19.9920   16.9260    7.2170 C   0  0  0  0  0  0  0  0  0  0  0  0
   21.0840   16.5080    7.9530 C   0  0  0  0  0  0  0  0  0  0  0  0
   21.8790   15.8760    7.0400 N   0  0  0  0  0  0  0  0  0  0  0  0
   23.4630   15.3630    7.3010 S   0  0  0  0  0  6  0  0  0  0  0  0
   23.7020   14.3690    6.2720 O   0  0  0  0  0  0  0  0  0  0  0  0
   24.2420   16.5860    7.3690 O   0  0  0  0  0  0  0  0  0  0  0  0
   23.4650   14.6390    8.7620 O   0  0  0  0  0  0  0  0  0  0  0  0
   23.6740   15.3310    9.9300 C   0  0  0  0  0  0  0  0  0  0  0  0
   22.6080   15.2550   10.8530 C   0  0  0  0  0  0  0  0  0  0  0  0
   22.6760   15.9040   12.0870 C   0  0  0  0  0  0  0  0  0  0  0  0
   23.8250   16.6190   12.3610 C   0  0  0  0  0  0  0  0  0  0  0  0
   24.8890   16.7020   11.4660 C   0  0  0  0  0  0  0  0  0  0  0  0
   24.8300   16.0580   10.2390 C   0  0  0  0  0  0  0  0  0  0  0  0
   25.9880   17.5210   12.0570 C   0  0  0  0  0  0  0  0  0  0  0  0
   25.4080   17.9690   13.3180 N   0  0  0  0  0  0  0  0  0  0  0  0
   26.1840   18.5970   14.3800 C   0  0  2  0  0  0  0  0  0  0  0  0
   25.8070   18.0790   15.7640 C   0  0  0  0  0  0  0  0  0  0  0  0
   26.7170   18.7120   16.8070 C   0  0  0  0  0  0  0  0  0  0  0  0
   26.6630   20.2200   16.7330 C   0  0  0  0  0  0  0  0  0  0  0  0
   26.7400   20.9290   17.7330 O   0  0  0  0  0  0  0  0  0  0  0  0
   26.5420   20.7710   15.4840 N   0  0  0  0  0  0  0  0  0  0  0  0
   26.0520   20.1300   14.3680 C   0  0  0  0  0  0  0  0  0  0  0  0
   25.5450   20.7780   13.4550 O   0  0  0  0  0  0  0  0  0  0  0  0
   24.1720   17.3880   13.5600 C   0  0  0  0  0  0  0  0  0  0  0  0
   23.4840   17.4770   14.5580 O   0  0  0  0  0  0  0  0  0  0  0  0
   21.3210   15.9930    5.8080 C   0  0  0  0  0  0  0  0  0  0  0  0
   20.1580   16.6060    5.8850 N   0  0  0  0  0  0  0  0  0  0  0  0
   18.9504   19.6134    8.5356 H   0  0  0  0  0  0  0  0  0  0  0  0
   19.8320   19.3891    6.9867 H   0  0  0  0  0  0  0  0  0  0  0  0
   18.0430   19.5504    6.9867 H   0  0  0  0  0  0  0  0  0  0  0  0
   18.5974   17.4036    8.7365 H   0  0  0  0  0  0  0  0  0  0  0  0
   17.9312   17.3224    7.0482 H   0  0  0  0  0  0  0  0  0  0  0  0
   21.2703   16.6513    9.0276 H   0  0  0  0  0  0  0  0  0  0  0  0
   21.7095   14.6750   10.5954 H   0  0  0  0  0  0  0  0  0  0  0  0
   21.8493   15.8482   12.8105 H   0  0  0  0  0  0  0  0  0  0  0  0
   25.6678   16.1168    9.5287 H   0  0  0  0  0  0  0  0  0  0  0  0
   26.8886   16.9129   12.2280 H   0  0  0  0  0  0  0  0  0  0  0  0
   26.3157   18.3467   11.4083 H   0  0  0  0  0  0  0  0  0  0  0  0
   27.2294   18.3243   14.1734 H   0  0  0  0  0  0  0  0  0  0  0  0
   24.7612   18.3417   15.9817 H   0  0  0  0  0  0  0  0  0  0  0  0
   25.9231   16.9855   15.7908 H   0  0  0  0  0  0  0  0  0  0  0  0
   26.3946   18.3897   17.8081 H   0  0  0  0  0  0  0  0  0  0  0  0
   27.7502   18.3895   16.6110 H   0  0  0  0  0  0  0  0  0  0  0  0
   26.8437   21.7492   15.3702 H   0  0  0  0  0  0  0  0  0  0  0  0
   21.7765   15.6271    4.8760 H   0  0  0  0  0  0  0  0  0  0  0  0
  1  2  1  0
  2  3  1  0
  3  4  2  0
  4  5  1  0
  5  6  1  0
  6  7  2  0
  6  8  2  0
  6  9  1  0
  9 10  1  0
 10 11  2  0
 11 12  1  0
 12 13  2  0
 13 14  1  0
 14 15  2  0
 14 16  1  0
 16 17  1  0
 17 18  1  0
 18 19  1  0
 19 20  1  0
 20 21  1  0
 21 22  2  0
 21 23  1  0
 23 24  1  0
 24 25  2  0
 17 26  1  0
 26 27  2  0
  5 28  1  0
 28 29  2  0
 29  3  1  0
 15 10  1  0
 24 18  1  0
 26 13  1  0
  1 30  1  0
  1 31  1  0
  1 32  1  0
  2 33  1  0
  2 34  1  0
  4 35  1  0
 11 36  1  0
 12 37  1  0
 15 38  1  0
 16 39  1  0
 16 40  1  0
 18 41  1  6
 19 42  1  0
 19 43  1  0
 20 44  1  0
 20 45  1  0
 23 46  1  0
 28 47  1  0
M  END
>  <meeko>  (726) 
{"is_sidechain": [true], "free_energy": -10.56, "intermolecular_energy": 0.0, "internal_energy": -10.56, "cluster_size": 20, "cluster_id": 1, "rank_in_cluster": 1}

>  <_RMSD_MCS_to_ref>  (726) 
0.9650014968324611

$$$$
ligand
     RDKit          3D

 49 52  0  0  0  0  0  0  0  0999 V2000
   18.9090   19.1540    7.5370 C   0  0  0  0  0  0  0  0  0  0  0  0
   18.7730   17.6460    7.6780 C   0  0  0  0  0  0  0  0  0  0  0  0
   20.0390   16.9340    7.3520 C   0  0  0  0  0  0  0  0  0  0  0  0
   20.9990   16.4340    8.2100 C   0  0  0  0  0  0  0  0  0  0  0  0
   21.9440   15.9020    7.3810 N   0  0  0  0  0  0  0  0  0  0  0  0
   23.2750   14.9830    7.8400 S   0  0  0  0  0  6  0  0  0  0  0  0
   24.3530   15.3450    6.9420 O   0  0  0  0  0  0  0  0  0  0  0  0
   22.7760   13.6240    7.9330 O   0  0  0  0  0  0  0  0  0  0  0  0
   23.6490   15.5640    9.4740 C   0  0  0  0  0  0  0  0  0  0  0  0
   22.6880   15.3830   10.4850 C   0  0  0  0  0  0  0  0  0  0  0  0
   22.9220   15.8400   11.7840 C   0  0  0  0  0  0  0  0  0  0  0  0
   24.1240   16.4820   12.1200 C   0  0  0  0  0  0  0  0  0  0  0  0
   24.4300   16.9890   13.4880 C   0  0  0  0  0  0  0  0  0  0  0  0
   24.0690   16.3560   14.4770 O   0  0  0  0  0  0  0  0  0  0  0  0
   25.0860   18.1960   13.5800 N   0  0  0  0  0  0  0  0  0  0  0  0
   25.2960   18.8440   14.8690 C   0  0  1  0  0  0  0  0  0  0  0  0
   26.3420   18.1260   15.7140 C   0  0  0  0  0  0  0  0  0  0  0  0
   26.5420   18.8780   17.0200 C   0  0  0  0  0  0  0  0  0  0  0  0
   26.9120   20.3220   16.7710 C   0  0  0  0  0  0  0  0  0  0  0  0
   27.6670   20.9460   17.5120 O   0  0  0  0  0  0  0  0  0  0  0  0
   26.3360   20.9250   15.6830 N   0  0  0  0  0  0  0  0  0  0  0  0
   25.7610   20.2810   14.6160 C   0  0  0  0  0  0  0  0  0  0  0  0
   25.6220   20.8430   13.5290 O   0  0  0  0  0  0  0  0  0  0  0  0
   25.0670   16.6570   11.0890 C   0  0  0  0  0  0  0  0  0  0  0  0
   26.3050   17.2670   11.1280 N   0  0  0  0  0  0  0  0  0  0  0  0
   26.9110   17.1880    9.9070 C   0  0  0  0  0  0  0  0  0  0  0  0
   26.0550   16.5310    9.0550 C   0  0  0  0  0  0  0  0  0  0  0  0
   24.8700   16.2030    9.7800 C   0  0  0  0  0  0  0  0  0  0  0  0
   21.5440   16.0560    6.0920 C   0  0  0  0  0  0  0  0  0  0  0  0
   20.3880   16.6860    6.0390 N   0  0  0  0  0  0  0  0  0  0  0  0
   18.9504   19.6134    8.5356 H   0  0  0  0  0  0  0  0  0  0  0  0
   19.8320   19.3891    6.9867 H   0  0  0  0  0  0  0  0  0  0  0  0
   18.0430   19.5504    6.9867 H   0  0  0  0  0  0  0  0  0  0  0  0
   18.4915   17.4112    8.7151 H   0  0  0  0  0  0  0  0  0  0  0  0
   18.0035   17.3086    6.9680 H   0  0  0  0  0  0  0  0  0  0  0  0
   21.0015   16.4588    9.3097 H   0  0  0  0  0  0  0  0  0  0  0  0
   21.7408   14.8755   10.2498 H   0  0  0  0  0  0  0  0  0  0  0  0
   22.1520   15.6944   12.5559 H   0  0  0  0  0  0  0  0  0  0  0  0
   25.4345   18.6491   12.7232 H   0  0  0  0  0  0  0  0  0  0  0  0
   24.3469   18.8183   15.4245 H   0  0  0  0  0  0  0  0  0  0  0  0
   26.0004   17.1027   15.9288 H   0  0  0  0  0  0  0  0  0  0  0  0
   27.2938   18.0871   15.1640 H   0  0  0  0  0  0  0  0  0  0  0  0
   25.6084   18.8423   17.6006 H   0  0  0  0  0  0  0  0  0  0  0  0
   27.3633   18.3997   17.5738 H   0  0  0  0  0  0  0  0  0  0  0  0
   26.3346   21.9548   15.6645 H   0  0  0  0  0  0  0  0  0  0  0  0
   26.7132   17.7174   11.9595 H   0  0  0  0  0  0  0  0  0  0  0  0
   27.9063   17.5800    9.6508 H   0  0  0  0  0  0  0  0  0  0  0  0
   26.2497   16.2984    7.9976 H   0  0  0  0  0  0  0  0  0  0  0  0
   22.1067   15.7039    5.2148 H   0  0  0  0  0  0  0  0  0  0  0  0
  1  2  1  0
  2  3  1  0
  3  4  2  0
  4  5  1  0
  5  6  1  0
  6  7  2  0
  6  8  2  0
  6  9  1  0
  9 10  2  0
 10 11  1  0
 11 12  2  0
 12 13  1  0
 13 14  2  0
 13 15  1  0
 15 16  1  0
 16 17  1  0
 17 18  1  0
 18 19  1  0
 19 20  2  0
 19 21  1  0
 21 22  1  0
 22 23  2  0
 12 24  1  0
 24 25  1  0
 25 26  1  0
 26 27  2  0
 27 28  1  0
  5 29  1  0
 29 30  2  0
 30  3  1  0
 28  9  1  0
 22 16  1  0
 28 24  2  0
  1 31  1  0
  1 32  1  0
  1 33  1  0
  2 34  1  0
  2 35  1  0
  4 36  1  0
 10 37  1  0
 11 38  1  0
 15 39  1  0
 16 40  1  1
 17 41  1  0
 17 42  1  0
 18 43  1  0
 18 44  1  0
 21 45  1  0
 25 46  1  0
 26 47  1  0
 27 48  1  0
 29 49  1  0
M  END
>  <meeko>  (727) 
{"is_sidechain": [true], "free_energy": -10.56, "intermolecular_energy": 0.0, "internal_energy": -10.56, "cluster_size": 7, "cluster_id": 1, "rank_in_cluster": 1}

>  <_RMSD_MCS_to_ref>  (727) 
0.7359389410813916

$$$$
ligand
     RDKit          3D

 48 51  0  0  0  0  0  0  0  0999 V2000
   18.9090   19.1540    7.5370 C   0  0  0  0  0  0  0  0  0  0  0  0
   18.7730   17.6460    7.6780 C   0  0  0  0  0  0  0  0  0  0  0  0
   20.0230   16.9320    7.3040 C   0  0  0  0  0  0  0  0  0  0  0  0
   20.9650   16.3400    8.1230 C   0  0  0  0  0  0  0  0  0  0  0  0
   21.9090   15.8640    7.2590 N   0  0  0  0  0  0  0  0  0  0  0  0
   23.1640   14.8270    7.6590 S   0  0  0  0  0  6  0  0  0  0  0  0
   24.1590   14.9690    6.6170 O   0  0  0  0  0  0  0  0  0  0  0  0
   22.5560   13.5590    8.0040 O   0  0  0  0  0  0  0  0  0  0  0  0
   23.9410   15.3820    9.1220 C   0  0  0  0  0  0  0  0  0  0  0  0
   25.1370   16.0330    9.3490 C   0  0  0  0  0  0  0  0  0  0  0  0
   25.3380   16.2720   10.6790 N   0  0  0  0  0  0  0  0  0  0  0  0
   24.2810   15.7720   11.2880 C   0  0  0  0  0  0  0  0  0  0  0  0
   23.9340   15.7170   12.6760 C   0  0  0  0  0  0  0  0  0  0  0  0
   24.8170   16.2660   13.7540 C   0  0  0  0  0  0  0  0  0  0  0  0
   25.2180   15.5690   14.6840 O   0  0  0  0  0  0  0  0  0  0  0  0
   25.1530   17.5900   13.6340 N   0  0  0  0  0  0  0  0  0  0  0  0
   26.0640   18.2480   14.5540 C   0  0  2  0  0  0  0  0  0  0  0  0
   25.7210   17.9350   16.0070 C   0  0  0  0  0  0  0  0  0  0  0  0
   26.6980   18.6500   16.9260 C   0  0  0  0  0  0  0  0  0  0  0  0
   26.7100   20.1370   16.6630 C   0  0  0  0  0  0  0  0  0  0  0  0
   26.9060   20.9620   17.5510 O   0  0  0  0  0  0  0  0  0  0  0  0
   26.5230   20.5310   15.3630 N   0  0  0  0  0  0  0  0  0  0  0  0
   26.0100   19.7660   14.3430 C   0  0  0  0  0  0  0  0  0  0  0  0
   25.5660   20.2950   13.3250 O   0  0  0  0  0  0  0  0  0  0  0  0
   22.7640   15.1460   13.0410 C   0  0  0  0  0  0  0  0  0  0  0  0
   21.8490   14.5810   12.0630 C   0  0  0  0  0  0  0  0  0  0  0  0
   22.1770   14.6270   10.7620 C   0  0  0  0  0  0  0  0  0  0  0  0
   23.3840   15.2160   10.3750 N   0  0  0  0  0  0  0  0  0  0  0  0
   21.5090   16.1060    5.9840 C   0  0  0  0  0  0  0  0  0  0  0  0
   20.3700   16.7660    5.9770 N   0  0  0  0  0  0  0  0  0  0  0  0
   18.9504   19.6134    8.5356 H   0  0  0  0  0  0  0  0  0  0  0  0
   19.8320   19.3891    6.9867 H   0  0  0  0  0  0  0  0  0  0  0  0
   18.0430   19.5504    6.9867 H   0  0  0  0  0  0  0  0  0  0  0  0
   18.5287   17.4086    8.7239 H   0  0  0  0  0  0  0  0  0  0  0  0
   17.9769   17.3134    6.9957 H   0  0  0  0  0  0  0  0  0  0  0  0
   20.9565   16.2685    9.2206 H   0  0  0  0  0  0  0  0  0  0  0  0
   25.8418   16.3237    8.5561 H   0  0  0  0  0  0  0  0  0  0  0  0
   24.7444   18.1378   12.8634 H   0  0  0  0  0  0  0  0  0  0  0  0
   27.0760   17.8698   14.3470 H   0  0  0  0  0  0  0  0  0  0  0  0
   24.6979   18.2762   16.2235 H   0  0  0  0  0  0  0  0  0  0  0  0
   25.7898   16.8498   16.1734 H   0  0  0  0  0  0  0  0  0  0  0  0
   26.4024   18.4732   17.9707 H   0  0  0  0  0  0  0  0  0  0  0  0
   27.7069   18.2553   16.7352 H   0  0  0  0  0  0  0  0  0  0  0  0
   26.7940   21.4964   15.1275 H   0  0  0  0  0  0  0  0  0  0  0  0
   22.4972   15.1080   14.1075 H   0  0  0  0  0  0  0  0  0  0  0  0
   20.9020   14.1226   12.3841 H   0  0  0  0  0  0  0  0  0  0  0  0
   21.5000   14.2038   10.0053 H   0  0  0  0  0  0  0  0  0  0  0  0
   22.0592   15.7944    5.0839 H   0  0  0  0  0  0  0  0  0  0  0  0
  1  2  1  0
  2  3  1  0
  3  4  2  0
  4  5  1  0
  5  6  1  0
  6  7  2  0
  6  8  2  0
  6  9  1  0
  9 10  2  0
 10 11  1  0
 11 12  2  0
 12 13  1  0
 13 14  1  0
 14 15  2  0
 14 16  1  0
 16 17  1  0
 17 18  1  0
 18 19  1  0
 19 20  1  0
 20 21  2  0
 20 22  1  0
 22 23  1  0
 23 24  2  0
 13 25  2  0
 25 26  1  0
 26 27  2  0
 27 28  1  0
  5 29  1  0
 29 30  2  0
 30  3  1  0
 28  9  1  0
 28 12  1  0
 23 17  1  0
  1 31  1  0
  1 32  1  0
  1 33  1  0
  2 34  1  0
  2 35  1  0
  4 36  1  0
 10 37  1  0
 16 38  1  0
 17 39  1  6
 18 40  1  0
 18 41  1  0
 19 42  1  0
 19 43  1  0
 22 44  1  0
 25 45  1  0
 26 46  1  0
 27 47  1  0
 29 48  1  0
M  END
>  <meeko>  (728) 
{"is_sidechain": [true], "free_energy": -10.56, "intermolecular_energy": 0.0, "internal_energy": -10.56, "cluster_size": 15, "cluster_id": 1, "rank_in_cluster": 1}

>  <_RMSD_MCS_to_ref>  (728) 
0.7163101438777912

$$$$
ligand
     RDKit          3D

 48 51  0  0  0  0  0  0  0  0999 V2000
   18.9090   19.1540    7.5370 C   0  0  0  0  0  0  0  0  0  0  0  0
   18.7730   17.6460    7.6780 C   0  0  0  0  0  0  0  0  0  0  0  0
   20.0830   16.9500    7.5650 C   0  0  0  0  0  0  0  0  0  0  0  0
   21.0880   16.8320    8.5030 C   0  0  0  0  0  0  0  0  0  0  0  0
   22.0630   16.1200    7.8640 N   0  0  0  0  0  0  0  0  0  0  0  0
   23.4480   15.4940    8.5810 S   0  0  0  0  0  6  0  0  0  0  0  0
   23.6290   14.1670    8.0270 O   0  0  0  0  0  0  0  0  0  0  0  0
   24.4540   16.5290    8.4400 O   0  0  0  0  0  0  0  0  0  0  0  0
   23.0120   15.3600   10.2860 C   0  0  0  0  0  0  0  0  0  0  0  0
   23.9130   15.8230   11.2520 C   0  0  0  0  0  0  0  0  0  0  0  0
   23.5540   15.7250   12.5900 C   0  0  0  0  0  0  0  0  0  0  0  0
   24.4980   16.2380   13.6380 C   0  0  0  0  0  0  0  0  0  0  0  0
   24.9940   15.4960   14.4780 O   0  0  0  0  0  0  0  0  0  0  0  0
   24.7670   17.5860   13.5610 N   0  0  0  0  0  0  0  0  0  0  0  0
   25.7820   18.2300   14.3730 C   0  0  2  0  0  0  0  0  0  0  0  0
   25.6110   17.9200   15.8570 C   0  0  0  0  0  0  0  0  0  0  0  0
   26.6870   18.6410   16.6540 C   0  0  0  0  0  0  0  0  0  0  0  0
   26.6650   20.1280   16.3860 C   0  0  0  0  0  0  0  0  0  0  0  0
   26.9510   20.9560   17.2440 O   0  0  0  0  0  0  0  0  0  0  0  0
   26.3380   20.5160   15.1110 N   0  0  0  0  0  0  0  0  0  0  0  0
   25.7000   19.7480   14.1670 C   0  0  0  0  0  0  0  0  0  0  0  0
   25.1210   20.2680   13.2150 O   0  0  0  0  0  0  0  0  0  0  0  0
   22.3870   15.2080   13.0610 N   0  0  0  0  0  0  0  0  0  0  0  0
   21.5720   14.7690   12.0870 C   0  0  0  0  0  0  0  0  0  0  0  0
   20.3450   14.2040   12.3110 N   0  0  0  0  0  0  0  0  0  0  0  0
   19.7740   13.8550   11.1160 C   0  0  0  0  0  0  0  0  0  0  0  0
   20.6490   14.2060   10.1110 C   0  0  0  0  0  0  0  0  0  0  0  0
   21.7960   14.7970   10.7130 C   0  0  0  0  0  0  0  0  0  0  0  0
   21.6310   15.7940    6.6190 C   0  0  0  0  0  0  0  0  0  0  0  0
   20.4310   16.2910    6.4020 N   0  0  0  0  0  0  0  0  0  0  0  0
   18.9504   19.6134    8.5356 H   0  0  0  0  0  0  0  0  0  0  0  0
   19.8320   19.3891    6.9867 H   0  0  0  0  0  0  0  0  0  0  0  0
   18.0430   19.5504    6.9867 H   0  0  0  0  0  0  0  0  0  0  0  0
   18.3358   17.4203    8.6618 H   0  0  0  0  0  0  0  0  0  0  0  0
   18.1289   17.2875    6.8615 H   0  0  0  0  0  0  0  0  0  0  0  0
   21.1011   17.2224    9.5313 H   0  0  0  0  0  0  0  0  0  0  0  0
   24.8816   16.2539   10.9586 H   0  0  0  0  0  0  0  0  0  0  0  0
   24.2254   18.1608   12.8998 H   0  0  0  0  0  0  0  0  0  0  0  0
   26.7618   17.8423   14.0574 H   0  0  0  0  0  0  0  0  0  0  0  0
   24.6190   18.2590   16.1903 H   0  0  0  0  0  0  0  0  0  0  0  0
   25.7014   16.8355   16.0173 H   0  0  0  0  0  0  0  0  0  0  0  0
   26.5152   18.4676   17.7266 H   0  0  0  0  0  0  0  0  0  0  0  0
   27.6677   18.2476   16.3484 H   0  0  0  0  0  0  0  0  0  0  0  0
   26.5954   21.4745   14.8353 H   0  0  0  0  0  0  0  0  0  0  0  0
   19.9167   14.0630   13.2371 H   0  0  0  0  0  0  0  0  0  0  0  0
   18.7914   13.3790   10.9822 H   0  0  0  0  0  0  0  0  0  0  0  0
   20.4894   14.0560    9.0330 H   0  0  0  0  0  0  0  0  0  0  0  0
   22.2034   15.1980    5.8929 H   0  0  0  0  0  0  0  0  0  0  0  0
  1  2  1  0
  2  3  1  0
  3  4  2  0
  4  5  1  0
  5  6  1  0
  6  7  2  0
  6  8  2  0
  6  9  1  0
  9 10  2  0
 10 11  1  0
 11 12  1  0
 12 13  2  0
 12 14  1  0
 14 15  1  0
 15 16  1  0
 16 17  1  0
 17 18  1  0
 18 19  2  0
 18 20  1  0
 20 21  1  0
 21 22  2  0
 11 23  2  0
 23 24  1  0
 24 25  1  0
 25 26  1  0
 26 27  2  0
 27 28  1  0
  5 29  1  0
 29 30  2  0
 30  3  1  0
 28  9  1  0
 21 15  1  0
 28 24  2  0
  1 31  1  0
  1 32  1  0
  1 33  1  0
  2 34  1  0
  2 35  1  0
  4 36  1  0
 10 37  1  0
 14 38  1  0
 15 39  1  6
 16 40  1  0
 16 41  1  0
 17 42  1  0
 17 43  1  0
 20 44  1  0
 25 45  1  0
 26 46  1  0
 27 47  1  0
 29 48  1  0
M  END
>  <meeko>  (729) 
{"is_sidechain": [true], "free_energy": -10.56, "intermolecular_energy": 0.0, "internal_energy": -10.56, "cluster_size": 19, "cluster_id": 1, "rank_in_cluster": 1}

>  <_RMSD_MCS_to_ref>  (729) 
0.5288820494422382

$$$$
ligand
     RDKit          3D

 48 51  0  0  0  0  0  0  0  0999 V2000
   18.9090   19.1540    7.5370 C   0  0  0  0  0  0  0  0  0  0  0  0
   18.7730   17.6460    7.6780 C   0  0  0  0  0  0  0  0  0  0  0  0
   20.0890   16.9550    7.6210 C   0  0  0  0  0  0  0  0  0  0  0  0
   21.0390   16.8130    8.6140 C   0  0  0  0  0  0  0  0  0  0  0  0
   22.0310   16.0810    8.0260 N   0  0  0  0  0  0  0  0  0  0  0  0
   23.4610   15.5990    8.7620 S   0  0  0  0  0  6  0  0  0  0  0  0
   24.4010   16.6920    8.6220 O   0  0  0  0  0  0  0  0  0  0  0  0
   23.7330   14.2830    8.2080 O   0  0  0  0  0  0  0  0  0  0  0  0
   23.1170   15.3810   10.4710 C   0  0  0  0  0  0  0  0  0  0  0  0
   24.0170   15.9070   11.4210 C   0  0  0  0  0  0  0  0  0  0  0  0
   23.7760   15.7500   12.7920 C   0  0  0  0  0  0  0  0  0  0  0  0
   24.7050   16.2990   13.8200 C   0  0  0  0  0  0  0  0  0  0  0  0
   25.2410   15.5500   14.6300 O   0  0  0  0  0  0  0  0  0  0  0  0
   24.9440   17.6540   13.7810 N   0  0  0  0  0  0  0  0  0  0  0  0
   25.9420   18.2640   14.6520 C   0  0  2  0  0  0  0  0  0  0  0  0
   25.6630   17.9850   16.1250 C   0  0  0  0  0  0  0  0  0  0  0  0
   26.7130   18.6790   16.9790 C   0  0  0  0  0  0  0  0  0  0  0  0
   26.7680   20.1600   16.6880 C   0  0  0  0  0  0  0  0  0  0  0  0
   27.0460   20.9900   17.5480 O   0  0  0  0  0  0  0  0  0  0  0  0
   26.5240   20.5420   15.3920 N   0  0  0  0  0  0  0  0  0  0  0  0
   25.9330   19.7770   14.4180 C   0  0  0  0  0  0  0  0  0  0  0  0
   25.4460   20.2900   13.4110 O   0  0  0  0  0  0  0  0  0  0  0  0
   22.6210   15.0880   13.2470 C   0  0  0  0  0  0  0  0  0  0  0  0
   21.7500   14.5830   12.2780 C   0  0  0  0  0  0  0  0  0  0  0  0
   20.5620   13.9020   12.3730 N   0  0  0  0  0  0  0  0  0  0  0  0
   20.1240   13.6490   11.1040 C   0  0  0  0  0  0  0  0  0  0  0  0
   20.9530   14.1270   10.2040 N   0  0  0  0  0  0  0  0  0  0  0  0
   21.9710   14.7120   10.9090 C   0  0  0  0  0  0  0  0  0  0  0  0
   21.6940   15.8300    6.7350 C   0  0  0  0  0  0  0  0  0  0  0  0
   20.5080   16.3360    6.4600 N   0  0  0  0  0  0  0  0  0  0  0  0
   18.9504   19.6134    8.5356 H   0  0  0  0  0  0  0  0  0  0  0  0
   19.8320   19.3891    6.9867 H   0  0  0  0  0  0  0  0  0  0  0  0
   18.0430   19.5504    6.9867 H   0  0  0  0  0  0  0  0  0  0  0  0
   18.2970   17.4221    8.6441 H   0  0  0  0  0  0  0  0  0  0  0  0
   18.1640   17.2820    6.8374 H   0  0  0  0  0  0  0  0  0  0  0  0
   21.0044   17.2007    9.6428 H   0  0  0  0  0  0  0  0  0  0  0  0
   24.9151   16.4447   11.0828 H   0  0  0  0  0  0  0  0  0  0  0  0
   24.4106   18.2452   13.1277 H   0  0  0  0  0  0  0  0  0  0  0  0
   26.9229   17.8293   14.4095 H   0  0  0  0  0  0  0  0  0  0  0  0
   24.6654   18.3665   16.3881 H   0  0  0  0  0  0  0  0  0  0  0  0
   25.7000   16.9007   16.3067 H   0  0  0  0  0  0  0  0  0  0  0  0
   26.4655   18.5317   18.0406 H   0  0  0  0  0  0  0  0  0  0  0  0
   27.6949   18.2428   16.7433 H   0  0  0  0  0  0  0  0  0  0  0  0
   26.8122   21.4942   15.1252 H   0  0  0  0  0  0  0  0  0  0  0  0
   22.4123   14.9727   14.3208 H   0  0  0  0  0  0  0  0  0  0  0  0
   20.0860   13.6303   13.2451 H   0  0  0  0  0  0  0  0  0  0  0  0
   19.1938   13.1123   10.8657 H   0  0  0  0  0  0  0  0  0  0  0  0
   22.3227   15.2811    6.0185 H   0  0  0  0  0  0  0  0  0  0  0  0
  1  2  1  0
  2  3  1  0
  3  4  2  0
  4  5  1  0
  5  6  1  0
  6  7  2  0
  6  8  2  0
  6  9  1  0
  9 10  2  0
 10 11  1  0
 11 12  1  0
 12 13  2  0
 12 14  1  0
 14 15  1  0
 15 16  1  0
 16 17  1  0
 17 18  1  0
 18 19  2  0
 18 20  1  0
 20 21  1  0
 21 22  2  0
 11 23  2  0
 23 24  1  0
 24 25  1  0
 25 26  1  0
 26 27  2  0
 27 28  1  0
  5 29  1  0
 29 30  2  0
 30  3  1  0
 28  9  1  0
 21 15  1  0
 28 24  2  0
  1 31  1  0
  1 32  1  0
  1 33  1  0
  2 34  1  0
  2 35  1  0
  4 36  1  0
 10 37  1  0
 14 38  1  0
 15 39  1  6
 16 40  1  0
 16 41  1  0
 17 42  1  0
 17 43  1  0
 20 44  1  0
 23 45  1  0
 25 46  1  0
 26 47  1  0
 29 48  1  0
M  END
>  <meeko>  (730) 
{"is_sidechain": [true], "free_energy": -10.56, "intermolecular_energy": 0.0, "internal_energy": -10.56, "cluster_size": 20, "cluster_id": 1, "rank_in_cluster": 1}

>  <_RMSD_MCS_to_ref>  (730) 
0.6682259265315055

$$$$
ligand
     RDKit          3D

 47 50  0  0  0  0  0  0  0  0999 V2000
   18.9090   19.1540    7.5370 C   0  0  0  0  0  0  0  0  0  0  0  0
   18.7730   17.6460    7.6780 C   0  0  0  0  0  0  0  0  0  0  0  0
   19.8740   16.9170    6.9920 C   0  0  0  0  0  0  0  0  0  0  0  0
   21.0620   16.4440    7.5140 C   0  0  0  0  0  0  0  0  0  0  0  0
   21.6760   15.8390    6.4550 N   0  0  0  0  0  0  0  0  0  0  0  0
   23.2580   15.2750    6.4270 S   0  0  0  0  0  6  0  0  0  0  0  0
   23.2140   13.9980    5.7430 O   0  0  0  0  0  0  0  0  0  0  0  0
   24.0640   16.3830    5.9540 O   0  0  0  0  0  0  0  0  0  0  0  0
   23.6300   14.9920    8.1210 C   0  0  0  0  0  0  0  0  0  0  0  0
   23.6990   13.6820    8.5850 C   0  0  0  0  0  0  0  0  0  0  0  0
   23.9670   13.3250    9.8650 N   0  0  0  0  0  0  0  0  0  0  0  0
   24.1950   14.3690   10.7000 C   0  0  0  0  0  0  0  0  0  0  0  0
   24.5040   14.3940   12.0760 C   0  0  0  0  0  0  0  0  0  0  0  0
   24.6400   15.7260   12.4270 C   0  0  0  0  0  0  0  0  0  0  0  0
   24.9490   16.3400   13.7000 C   0  0  0  0  0  0  0  0  0  0  0  0
   25.0130   15.7200   14.7570 O   0  0  0  0  0  0  0  0  0  0  0  0
   25.1580   17.6990   13.6360 N   0  0  0  0  0  0  0  0  0  0  0  0
   25.3160   18.5160   14.8250 C   0  0  1  0  0  0  0  0  0  0  0  0
   26.3200   17.9190   15.8060 C   0  0  0  0  0  0  0  0  0  0  0  0
   26.4630   18.8380   17.0100 C   0  0  0  0  0  0  0  0  0  0  0  0
   26.8500   20.2360   16.5890 C   0  0  0  0  0  0  0  0  0  0  0  0
   27.5720   20.9540   17.2740 O   0  0  0  0  0  0  0  0  0  0  0  0
   26.3260   20.6890   15.4050 N   0  0  0  0  0  0  0  0  0  0  0  0
   25.7970   19.9080   14.4060 C   0  0  0  0  0  0  0  0  0  0  0  0
   25.7110   20.3260   13.2520 O   0  0  0  0  0  0  0  0  0  0  0  0
   24.4270   16.5240   11.3280 O   0  0  0  0  0  0  0  0  0  0  0  0
   24.1560   15.6940   10.2860 C   0  0  0  0  0  0  0  0  0  0  0  0
   23.8760   16.0670    8.9790 C   0  0  0  0  0  0  0  0  0  0  0  0
   20.9070   15.9910    5.3470 C   0  0  0  0  0  0  0  0  0  0  0  0
   19.7980   16.6370    5.6420 N   0  0  0  0  0  0  0  0  0  0  0  0
   18.9504   19.6134    8.5356 H   0  0  0  0  0  0  0  0  0  0  0  0
   19.8320   19.3891    6.9867 H   0  0  0  0  0  0  0  0  0  0  0  0
   18.0430   19.5504    6.9867 H   0  0  0  0  0  0  0  0  0  0  0  0
   18.7885   17.3871    8.7470 H   0  0  0  0  0  0  0  0  0  0  0  0
   17.8247   17.3465    7.2079 H   0  0  0  0  0  0  0  0  0  0  0  0
   21.4296   16.5341    8.5469 H   0  0  0  0  0  0  0  0  0  0  0  0
   23.5228   12.8752    7.8583 H   0  0  0  0  0  0  0  0  0  0  0  0
   24.6152   13.5245   12.7406 H   0  0  0  0  0  0  0  0  0  0  0  0
   25.2039   18.1519   12.7120 H   0  0  0  0  0  0  0  0  0  0  0  0
   24.3415   18.5671   15.3327 H   0  0  0  0  0  0  0  0  0  0  0  0
   25.9652   16.9323   16.1384 H   0  0  0  0  0  0  0  0  0  0  0  0
   27.2960   17.8107   15.3103 H   0  0  0  0  0  0  0  0  0  0  0  0
   25.5036   18.8778   17.5466 H   0  0  0  0  0  0  0  0  0  0  0  0
   27.2555   18.4387   17.6600 H   0  0  0  0  0  0  0  0  0  0  0  0
   26.3294   21.7074   15.2508 H   0  0  0  0  0  0  0  0  0  0  0  0
   23.8500   17.1157    8.6479 H   0  0  0  0  0  0  0  0  0  0  0  0
   21.1727   15.6260    4.3439 H   0  0  0  0  0  0  0  0  0  0  0  0
  1  2  1  0
  2  3  1  0
  3  4  2  0
  4  5  1  0
  5  6  1  0
  6  7  2  0
  6  8  2  0
  6  9  1  0
  9 10  2  0
 10 11  1  0
 11 12  2  0
 12 13  1  0
 13 14  2  0
 14 15  1  0
 15 16  2  0
 15 17  1  0
 17 18  1  0
 18 19  1  0
 19 20  1  0
 20 21  1  0
 21 22  2  0
 21 23  1  0
 23 24  1  0
 24 25  2  0
 14 26  1  0
 26 27  1  0
 27 28  2  0
  5 29  1  0
 29 30  2  0
 30  3  1  0
 28  9  1  0
 27 12  1  0
 24 18  1  0
  1 31  1  0
  1 32  1  0
  1 33  1  0
  2 34  1  0
  2 35  1  0
  4 36  1  0
 10 37  1  0
 13 38  1  0
 17 39  1  0
 18 40  1  1
 19 41  1  0
 19 42  1  0
 20 43  1  0
 20 44  1  0
 23 45  1  0
 28 46  1  0
 29 47  1  0
M  END
>  <meeko>  (731) 
{"is_sidechain": [true], "free_energy": -10.56, "intermolecular_energy": 0.0, "internal_energy": -10.56, "cluster_size": 20, "cluster_id": 1, "rank_in_cluster": 1}

>  <_RMSD_MCS_to_ref>  (731) 
0.5771445033765614

$$$$
ligand
     RDKit          3D

 47 50  0  0  0  0  0  0  0  0999 V2000
   18.9090   19.1540    7.5370 C   0  0  0  0  0  0  0  0  0  0  0  0
   18.7730   17.6460    7.6780 C   0  0  0  0  0  0  0  0  0  0  0  0
   19.9210   16.9190    7.0730 C   0  0  0  0  0  0  0  0  0  0  0  0
   21.1240   16.5610    7.6510 C   0  0  0  0  0  0  0  0  0  0  0  0
   21.8070   15.9400    6.6460 N   0  0  0  0  0  0  0  0  0  0  0  0
   23.2990   15.1950    6.7880 S   0  0  0  0  0  6  0  0  0  0  0  0
   24.0420   15.5640    5.5970 O   0  0  0  0  0  0  0  0  0  0  0  0
   23.0520   13.8170    7.1620 O   0  0  0  0  0  0  0  0  0  0  0  0
   24.2110   15.8440    8.0840 C   0  0  0  0  0  0  0  0  0  0  0  0
   25.4870   16.3770    8.0100 C   0  0  0  0  0  0  0  0  0  0  0  0
   25.8470   16.7690    9.2730 N   0  0  0  0  0  0  0  0  0  0  0  0
   24.8240   16.4890   10.1470 C   0  0  0  0  0  0  0  0  0  0  0  0
   24.6820   16.6790   11.5090 C   0  0  0  0  0  0  0  0  0  0  0  0
   25.7480   17.2990   12.3370 C   0  0  0  0  0  0  0  0  0  0  0  0
   26.8280   17.6060   11.8460 O   0  0  0  0  0  0  0  0  0  0  0  0
   25.4150   17.4980   13.6550 N   0  0  0  0  0  0  0  0  0  0  0  0
   26.2670   18.2260   14.5770 C   0  0  2  0  0  0  0  0  0  0  0  0
   25.9560   17.8890   16.0320 C   0  0  0  0  0  0  0  0  0  0  0  0
   26.8620   18.6980   16.9460 C   0  0  0  0  0  0  0  0  0  0  0  0
   26.7360   20.1780   16.6750 C   0  0  0  0  0  0  0  0  0  0  0  0
   26.8510   21.0220   17.5580 O   0  0  0  0  0  0  0  0  0  0  0  0
   26.5190   20.5470   15.3710 N   0  0  0  0  0  0  0  0  0  0  0  0
   26.0720   19.7320   14.3610 C   0  0  0  0  0  0  0  0  0  0  0  0
   25.5670   20.2040   13.3430 O   0  0  0  0  0  0  0  0  0  0  0  0
   23.5300   16.2960   12.1090 N   0  0  0  0  0  0  0  0  0  0  0  0
   22.5850   15.7400   11.3290 C   0  0  0  0  0  0  0  0  0  0  0  0
   22.6410   15.5160   10.0070 N   0  0  0  0  0  0  0  0  0  0  0  0
   23.7930   15.9080    9.4270 C   0  0  0  0  0  0  0  0  0  0  0  0
   21.0230   15.8930    5.5380 C   0  0  0  0  0  0  0  0  0  0  0  0
   19.8720   16.4960    5.7590 N   0  0  0  0  0  0  0  0  0  0  0  0
   18.9504   19.6134    8.5356 H   0  0  0  0  0  0  0  0  0  0  0  0
   19.8320   19.3891    6.9867 H   0  0  0  0  0  0  0  0  0  0  0  0
   18.0430   19.5504    6.9867 H   0  0  0  0  0  0  0  0  0  0  0  0
   18.7179   17.3938    8.7473 H   0  0  0  0  0  0  0  0  0  0  0  0
   17.8605   17.3382    7.1463 H   0  0  0  0  0  0  0  0  0  0  0  0
   21.4554   16.7365    8.6851 H   0  0  0  0  0  0  0  0  0  0  0  0
   26.1007   16.4691    7.1018 H   0  0  0  0  0  0  0  0  0  0  0  0
   26.7445   17.2055    9.5275 H   0  0  0  0  0  0  0  0  0  0  0  0
   24.5244   17.1149   14.0028 H   0  0  0  0  0  0  0  0  0  0  0  0
   27.3077   17.9321   14.3757 H   0  0  0  0  0  0  0  0  0  0  0  0
   24.9054   18.1330   16.2481 H   0  0  0  0  0  0  0  0  0  0  0  0
   26.1268   16.8160   16.2037 H   0  0  0  0  0  0  0  0  0  0  0  0
   26.5842   18.5005   17.9918 H   0  0  0  0  0  0  0  0  0  0  0  0
   27.9032   18.3981   16.7561 H   0  0  0  0  0  0  0  0  0  0  0  0
   26.7098   21.5293   15.1270 H   0  0  0  0  0  0  0  0  0  0  0  0
   21.6575   15.4330   11.8344 H   0  0  0  0  0  0  0  0  0  0  0  0
   21.3089   15.4177    4.5881 H   0  0  0  0  0  0  0  0  0  0  0  0
  1  2  1  0
  2  3  1  0
  3  4  2  0
  4  5  1  0
  5  6  1  0
  6  7  2  0
  6  8  2  0
  6  9  1  0
  9 10  2  0
 10 11  1  0
 11 12  1  0
 12 13  2  0
 13 14  1  0
 14 15  2  0
 14 16  1  0
 16 17  1  0
 17 18  1  0
 18 19  1  0
 19 20  1  0
 20 21  2  0
 20 22  1  0
 22 23  1  0
 23 24  2  0
 13 25  1  0
 25 26  2  0
 26 27  1  0
 27 28  2  0
  5 29  1  0
 29 30  2  0
 30  3  1  0
 28  9  1  0
 28 12  1  0
 23 17  1  0
  1 31  1  0
  1 32  1  0
  1 33  1  0
  2 34  1  0
  2 35  1  0
  4 36  1  0
 10 37  1  0
 11 38  1  0
 16 39  1  0
 17 40  1  6
 18 41  1  0
 18 42  1  0
 19 43  1  0
 19 44  1  0
 22 45  1  0
 26 46  1  0
 29 47  1  0
M  END
>  <meeko>  (732) 
{"is_sidechain": [true], "free_energy": -10.56, "intermolecular_energy": 0.0, "internal_energy": -10.56, "cluster_size": 9, "cluster_id": 1, "rank_in_cluster": 1}

>  <_RMSD_MCS_to_ref>  (732) 
0.8038971741875112

$$$$
ligand
     RDKit          3D

 45 48  0  0  0  0  0  0  0  0999 V2000
   18.9090   19.1540    7.5370 C   0  0  0  0  0  0  0  0  0  0  0  0
   18.7730   17.6460    7.6780 C   0  0  0  0  0  0  0  0  0  0  0  0
   20.0460   16.9360    7.3790 C   0  0  0  0  0  0  0  0  0  0  0  0
   20.8750   16.2400    8.2350 C   0  0  0  0  0  0  0  0  0  0  0  0
   21.9060   15.8270    7.4390 N   0  0  0  0  0  0  0  0  0  0  0  0
   23.1750   14.8290    7.9300 S   0  0  0  0  0  6  0  0  0  0  0  0
   24.0380   14.7780    6.7580 O   0  0  0  0  0  0  0  0  0  0  0  0
   22.5410   13.6150    8.4110 O   0  0  0  0  0  0  0  0  0  0  0  0
   24.0130   15.5810    9.1970 C   0  0  0  0  0  0  0  0  0  0  0  0
   25.2190   16.1490    9.0420 C   0  0  0  0  0  0  0  0  0  0  0  0
   25.8370   16.8300   10.5480 S   0  0  0  0  0  0  0  0  0  0  0  0
   24.3880   16.2900   11.3560 C   0  0  0  0  0  0  0  0  0  0  0  0
   23.8160   16.3020   12.5990 C   0  0  0  0  0  0  0  0  0  0  0  0
   24.2840   16.8450   13.8570 C   0  0  0  0  0  0  0  0  0  0  0  0
   24.2440   16.1940   14.8950 O   0  0  0  0  0  0  0  0  0  0  0  0
   24.7630   18.1300   13.8100 N   0  0  0  0  0  0  0  0  0  0  0  0
   25.1410   18.8520   15.0150 C   0  0  1  0  0  0  0  0  0  0  0  0
   26.1650   18.0850   15.8460 C   0  0  0  0  0  0  0  0  0  0  0  0
   26.5430   18.9060   17.0690 C   0  0  0  0  0  0  0  0  0  0  0  0
   27.0480   20.2750   16.6760 C   0  0  0  0  0  0  0  0  0  0  0  0
   27.9220   20.8610   17.3070 O   0  0  0  0  0  0  0  0  0  0  0  0
   26.4580   20.8570   15.5830 N   0  0  0  0  0  0  0  0  0  0  0  0
   25.7390   20.2040   14.6130 C   0  0  0  0  0  0  0  0  0  0  0  0
   25.5820   20.6950   13.4960 O   0  0  0  0  0  0  0  0  0  0  0  0
   22.5890   15.6230   12.3670 C   0  0  0  0  0  0  0  0  0  0  0  0
   22.4230   15.2310   11.0960 N   0  0  0  0  0  0  0  0  0  0  0  0
   23.5440   15.6480   10.4820 N   0  0  0  0  0  0  0  0  0  0  0  0
   21.6660   16.2130    6.1610 C   0  0  0  0  0  0  0  0  0  0  0  0
   20.5490   16.9100    6.0940 N   0  0  0  0  0  0  0  0  0  0  0  0
   18.9504   19.6134    8.5356 H   0  0  0  0  0  0  0  0  0  0  0  0
   19.8320   19.3891    6.9867 H   0  0  0  0  0  0  0  0  0  0  0  0
   18.0430   19.5504    6.9867 H   0  0  0  0  0  0  0  0  0  0  0  0
   18.4712   17.4126    8.7097 H   0  0  0  0  0  0  0  0  0  0  0  0
   18.0186   17.3059    6.9532 H   0  0  0  0  0  0  0  0  0  0  0  0
   20.7374   16.0592    9.3113 H   0  0  0  0  0  0  0  0  0  0  0  0
   25.7605   16.1858    8.0852 H   0  0  0  0  0  0  0  0  0  0  0  0
   24.8575   18.5962   12.8964 H   0  0  0  0  0  0  0  0  0  0  0  0
   24.2383   18.9833   15.6298 H   0  0  0  0  0  0  0  0  0  0  0  0
   25.7321   17.1262   16.1675 H   0  0  0  0  0  0  0  0  0  0  0  0
   27.0628   17.8969   15.2390 H   0  0  0  0  0  0  0  0  0  0  0  0
   25.6573   19.0214   17.7110 H   0  0  0  0  0  0  0  0  0  0  0  0
   27.3464   18.3802   17.6057 H   0  0  0  0  0  0  0  0  0  0  0  0
   26.5641   21.8764   15.4808 H   0  0  0  0  0  0  0  0  0  0  0  0
   21.8457   15.4368   13.1562 H   0  0  0  0  0  0  0  0  0  0  0  0
   22.3119   15.9778    5.3022 H   0  0  0  0  0  0  0  0  0  0  0  0
  1  2  1  0
  2  3  1  0
  3  4  2  0
  4  5  1  0
  5  6  1  0
  6  7  2  0
  6  8  2  0
  6  9  1  0
  9 10  2  0
 10 11  1  0
 11 12  1  0
 12 13  2  0
 13 14  1  0
 14 15  2  0
 14 16  1  0
 16 17  1  0
 17 18  1  0
 18 19  1  0
 19 20  1  0
 20 21  2  0
 20 22  1  0
 22 23  1  0
 23 24  2  0
 13 25  1  0
 25 26  2  0
 26 27  1  0
  5 28  1  0
 28 29  2  0
 29  3  1  0
 27  9  1  0
 27 12  1  0
 23 17  1  0
  1 30  1  0
  1 31  1  0
  1 32  1  0
  2 33  1  0
  2 34  1  0
  4 35  1  0
 10 36  1  0
 16 37  1  0
 17 38  1  1
 18 39  1  0
 18 40  1  0
 19 41  1  0
 19 42  1  0
 22 43  1  0
 25 44  1  0
 28 45  1  0
M  END
>  <meeko>  (733) 
{"is_sidechain": [true], "free_energy": -10.56, "intermolecular_energy": 0.0, "internal_energy": -10.56, "cluster_size": 14, "cluster_id": 1, "rank_in_cluster": 1}

>  <_RMSD_MCS_to_ref>  (733) 
0.6938549320042816

$$$$
ligand
     RDKit          3D

 49 52  0  0  0  0  0  0  0  0999 V2000
   18.9090   19.1540    7.5370 C   0  0  0  0  0  0  0  0  0  0  0  0
   18.7730   17.6460    7.6780 C   0  0  0  0  0  0  0  0  0  0  0  0
   20.0910   16.9570    7.6290 C   0  0  0  0  0  0  0  0  0  0  0  0
   20.9580   16.6650    8.6640 C   0  0  0  0  0  0  0  0  0  0  0  0
   21.9980   16.0210    8.0580 N   0  0  0  0  0  0  0  0  0  0  0  0
   23.4710   15.6390    8.7720 S   0  0  0  0  0  6  0  0  0  0  0  0
   23.8630   14.3550    8.2280 O   0  0  0  0  0  0  0  0  0  0  0  0
   24.2910   16.8270    8.6260 O   0  0  0  0  0  0  0  0  0  0  0  0
   23.0680   15.4200   10.4660 C   0  0  0  0  0  0  0  0  0  0  0  0
   23.9100   15.9290   11.4660 C   0  0  0  0  0  0  0  0  0  0  0  0
   23.6010   15.7430   12.8380 C   0  0  0  0  0  0  0  0  0  0  0  0
   24.5590   16.2870   13.8390 C   0  0  0  0  0  0  0  0  0  0  0  0
   25.1190   15.5290   14.6220 O   0  0  0  0  0  0  0  0  0  0  0  0
   24.7870   17.6440   13.8090 N   0  0  0  0  0  0  0  0  0  0  0  0
   25.8210   18.2500   14.6390 C   0  0  2  0  0  0  0  0  0  0  0  0
   25.6310   17.9410   16.1210 C   0  0  0  0  0  0  0  0  0  0  0  0
   26.7130   18.6430   16.9280 C   0  0  0  0  0  0  0  0  0  0  0  0
   26.7210   20.1290   16.6580 C   0  0  0  0  0  0  0  0  0  0  0  0
   27.0010   20.9550   17.5210 O   0  0  0  0  0  0  0  0  0  0  0  0
   26.4240   20.5240   15.3780 N   0  0  0  0  0  0  0  0  0  0  0  0
   25.7710   19.7670   14.4380 C   0  0  0  0  0  0  0  0  0  0  0  0
   25.1890   20.2890   13.4860 O   0  0  0  0  0  0  0  0  0  0  0  0
   22.4490   15.0400   13.2240 C   0  0  0  0  0  0  0  0  0  0  0  0
   21.6410   14.5710   12.2120 C   0  0  0  0  0  0  0  0  0  0  0  0
   20.4470   13.8640   12.3040 N   0  0  0  0  0  0  0  0  0  0  0  0
   19.9670   13.6110   11.0110 C   0  0  0  0  0  0  0  0  0  0  0  0
   18.9420   13.0280   10.7180 O   0  0  0  0  0  0  0  0  0  0  0  0
   20.9040   14.1640   10.1260 N   0  0  0  0  0  0  0  0  0  0  0  0
   21.9300   14.7560   10.8600 C   0  0  0  0  0  0  0  0  0  0  0  0
   21.7750   15.9750    6.7190 C   0  0  0  0  0  0  0  0  0  0  0  0
   20.6170   16.5280    6.4260 N   0  0  0  0  0  0  0  0  0  0  0  0
   18.9504   19.6134    8.5356 H   0  0  0  0  0  0  0  0  0  0  0  0
   19.8320   19.3891    6.9867 H   0  0  0  0  0  0  0  0  0  0  0  0
   18.0430   19.5504    6.9867 H   0  0  0  0  0  0  0  0  0  0  0  0
   18.2915   17.4220    8.6413 H   0  0  0  0  0  0  0  0  0  0  0  0
   18.1687   17.2805    6.8346 H   0  0  0  0  0  0  0  0  0  0  0  0
   20.8379   16.8981    9.7323 H   0  0  0  0  0  0  0  0  0  0  0  0
   24.8200   16.4785   11.1831 H   0  0  0  0  0  0  0  0  0  0  0  0
   24.2185   18.2403   13.1908 H   0  0  0  0  0  0  0  0  0  0  0  0
   26.7923   17.8323   14.3355 H   0  0  0  0  0  0  0  0  0  0  0  0
   24.6422   18.2968   16.4459 H   0  0  0  0  0  0  0  0  0  0  0  0
   25.7006   16.8549   16.2810 H   0  0  0  0  0  0  0  0  0  0  0  0
   26.5276   18.4743   17.9991 H   0  0  0  0  0  0  0  0  0  0  0  0
   27.6892   18.2309   16.6327 H   0  0  0  0  0  0  0  0  0  0  0  0
   26.7167   21.4711   15.0984 H   0  0  0  0  0  0  0  0  0  0  0  0
   22.2035   14.8719   14.2830 H   0  0  0  0  0  0  0  0  0  0  0  0
   19.9895   13.5733   13.1798 H   0  0  0  0  0  0  0  0  0  0  0  0
   20.8435   14.1369    9.0981 H   0  0  0  0  0  0  0  0  0  0  0  0
   22.4652   15.5371    5.9828 H   0  0  0  0  0  0  0  0  0  0  0  0
  1  2  1  0
  2  3  1  0
  3  4  2  0
  4  5  1  0
  5  6  1  0
  6  7  2  0
  6  8  2  0
  6  9  1  0
  9 10  2  0
 10 11  1  0
 11 12  1  0
 12 13  2  0
 12 14  1  0
 14 15  1  0
 15 16  1  0
 16 17  1  0
 17 18  1  0
 18 19  2  0
 18 20  1  0
 20 21  1  0
 21 22  2  0
 11 23  2  0
 23 24  1  0
 24 25  1  0
 25 26  1  0
 26 27  2  0
 26 28  1  0
 28 29  1  0
  5 30  1  0
 30 31  2  0
 31  3  1  0
 29  9  1  0
 21 15  1  0
 29 24  2  0
  1 32  1  0
  1 33  1  0
  1 34  1  0
  2 35  1  0
  2 36  1  0
  4 37  1  0
 10 38  1  0
 14 39  1  0
 15 40  1  6
 16 41  1  0
 16 42  1  0
 17 43  1  0
 17 44  1  0
 20 45  1  0
 23 46  1  0
 25 47  1  0
 28 48  1  0
 30 49  1  0
M  END
>  <meeko>  (734) 
{"is_sidechain": [true], "free_energy": -10.56, "intermolecular_energy": 0.0, "internal_energy": -10.56, "cluster_size": 20, "cluster_id": 1, "rank_in_cluster": 1}

>  <_RMSD_MCS_to_ref>  (734) 
0.5761848661671013

$$$$
ligand
     RDKit          3D

 44 47  0  0  0  0  0  0  0  0999 V2000
   18.9090   19.1540    7.5370 C   0  0  0  0  0  0  0  0  0  0  0  0
   18.7730   17.6460    7.6780 C   0  0  0  0  0  0  0  0  0  0  0  0
   20.0890   16.9550    7.6090 C   0  0  0  0  0  0  0  0  0  0  0  0
   20.8660   16.4620    8.6400 C   0  0  0  0  0  0  0  0  0  0  0  0
   21.9550   15.9310    8.0120 N   0  0  0  0  0  0  0  0  0  0  0  0
   23.3320   15.3470    8.7610 S   0  0  0  0  0  6  0  0  0  0  0  0
   24.4480   16.1320    8.2710 O   0  0  0  0  0  0  0  0  0  0  0  0
   23.2920   13.9020    8.6510 O   0  0  0  0  0  0  0  0  0  0  0  0
   23.2470   15.6850   10.4830 C   0  0  0  0  0  0  0  0  0  0  0  0
   24.0610   16.4700   11.1720 N   0  0  0  0  0  0  0  0  0  0  0  0
   23.5930   16.4160   12.4700 C   0  0  0  0  0  0  0  0  0  0  0  0
   24.0230   17.0310   13.6620 C   0  0  0  0  0  0  0  0  0  0  0  0
   25.1420   17.8670   13.6900 N   0  0  0  0  0  0  0  0  0  0  0  0
   25.3150   18.6700   14.9030 C   0  0  1  0  0  0  0  0  0  0  0  0
   26.3360   18.0020   15.8220 C   0  0  0  0  0  0  0  0  0  0  0  0
   26.5710   18.8730   17.0450 C   0  0  0  0  0  0  0  0  0  0  0  0
   27.0270   20.2560   16.6530 C   0  0  0  0  0  0  0  0  0  0  0  0
   27.7390   20.9440   17.3780 O   0  0  0  0  0  0  0  0  0  0  0  0
   26.5590   20.7410   15.4580 N   0  0  0  0  0  0  0  0  0  0  0  0
   25.8270   20.0650   14.5120 C   0  0  0  0  0  0  0  0  0  0  0  0
   25.5790   20.5840   13.4230 O   0  0  0  0  0  0  0  0  0  0  0  0
   23.3140   16.7730   14.7930 N   0  0  0  0  0  0  0  0  0  0  0  0
   22.2510   15.9400   14.7220 C   0  0  0  0  0  0  0  0  0  0  0  0
   21.7590   15.3040   13.6400 N   0  0  0  0  0  0  0  0  0  0  0  0
   22.4840   15.5940   12.5530 C   0  0  0  0  0  0  0  0  0  0  0  0
   22.2800   15.1350   11.2870 N   0  0  0  0  0  0  0  0  0  0  0  0
   21.8530   16.1540    6.6770 C   0  0  0  0  0  0  0  0  0  0  0  0
   20.7120   16.7480    6.3950 N   0  0  0  0  0  0  0  0  0  0  0  0
   18.9504   19.6134    8.5356 H   0  0  0  0  0  0  0  0  0  0  0  0
   19.8320   19.3891    6.9867 H   0  0  0  0  0  0  0  0  0  0  0  0
   18.0430   19.5504    6.9867 H   0  0  0  0  0  0  0  0  0  0  0  0
   18.3052   17.4215    8.6479 H   0  0  0  0  0  0  0  0  0  0  0  0
   18.1561   17.2826    6.8429 H   0  0  0  0  0  0  0  0  0  0  0  0
   20.6551   16.4910    9.7192 H   0  0  0  0  0  0  0  0  0  0  0  0
   25.8061   17.9159   12.9042 H   0  0  0  0  0  0  0  0  0  0  0  0
   24.3517   18.7546   15.4273 H   0  0  0  0  0  0  0  0  0  0  0  0
   25.9547   17.0204   16.1399 H   0  0  0  0  0  0  0  0  0  0  0  0
   27.2841   17.8719   15.2797 H   0  0  0  0  0  0  0  0  0  0  0  0
   25.6328   18.9528   17.6138 H   0  0  0  0  0  0  0  0  0  0  0  0
   27.3583   18.4080   17.6565 H   0  0  0  0  0  0  0  0  0  0  0  0
   26.7818   21.7240   15.2458 H   0  0  0  0  0  0  0  0  0  0  0  0
   21.7200   15.7582   15.6680 H   0  0  0  0  0  0  0  0  0  0  0  0
   21.5343   14.4910   10.9869 H   0  0  0  0  0  0  0  0  0  0  0  0
   22.6163   15.8774    5.9348 H   0  0  0  0  0  0  0  0  0  0  0  0
  1  2  1  0
  2  3  1  0
  3  4  2  0
  4  5  1  0
  5  6  1  0
  6  7  2  0
  6  8  2  0
  6  9  1  0
  9 10  2  0
 10 11  1  0
 11 12  2  0
 12 13  1  0
 13 14  1  0
 14 15  1  0
 15 16  1  0
 16 17  1  0
 17 18  2  0
 17 19  1  0
 19 20  1  0
 20 21  2  0
 12 22  1  0
 22 23  2  0
 23 24  1  0
 24 25  2  0
 25 26  1  0
  5 27  1  0
 27 28  2  0
 28  3  1  0
 26  9  1  0
 25 11  1  0
 20 14  1  0
  1 29  1  0
  1 30  1  0
  1 31  1  0
  2 32  1  0
  2 33  1  0
  4 34  1  0
 13 35  1  0
 14 36  1  1
 15 37  1  0
 15 38  1  0
 16 39  1  0
 16 40  1  0
 19 41  1  0
 23 42  1  0
 26 43  1  0
 27 44  1  0
M  END
>  <meeko>  (735) 
{"is_sidechain": [true], "free_energy": -10.56, "intermolecular_energy": 0.0, "internal_energy": -10.56, "cluster_size": 19, "cluster_id": 1, "rank_in_cluster": 1}

>  <_RMSD_MCS_to_ref>  (735) 
0.6534590015193512

$$$$
ligand
     RDKit          3D

 55 59  0  0  0  0  0  0  0  0999 V2000
   18.9090   19.1540    7.5370 C   0  0  0  0  0  0  0  0  0  0  0  0
   18.7730   17.6460    7.6780 C   0  0  0  0  0  0  0  0  0  0  0  0
   19.7870   16.9130    6.8740 C   0  0  0  0  0  0  0  0  0  0  0  0
   20.4010   15.7050    7.1450 C   0  0  0  0  0  0  0  0  0  0  0  0
   21.2260   15.5030    6.0750 N   0  0  0  0  0  0  0  0  0  0  0  0
   22.3150   14.2390    5.8850 S   0  0  0  0  0  6  0  0  0  0  0  0
   21.6240   13.2470    5.0780 O   0  0  0  0  0  0  0  0  0  0  0  0
   23.5600   14.8500    5.4580 O   0  0  0  0  0  0  0  0  0  0  0  0
   22.5560   13.5610    7.5030 C   0  0  0  0  0  0  0  0  0  0  0  0
   22.7860   14.4180    8.5700 C   0  0  0  0  0  0  0  0  0  0  0  0
   22.9750   13.8550    9.8350 C   0  0  0  0  0  0  0  0  0  0  0  0
   23.2260   14.7010   11.0110 C   0  0  0  0  0  0  0  0  0  0  0  0
   22.3090   14.7130   12.0940 C   0  0  0  0  0  0  0  0  0  0  0  0
   22.5250   15.5050   13.2270 C   0  0  0  0  0  0  0  0  0  0  0  0
   23.6660   16.2810   13.2490 C   0  0  0  0  0  0  0  0  0  0  0  0
   24.5850   16.2950   12.2040 C   0  0  0  0  0  0  0  0  0  0  0  0
   24.3790   15.5090   11.0810 C   0  0  0  0  0  0  0  0  0  0  0  0
   25.7140   17.2170   12.5290 C   0  0  0  0  0  0  0  0  0  0  0  0
   25.3030   17.7840   13.8080 N   0  0  0  0  0  0  0  0  0  0  0  0
   26.1910   18.5560   14.6680 C   0  0  2  0  0  0  0  0  0  0  0  0
   26.0620   18.1670   16.1380 C   0  0  0  0  0  0  0  0  0  0  0  0
   27.0770   18.9490   16.9580 C   0  0  0  0  0  0  0  0  0  0  0  0
   26.9170   20.4370   16.7490 C   0  0  0  0  0  0  0  0  0  0  0  0
   27.0830   21.2500   17.6540 O   0  0  0  0  0  0  0  0  0  0  0  0
   26.5880   20.8460   15.4820 N   0  0  0  0  0  0  0  0  0  0  0  0
   25.9620   20.0710   14.5310 C   0  0  0  0  0  0  0  0  0  0  0  0
   25.2690   20.5950   13.6620 O   0  0  0  0  0  0  0  0  0  0  0  0
   24.1450   17.1920   14.2930 C   0  0  0  0  0  0  0  0  0  0  0  0
   23.6060   17.3710   15.3680 O   0  0  0  0  0  0  0  0  0  0  0  0
   22.9180   12.4580    9.9470 C   0  0  0  0  0  0  0  0  0  0  0  0
   22.6790   11.6910    8.8150 C   0  0  0  0  0  0  0  0  0  0  0  0
   22.4990   12.2100    7.5860 N   0  0  0  0  0  0  0  0  0  0  0  0
   21.1330   16.5650    5.2330 C   0  0  0  0  0  0  0  0  0  0  0  0
   20.2490   17.4340    5.6820 N   0  0  0  0  0  0  0  0  0  0  0  0
   18.9504   19.6134    8.5356 H   0  0  0  0  0  0  0  0  0  0  0  0
   19.8320   19.3891    6.9867 H   0  0  0  0  0  0  0  0  0  0  0  0
   18.0430   19.5504    6.9867 H   0  0  0  0  0  0  0  0  0  0  0  0
   18.8983   17.3765    8.7371 H   0  0  0  0  0  0  0  0  0  0  0  0
   17.7774   17.3605    7.3074 H   0  0  0  0  0  0  0  0  0  0  0  0
   20.2582   15.0553    8.0211 H   0  0  0  0  0  0  0  0  0  0  0  0
   22.8186   15.5078    8.4244 H   0  0  0  0  0  0  0  0  0  0  0  0
   21.4074   14.0850   12.0415 H   0  0  0  0  0  0  0  0  0  0  0  0
   21.8140   15.5090   14.0664 H   0  0  0  0  0  0  0  0  0  0  0  0
   25.1057   15.5157   10.2553 H   0  0  0  0  0  0  0  0  0  0  0  0
   26.6614   16.6664   12.6248 H   0  0  0  0  0  0  0  0  0  0  0  0
   25.8975   17.9748   11.7530 H   0  0  0  0  0  0  0  0  0  0  0  0
   27.2079   18.3144   14.3251 H   0  0  0  0  0  0  0  0  0  0  0  0
   25.0467   18.3999   16.4916 H   0  0  0  0  0  0  0  0  0  0  0  0
   26.2502   17.0891   16.2510 H   0  0  0  0  0  0  0  0  0  0  0  0
   26.9316   18.7185   18.0237 H   0  0  0  0  0  0  0  0  0  0  0  0
   28.0867   18.6578   16.6329 H   0  0  0  0  0  0  0  0  0  0  0  0
   26.8290   21.8125   15.2200 H   0  0  0  0  0  0  0  0  0  0  0  0
   23.0616   11.9740   10.9243 H   0  0  0  0  0  0  0  0  0  0  0  0
   22.6342   10.5978    8.9286 H   0  0  0  0  0  0  0  0  0  0  0  0
   21.7139   16.6833    4.3064 H   0  0  0  0  0  0  0  0  0  0  0  0
  1  2  1  0
  2  3  1  0
  3  4  2  0
  4  5  1  0
  5  6  1  0
  6  7  2  0
  6  8  2  0
  6  9  1  0
  9 10  2  0
 10 11  1  0
 11 12  1  0
 12 13  2  0
 13 14  1  0
 14 15  2  0
 15 16  1  0
 16 17  2  0
 16 18  1  0
 18 19  1  0
 19 20  1  0
 20 21  1  0
 21 22  1  0
 22 23  1  0
 23 24  2  0
 23 25  1  0
 25 26  1  0
 26 27  2  0
 19 28  1  0
 28 29  2  0
 11 30  2  0
 30 31  1  0
 31 32  2  0
  5 33  1  0
 33 34  2  0
 34  3  1  0
 32  9  1  0
 17 12  1  0
 26 20  1  0
 28 15  1  0
  1 35  1  0
  1 36  1  0
  1 37  1  0
  2 38  1  0
  2 39  1  0
  4 40  1  0
 10 41  1  0
 13 42  1  0
 14 43  1  0
 17 44  1  0
 18 45  1  0
 18 46  1  0
 20 47  1  6
 21 48  1  0
 21 49  1  0
 22 50  1  0
 22 51  1  0
 25 52  1  0
 30 53  1  0
 31 54  1  0
 33 55  1  0
M  END
>  <meeko>  (736) 
{"is_sidechain": [true], "free_energy": -10.56, "intermolecular_energy": 0.0, "internal_energy": -10.56, "cluster_size": 18, "cluster_id": 1, "rank_in_cluster": 1}

>  <_RMSD_MCS_to_ref>  (736) 
1.3689850863565558

$$$$
ligand
     RDKit          3D

 62 66  0  0  0  0  0  0  0  0999 V2000
   18.7970   18.8170    7.7190 C   0  0  0  0  0  0  0  0  0  0  0  0
   18.5280   17.3290    7.8810 C   0  0  0  0  0  0  0  0  0  0  0  0
   19.7380   16.5070    7.6050 C   0  0  0  0  0  0  0  0  0  0  0  0
   20.3780   15.6020    8.4280 C   0  0  0  0  0  0  0  0  0  0  0  0
   21.4310   15.1570    7.6810 N   0  0  0  0  0  0  0  0  0  0  0  0
   22.4490   13.8780    8.0700 S   0  0  0  0  0  6  0  0  0  0  0  0
   23.2800   13.6550    6.9030 O   0  0  0  0  0  0  0  0  0  0  0  0
   21.5860   12.8500    8.6210 O   0  0  0  0  0  0  0  0  0  0  0  0
   23.4630   14.5310    9.3640 C   0  0  0  0  0  0  0  0  0  0  0  0
   24.2220   15.6800    9.1450 C   0  0  0  0  0  0  0  0  0  0  0  0
   25.0330   16.1680   10.1700 C   0  0  0  0  0  0  0  0  0  0  0  0
   25.0780   15.5340   11.4270 C   0  0  0  0  0  0  0  0  0  0  0  0
   24.2590   14.4210   11.6410 C   0  0  0  0  0  0  0  0  0  0  0  0
   23.4770   13.8990   10.6080 C   0  0  0  0  0  0  0  0  0  0  0  0
   24.2020   13.7390   12.8220 O   0  0  0  0  0  0  0  0  0  0  0  0
   23.8090   14.4980   13.9930 C   0  0  0  0  0  0  0  0  0  0  0  0
   23.4930   13.4120   15.0520 C   0  0  0  0  0  0  0  0  0  0  0  0
   22.2230   12.6520   14.6980 C   0  0  0  0  0  0  0  0  0  0  0  0
   21.1230   13.5520   14.6060 O   0  0  0  0  0  0  0  0  0  0  0  0
   21.3010   14.5020   13.5570 C   0  0  0  0  0  0  0  0  0  0  0  0
   22.5370   15.3580   13.8030 C   0  0  0  0  0  0  0  0  0  0  0  0
   25.0020   15.3330   14.5380 C   0  0  0  0  0  0  0  0  0  0  0  0
   25.3940   16.4820   13.6990 N   0  0  0  0  0  0  0  0  0  0  0  0
   26.2020   17.4980   14.4170 C   0  0  2  0  0  0  0  0  0  0  0  0
   26.0290   17.4970   15.9410 C   0  0  0  0  0  0  0  0  0  0  0  0
   26.9540   18.5370   16.5580 C   0  0  0  0  0  0  0  0  0  0  0  0
   26.6860   19.9100   15.9930 C   0  0  0  0  0  0  0  0  0  0  0  0
   26.9160   20.9350   16.6270 O   0  0  0  0  0  0  0  0  0  0  0  0
   26.2220   19.9610   14.7030 N   0  0  0  0  0  0  0  0  0  0  0  0
   25.9320   18.9140   13.8580 C   0  0  0  0  0  0  0  0  0  0  0  0
   25.5250   19.1490   12.7210 O   0  0  0  0  0  0  0  0  0  0  0  0
   26.0500   16.0260   12.4690 C   0  0  0  0  0  0  0  0  0  0  0  0
   21.3870   15.7410    6.4560 C   0  0  0  0  0  0  0  0  0  0  0  0
   20.3720   16.5780    6.3800 N   0  0  0  0  0  0  0  0  0  0  0  0
   18.8815   19.2845    8.7111 H   0  0  0  0  0  0  0  0  0  0  0  0
   19.7359   18.9616    7.1643 H   0  0  0  0  0  0  0  0  0  0  0  0
   17.9682   19.2812    7.1643 H   0  0  0  0  0  0  0  0  0  0  0  0
   18.1979   17.1387    8.9129 H   0  0  0  0  0  0  0  0  0  0  0  0
   17.7526   17.0443    7.1545 H   0  0  0  0  0  0  0  0  0  0  0  0
   20.1027   15.3069    9.4513 H   0  0  0  0  0  0  0  0  0  0  0  0
   24.1818   16.1962    8.1745 H   0  0  0  0  0  0  0  0  0  0  0  0
   25.6477   17.0630    9.9935 H   0  0  0  0  0  0  0  0  0  0  0  0
   22.8748   12.9936   10.7744 H   0  0  0  0  0  0  0  0  0  0  0  0
   24.3331   12.7037   15.1014 H   0  0  0  0  0  0  0  0  0  0  0  0
   23.3444   13.9055   16.0238 H   0  0  0  0  0  0  0  0  0  0  0  0
   22.3600   12.1450   13.7315 H   0  0  0  0  0  0  0  0  0  0  0  0
   22.0165   11.9106   15.4839 H   0  0  0  0  0  0  0  0  0  0  0  0
   21.4173   13.9673   12.6027 H   0  0  0  0  0  0  0  0  0  0  0  0
   20.4193   15.1589   13.5243 H   0  0  0  0  0  0  0  0  0  0  0  0
   22.6846   16.0248   12.9407 H   0  0  0  0  0  0  0  0  0  0  0  0
   22.3741   15.9325   14.7268 H   0  0  0  0  0  0  0  0  0  0  0  0
   24.7254   15.7148   15.5319 H   0  0  0  0  0  0  0  0  0  0  0  0
   25.8685   14.6556   14.5559 H   0  0  0  0  0  0  0  0  0  0  0  0
   27.2469   17.2088   14.2311 H   0  0  0  0  0  0  0  0  0  0  0  0
   24.9858   17.7396   16.1917 H   0  0  0  0  0  0  0  0  0  0  0  0
   26.2799   16.5021   16.3376 H   0  0  0  0  0  0  0  0  0  0  0  0
   26.7936   18.5593   17.6460 H   0  0  0  0  0  0  0  0  0  0  0  0
   27.9929   18.2612   16.3244 H   0  0  0  0  0  0  0  0  0  0  0  0
   26.0713   20.9041   14.3172 H   0  0  0  0  0  0  0  0  0  0  0  0
   26.6219   16.8649   12.0457 H   0  0  0  0  0  0  0  0  0  0  0  0
   26.6984   15.1792   12.7380 H   0  0  0  0  0  0  0  0  0  0  0  0
   22.0989   15.5432    5.6411 H   0  0  0  0  0  0  0  0  0  0  0  0
  1  2  1  0
  2  3  1  0
  3  4  2  0
  4  5  1  0
  5  6  1  0
  6  7  2  0
  6  8  2  0
  6  9  1  0
  9 10  2  0
 10 11  1  0
 11 12  2  0
 12 13  1  0
 13 14  2  0
 13 15  1  0
 15 16  1  0
 16 17  1  0
 17 18  1  0
 18 19  1  0
 19 20  1  0
 20 21  1  0
 16 22  1  0
 22 23  1  0
 23 24  1  0
 24 25  1  0
 25 26  1  0
 26 27  1  0
 27 28  2  0
 27 29  1  0
 29 30  1  0
 30 31  2  0
 23 32  1  0
  5 33  1  0
 33 34  2  0
 34  3  1  0
 14  9  1  0
 21 16  1  0
 30 24  1  0
 32 12  1  0
  1 35  1  0
  1 36  1  0
  1 37  1  0
  2 38  1  0
  2 39  1  0
  4 40  1  0
 10 41  1  0
 11 42  1  0
 14 43  1  0
 17 44  1  0
 17 45  1  0
 18 46  1  0
 18 47  1  0
 20 48  1  0
 20 49  1  0
 21 50  1  0
 21 51  1  0
 22 52  1  0
 22 53  1  0
 24 54  1  1
 25 55  1  0
 25 56  1  0
 26 57  1  0
 26 58  1  0
 29 59  1  0
 32 60  1  0
 32 61  1  0
 33 62  1  0
M  END
>  <meeko>  (737) 
{"is_sidechain": [true], "free_energy": -10.55, "intermolecular_energy": 0.18, "internal_energy": -10.73, "cluster_size": 7, "cluster_id": 1, "rank_in_cluster": 1}

>  <_RMSD_MCS_to_ref>  (737) 
1.0284625526591729

$$$$
ligand
     RDKit          3D

 49 52  0  0  0  0  0  0  0  0999 V2000
   18.7970   18.8170    7.7190 C   0  0  0  0  0  0  0  0  0  0  0  0
   18.5280   17.3290    7.8810 C   0  0  0  0  0  0  0  0  0  0  0  0
   19.7840   16.5360    7.9680 C   0  0  0  0  0  0  0  0  0  0  0  0
   20.4890   16.1420    9.0900 C   0  0  0  0  0  0  0  0  0  0  0  0
   21.5470   15.4390    8.5880 N   0  0  0  0  0  0  0  0  0  0  0  0
   22.8480   14.8730    9.4860 S   0  0  0  0  0  6  0  0  0  0  0  0
   23.0050   13.4560    9.2280 O   0  0  0  0  0  0  0  0  0  0  0  0
   23.9150   15.8070    9.1770 O   0  0  0  0  0  0  0  0  0  0  0  0
   22.4390   15.0830   11.1950 C   0  0  0  0  0  0  0  0  0  0  0  0
   23.2120   15.9900   11.9310 C   0  0  0  0  0  0  0  0  0  0  0  0
   22.9790   16.0940   13.2910 C   0  0  0  0  0  0  0  0  0  0  0  0
   23.7670   17.0570   14.1210 C   0  0  0  0  0  0  0  0  0  0  0  0
   23.2370   17.7260   14.9980 O   0  0  0  0  0  0  0  0  0  0  0  0
   25.1100   17.1090   13.8250 N   0  0  0  0  0  0  0  0  0  0  0  0
   26.0530   17.8860   14.6080 C   0  0  2  0  0  0  0  0  0  0  0  0
   25.9030   17.6210   16.1020 C   0  0  0  0  0  0  0  0  0  0  0  0
   26.9020   18.4700   16.8730 C   0  0  0  0  0  0  0  0  0  0  0  0
   26.7450   19.9360   16.5450 C   0  0  0  0  0  0  0  0  0  0  0  0
   26.9570   20.8220   17.3680 O   0  0  0  0  0  0  0  0  0  0  0  0
   26.3810   20.2420   15.2580 N   0  0  0  0  0  0  0  0  0  0  0  0
   25.8370   19.3800   14.3370 C   0  0  0  0  0  0  0  0  0  0  0  0
   25.2380   19.8070   13.3520 O   0  0  0  0  0  0  0  0  0  0  0  0
   22.0560   15.3540   13.9500 N   0  0  0  0  0  0  0  0  0  0  0  0
   21.3320   14.4780   13.2250 C   0  0  0  0  0  0  0  0  0  0  0  0
   20.4310   13.7430   14.0030 N   0  0  0  0  0  0  0  0  0  0  0  0
   19.7280   12.8430   13.4150 C   0  0  0  0  0  0  0  0  0  0  0  0
   19.8010   12.5880   12.0810 N   0  0  0  0  0  0  0  0  0  0  0  0
   20.5540   13.3500   11.2290 C   0  0  0  0  0  0  0  0  0  0  0  0
   20.4100   13.2780   10.0190 O   0  0  0  0  0  0  0  0  0  0  0  0
   21.4720   14.3160   11.8490 C   0  0  0  0  0  0  0  0  0  0  0  0
   21.5070   15.4790    7.2310 C   0  0  0  0  0  0  0  0  0  0  0  0
   20.4260   16.1140    6.8220 N   0  0  0  0  0  0  0  0  0  0  0  0
   18.8815   19.2845    8.7111 H   0  0  0  0  0  0  0  0  0  0  0  0
   19.7359   18.9616    7.1643 H   0  0  0  0  0  0  0  0  0  0  0  0
   17.9682   19.2812    7.1643 H   0  0  0  0  0  0  0  0  0  0  0  0
   17.9460   17.1725    8.8012 H   0  0  0  0  0  0  0  0  0  0  0  0
   17.9745   16.9878    6.9938 H   0  0  0  0  0  0  0  0  0  0  0  0
   20.2524   16.3474   10.1444 H   0  0  0  0  0  0  0  0  0  0  0  0
   23.9831   16.6028   11.4413 H   0  0  0  0  0  0  0  0  0  0  0  0
   25.4595   16.5756   13.0161 H   0  0  0  0  0  0  0  0  0  0  0  0
   27.0670   17.5838   14.3073 H   0  0  0  0  0  0  0  0  0  0  0  0
   24.8817   17.8789   16.4189 H   0  0  0  0  0  0  0  0  0  0  0  0
   26.0937   16.5569   16.3055 H   0  0  0  0  0  0  0  0  0  0  0  0
   26.7390   18.3246   17.9511 H   0  0  0  0  0  0  0  0  0  0  0  0
   27.9171   18.1571   16.5871 H   0  0  0  0  0  0  0  0  0  0  0  0
   26.5304   21.2141   14.9521 H   0  0  0  0  0  0  0  0  0  0  0  0
   19.0304   12.2473   14.0221 H   0  0  0  0  0  0  0  0  0  0  0  0
   19.2704   11.7926   11.6980 H   0  0  0  0  0  0  0  0  0  0  0  0
   22.2684   15.0435    6.5672 H   0  0  0  0  0  0  0  0  0  0  0  0
  1  2  1  0
  2  3  1  0
  3  4  2  0
  4  5  1  0
  5  6  1  0
  6  7  2  0
  6  8  2  0
  6  9  1  0
  9 10  2  0
 10 11  1  0
 11 12  1  0
 12 13  2  0
 12 14  1  0
 14 15  1  0
 15 16  1  0
 16 17  1  0
 17 18  1  0
 18 19  2  0
 18 20  1  0
 20 21  1  0
 21 22  2  0
 11 23  2  0
 23 24  1  0
 24 25  1  0
 25 26  2  0
 26 27  1  0
 27 28  1  0
 28 29  2  0
 28 30  1  0
  5 31  1  0
 31 32  2  0
 32  3  1  0
 30  9  1  0
 21 15  1  0
 30 24  2  0
  1 33  1  0
  1 34  1  0
  1 35  1  0
  2 36  1  0
  2 37  1  0
  4 38  1  0
 10 39  1  0
 14 40  1  0
 15 41  1  6
 16 42  1  0
 16 43  1  0
 17 44  1  0
 17 45  1  0
 20 46  1  0
 26 47  1  0
 27 48  1  0
 31 49  1  0
M  END
>  <meeko>  (738) 
{"is_sidechain": [true], "free_energy": -10.55, "intermolecular_energy": 0.0, "internal_energy": -10.55, "cluster_size": 7, "cluster_id": 1, "rank_in_cluster": 1}

>  <_RMSD_MCS_to_ref>  (738) 
0.5810167333601024

$$$$
ligand
     RDKit          3D

 54 58  0  0  0  0  0  0  0  0999 V2000
   18.7970   18.8170    7.7190 C   0  0  0  0  0  0  0  0  0  0  0  0
   18.5280   17.3290    7.8810 C   0  0  0  0  0  0  0  0  0  0  0  0
   19.4170   16.5010    7.0220 C   0  0  0  0  0  0  0  0  0  0  0  0
   20.7250   16.1180    7.2440 C   0  0  0  0  0  0  0  0  0  0  0  0
   21.0470   15.3700    6.1470 N   0  0  0  0  0  0  0  0  0  0  0  0
   22.5810   14.8070    5.7500 S   0  0  0  0  0  6  0  0  0  0  0  0
   23.4120   15.9870    5.6070 O   0  0  0  0  0  0  0  0  0  0  0  0
   22.3810   13.8600    4.6680 O   0  0  0  0  0  0  0  0  0  0  0  0
   23.1280   13.9110    7.1730 C   0  0  0  0  0  0  0  0  0  0  0  0
   23.4070   12.5710    7.0720 C   0  0  0  0  0  0  0  0  0  0  0  0
   23.8090   11.9930    8.2470 C   0  0  0  0  0  0  0  0  0  0  0  0
   23.9220   12.6710    9.4090 N   0  0  0  0  0  0  0  0  0  0  0  0
   23.6220   13.9840    9.3960 C   0  0  0  0  0  0  0  0  0  0  0  0
   23.7280   14.7470   10.6570 C   0  0  0  0  0  0  0  0  0  0  0  0
   22.5700   15.0910   11.4090 C   0  0  0  0  0  0  0  0  0  0  0  0
   22.6470   15.8170   12.6030 C   0  0  0  0  0  0  0  0  0  0  0  0
   23.9010   16.1920   13.0380 C   0  0  0  0  0  0  0  0  0  0  0  0
   25.0580   15.8790   12.3370 C   0  0  0  0  0  0  0  0  0  0  0  0
   24.9880   15.1630   11.1520 C   0  0  0  0  0  0  0  0  0  0  0  0
   26.2490   16.4390   13.0410 C   0  0  0  0  0  0  0  0  0  0  0  0
   25.6680   16.9940   14.2560 N   0  0  0  0  0  0  0  0  0  0  0  0
   26.4520   17.8420   15.1470 C   0  0  2  0  0  0  0  0  0  0  0  0
   25.9640   17.8300   16.5960 C   0  0  0  0  0  0  0  0  0  0  0  0
   26.8850   18.6920   17.4450 C   0  0  0  0  0  0  0  0  0  0  0  0
   26.9670   20.1010   16.9050 C   0  0  0  0  0  0  0  0  0  0  0  0
   27.2850   21.0540   17.6110 O   0  0  0  0  0  0  0  0  0  0  0  0
   26.7520   20.2610   15.5590 N   0  0  0  0  0  0  0  0  0  0  0  0
   26.5330   19.2820   14.6160 C   0  0  0  0  0  0  0  0  0  0  0  0
   26.5160   19.5670   13.4200 O   0  0  0  0  0  0  0  0  0  0  0  0
   24.2820   16.9520   14.2330 C   0  0  0  0  0  0  0  0  0  0  0  0
   23.4960   17.4490   15.0150 O   0  0  0  0  0  0  0  0  0  0  0  0
   23.2230   14.6460    8.3010 N   0  0  0  0  0  0  0  0  0  0  0  0
   19.9840   15.3430    5.3010 C   0  0  0  0  0  0  0  0  0  0  0  0
   18.9700   16.0160    5.8080 N   0  0  0  0  0  0  0  0  0  0  0  0
   18.8815   19.2845    8.7111 H   0  0  0  0  0  0  0  0  0  0  0  0
   19.7359   18.9616    7.1643 H   0  0  0  0  0  0  0  0  0  0  0  0
   17.9682   19.2812    7.1643 H   0  0  0  0  0  0  0  0  0  0  0  0
   18.6926   17.0516    8.9326 H   0  0  0  0  0  0  0  0  0  0  0  0
   17.4888   17.1381    7.5749 H   0  0  0  0  0  0  0  0  0  0  0  0
   21.3624   16.3600    8.1073 H   0  0  0  0  0  0  0  0  0  0  0  0
   23.3158   12.0103    6.1300 H   0  0  0  0  0  0  0  0  0  0  0  0
   24.0525   10.9203    8.2436 H   0  0  0  0  0  0  0  0  0  0  0  0
   21.5827   14.7762   11.0400 H   0  0  0  0  0  0  0  0  0  0  0  0
   21.7428   16.0783   13.1723 H   0  0  0  0  0  0  0  0  0  0  0  0
   25.9069   14.9191   10.5987 H   0  0  0  0  0  0  0  0  0  0  0  0
   26.9794   15.6504   13.2745 H   0  0  0  0  0  0  0  0  0  0  0  0
   26.8028   17.1782   12.4436 H   0  0  0  0  0  0  0  0  0  0  0  0
   27.4616   17.4053   15.1579 H   0  0  0  0  0  0  0  0  0  0  0  0
   24.9405   18.2304   16.6421 H   0  0  0  0  0  0  0  0  0  0  0  0
   25.9702   16.7984   16.9778 H   0  0  0  0  0  0  0  0  0  0  0  0
   26.4983   18.7242   18.4743 H   0  0  0  0  0  0  0  0  0  0  0  0
   27.8927   18.2514   17.4227 H   0  0  0  0  0  0  0  0  0  0  0  0
   26.7548   21.2309   15.2123 H   0  0  0  0  0  0  0  0  0  0  0  0
   19.9713   14.8305    4.3278 H   0  0  0  0  0  0  0  0  0  0  0  0
  1  2  1  0
  2  3  1  0
  3  4  2  0
  4  5  1  0
  5  6  1  0
  6  7  2  0
  6  8  2  0
  6  9  1  0
  9 10  2  0
 10 11  1  0
 11 12  2  0
 12 13  1  0
 13 14  1  0
 14 15  2  0
 15 16  1  0
 16 17  2  0
 17 18  1  0
 18 19  2  0
 18 20  1  0
 20 21  1  0
 21 22  1  0
 22 23  1  0
 23 24  1  0
 24 25  1  0
 25 26  2  0
 25 27  1  0
 27 28  1  0
 28 29  2  0
 21 30  1  0
 30 31  2  0
 13 32  2  0
  5 33  1  0
 33 34  2  0
 34  3  1  0
 32  9  1  0
 19 14  1  0
 28 22  1  0
 30 17  1  0
  1 35  1  0
  1 36  1  0
  1 37  1  0
  2 38  1  0
  2 39  1  0
  4 40  1  0
 10 41  1  0
 11 42  1  0
 15 43  1  0
 16 44  1  0
 19 45  1  0
 20 46  1  0
 20 47  1  0
 22 48  1  1
 23 49  1  0
 23 50  1  0
 24 51  1  0
 24 52  1  0
 27 53  1  0
 33 54  1  0
M  END
>  <meeko>  (739) 
{"is_sidechain": [true], "free_energy": -10.55, "intermolecular_energy": 0.0, "internal_energy": -10.55, "cluster_size": 10, "cluster_id": 2, "rank_in_cluster": 1}

>  <_RMSD_MCS_to_ref>  (739) 
1.0130638621966972

$$$$
ligand
     RDKit          3D

 48 51  0  0  0  0  0  0  0  0999 V2000
   18.9090   19.1540    7.5370 C   0  0  0  0  0  0  0  0  0  0  0  0
   18.7730   17.6460    7.6780 C   0  0  0  0  0  0  0  0  0  0  0  0
   20.0440   16.9360    7.3710 C   0  0  0  0  0  0  0  0  0  0  0  0
   21.1860   16.8280    8.1400 C   0  0  0  0  0  0  0  0  0  0  0  0
   22.0380   16.0860    7.3720 N   0  0  0  0  0  0  0  0  0  0  0  0
   23.5440   15.5190    7.8300 S   0  0  0  0  0  6  0  0  0  0  0  0
   24.5200   16.2520    7.0420 O   0  0  0  0  0  0  0  0  0  0  0  0
   23.4590   14.0700    7.8210 O   0  0  0  0  0  0  0  0  0  0  0  0
   23.8590   15.9530    9.4770 C   0  0  0  0  0  0  0  0  0  0  0  0
   24.8490   16.7820    9.8540 N   0  0  0  0  0  0  0  0  0  0  0  0
   24.7150   16.8420   11.1910 N   0  0  0  0  0  0  0  0  0  0  0  0
   23.6890   16.0760   11.6860 C   0  0  0  0  0  0  0  0  0  0  0  0
   23.2500   15.8730   13.0050 C   0  0  0  0  0  0  0  0  0  0  0  0
   23.9650   16.5540   14.1170 C   0  0  0  0  0  0  0  0  0  0  0  0
   24.2640   15.9170   15.1230 O   0  0  0  0  0  0  0  0  0  0  0  0
   24.2290   17.8960   13.9780 N   0  0  0  0  0  0  0  0  0  0  0  0
   24.7950   18.6750   15.0730 C   0  0  1  0  0  0  0  0  0  0  0  0
   25.9120   17.9300   15.7950 C   0  0  0  0  0  0  0  0  0  0  0  0
   26.4850   18.8140   16.8920 C   0  0  0  0  0  0  0  0  0  0  0  0
   26.9550   20.1390   16.3400 C   0  0  0  0  0  0  0  0  0  0  0  0
   27.9240   20.7370   16.7970 O   0  0  0  0  0  0  0  0  0  0  0  0
   26.2220   20.6700   15.3090 N   0  0  0  0  0  0  0  0  0  0  0  0
   25.3550   19.9800   14.5000 C   0  0  0  0  0  0  0  0  0  0  0  0
   25.0460   20.4010   13.3850 O   0  0  0  0  0  0  0  0  0  0  0  0
   22.1310   15.0400   13.1720 C   0  0  0  0  0  0  0  0  0  0  0  0
   21.5150   14.4300   12.0750 C   0  0  0  0  0  0  0  0  0  0  0  0
   21.9890   14.6370   10.7730 C   0  0  0  0  0  0  0  0  0  0  0  0
   23.0970   15.4830   10.5780 C   0  0  0  0  0  0  0  0  0  0  0  0
   21.4040   15.7250    6.2280 C   0  0  0  0  0  0  0  0  0  0  0  0
   20.1970   16.2500    6.1820 N   0  0  0  0  0  0  0  0  0  0  0  0
   18.9504   19.6134    8.5356 H   0  0  0  0  0  0  0  0  0  0  0  0
   19.8320   19.3891    6.9867 H   0  0  0  0  0  0  0  0  0  0  0  0
   18.0430   19.5504    6.9867 H   0  0  0  0  0  0  0  0  0  0  0  0
   18.4772   17.4121    8.7113 H   0  0  0  0  0  0  0  0  0  0  0  0
   18.0140   17.3065    6.9578 H   0  0  0  0  0  0  0  0  0  0  0  0
   21.3680   17.2442    9.1418 H   0  0  0  0  0  0  0  0  0  0  0  0
   25.3282   17.4124   11.7906 H   0  0  0  0  0  0  0  0  0  0  0  0
   24.0228   18.3606   13.0822 H   0  0  0  0  0  0  0  0  0  0  0  0
   23.9968   18.8669   15.8052 H   0  0  0  0  0  0  0  0  0  0  0  0
   25.5097   17.0079   16.2399 H   0  0  0  0  0  0  0  0  0  0  0  0
   26.7059   17.6751   15.0776 H   0  0  0  0  0  0  0  0  0  0  0  0
   25.7071   18.9965   17.6480 H   0  0  0  0  0  0  0  0  0  0  0  0
   27.3480   18.2981   17.3381 H   0  0  0  0  0  0  0  0  0  0  0  0
   26.3326   21.6775   15.1258 H   0  0  0  0  0  0  0  0  0  0  0  0
   21.7330   14.8648   14.1824 H   0  0  0  0  0  0  0  0  0  0  0  0
   20.6445   13.7773   12.2368 H   0  0  0  0  0  0  0  0  0  0  0  0
   21.5031   14.1463    9.9168 H   0  0  0  0  0  0  0  0  0  0  0  0
   21.8379   15.0829    5.4473 H   0  0  0  0  0  0  0  0  0  0  0  0
  1  2  1  0
  2  3  1  0
  3  4  2  0
  4  5  1  0
  5  6  1  0
  6  7  2  0
  6  8  2  0
  6  9  1  0
  9 10  2  0
 10 11  1  0
 11 12  1  0
 12 13  2  0
 13 14  1  0
 14 15  2  0
 14 16  1  0
 16 17  1  0
 17 18  1  0
 18 19  1  0
 19 20  1  0
 20 21  2  0
 20 22  1  0
 22 23  1  0
 23 24  2  0
 13 25  1  0
 25 26  2  0
 26 27  1  0
 27 28  2  0
  5 29  1  0
 29 30  2  0
 30  3  1  0
 28  9  1  0
 28 12  1  0
 23 17  1  0
  1 31  1  0
  1 32  1  0
  1 33  1  0
  2 34  1  0
  2 35  1  0
  4 36  1  0
 11 37  1  0
 16 38  1  0
 17 39  1  1
 18 40  1  0
 18 41  1  0
 19 42  1  0
 19 43  1  0
 22 44  1  0
 25 45  1  0
 26 46  1  0
 27 47  1  0
 29 48  1  0
M  END
>  <meeko>  (740) 
{"is_sidechain": [true], "free_energy": -10.55, "intermolecular_energy": 0.0, "internal_energy": -10.55, "cluster_size": 11, "cluster_id": 1, "rank_in_cluster": 1}

>  <_RMSD_MCS_to_ref>  (740) 
0.46808534359546977

$$$$
ligand
     RDKit          3D

 47 50  0  0  0  0  0  0  0  0999 V2000
   18.9090   19.1540    7.5370 C   0  0  0  0  0  0  0  0  0  0  0  0
   18.7730   17.6460    7.6780 C   0  0  0  0  0  0  0  0  0  0  0  0
   20.0920   16.9580    7.6600 C   0  0  0  0  0  0  0  0  0  0  0  0
   20.9400   16.6760    8.7120 C   0  0  0  0  0  0  0  0  0  0  0  0
   21.9850   16.0140    8.1310 N   0  0  0  0  0  0  0  0  0  0  0  0
   23.3780   15.4950    8.9270 S   0  0  0  0  0  6  0  0  0  0  0  0
   24.3600   16.5400    8.7000 O   0  0  0  0  0  0  0  0  0  0  0  0
   23.6000   14.1620    8.3870 O   0  0  0  0  0  0  0  0  0  0  0  0
   23.0600   15.3600   10.6250 C   0  0  0  0  0  0  0  0  0  0  0  0
   23.9750   15.8370   11.4970 C   0  0  0  0  0  0  0  0  0  0  0  0
   23.7460   15.7880   12.9400 C   0  0  0  0  0  0  0  0  0  0  0  0
   24.7160   16.3070   13.9470 C   0  0  0  0  0  0  0  0  0  0  0  0
   25.3340   15.5560   14.6930 O   0  0  0  0  0  0  0  0  0  0  0  0
   24.8870   17.6660   13.9320 N   0  0  0  0  0  0  0  0  0  0  0  0
   25.9180   18.3060   14.7410 C   0  0  2  0  0  0  0  0  0  0  0  0
   25.7570   18.0040   16.2260 C   0  0  0  0  0  0  0  0  0  0  0  0
   26.8330   18.7380   17.0120 C   0  0  0  0  0  0  0  0  0  0  0  0
   26.8020   20.2220   16.7310 C   0  0  0  0  0  0  0  0  0  0  0  0
   27.0870   21.0590   17.5820 O   0  0  0  0  0  0  0  0  0  0  0  0
   26.4670   20.6000   15.4550 N   0  0  0  0  0  0  0  0  0  0  0  0
   25.8280   19.8190   14.5260 C   0  0  0  0  0  0  0  0  0  0  0  0
   25.2300   20.3170   13.5710 O   0  0  0  0  0  0  0  0  0  0  0  0
   22.5740   15.3000   13.3890 C   0  0  0  0  0  0  0  0  0  0  0  0
   21.6320   14.8210   12.4860 N   0  0  0  0  0  0  0  0  0  0  0  0
   20.4220   14.2760   12.7430 N   0  0  0  0  0  0  0  0  0  0  0  0
   19.9620   13.9930   11.5260 C   0  0  0  0  0  0  0  0  0  0  0  0
   20.7940   14.3100   10.4950 N   0  0  0  0  0  0  0  0  0  0  0  0
   21.8380   14.8250   11.1020 C   0  0  0  0  0  0  0  0  0  0  0  0
   21.7830   15.9510    6.7900 C   0  0  0  0  0  0  0  0  0  0  0  0
   20.6290   16.5010    6.4710 N   0  0  0  0  0  0  0  0  0  0  0  0
   18.9504   19.6134    8.5356 H   0  0  0  0  0  0  0  0  0  0  0  0
   19.8320   19.3891    6.9867 H   0  0  0  0  0  0  0  0  0  0  0  0
   18.0430   19.5504    6.9867 H   0  0  0  0  0  0  0  0  0  0  0  0
   18.2704   17.4233    8.6308 H   0  0  0  0  0  0  0  0  0  0  0  0
   18.1890   17.2783    6.8214 H   0  0  0  0  0  0  0  0  0  0  0  0
   20.8055   16.9267    9.7746 H   0  0  0  0  0  0  0  0  0  0  0  0
   24.9105   16.2707   11.1138 H   0  0  0  0  0  0  0  0  0  0  0  0
   24.2767   18.2462   13.3389 H   0  0  0  0  0  0  0  0  0  0  0  0
   26.8959   17.9117   14.4275 H   0  0  0  0  0  0  0  0  0  0  0  0
   24.7646   18.3382   16.5627 H   0  0  0  0  0  0  0  0  0  0  0  0
   25.8552   16.9212   16.3928 H   0  0  0  0  0  0  0  0  0  0  0  0
   26.6668   18.5733   18.0868 H   0  0  0  0  0  0  0  0  0  0  0  0
   27.8144   18.3470   16.7055 H   0  0  0  0  0  0  0  0  0  0  0  0
   26.7182   21.5571   15.1690 H   0  0  0  0  0  0  0  0  0  0  0  0
   22.3625   15.2805   14.4683 H   0  0  0  0  0  0  0  0  0  0  0  0
   18.9757   13.5337   11.3639 H   0  0  0  0  0  0  0  0  0  0  0  0
   22.4845   15.5035    6.0706 H   0  0  0  0  0  0  0  0  0  0  0  0
  1  2  1  0
  2  3  1  0
  3  4  2  0
  4  5  1  0
  5  6  1  0
  6  7  2  0
  6  8  2  0
  6  9  1  0
  9 10  2  0
 10 11  1  0
 11 12  1  0
 12 13  2  0
 12 14  1  0
 14 15  1  0
 15 16  1  0
 16 17  1  0
 17 18  1  0
 18 19  2  0
 18 20  1  0
 20 21  1  0
 21 22  2  0
 11 23  2  0
 23 24  1  0
 24 25  1  0
 25 26  2  0
 26 27  1  0
 27 28  2  0
  5 29  1  0
 29 30  2  0
 30  3  1  0
 28  9  1  0
 21 15  1  0
 28 24  1  0
  1 31  1  0
  1 32  1  0
  1 33  1  0
  2 34  1  0
  2 35  1  0
  4 36  1  0
 10 37  1  0
 14 38  1  0
 15 39  1  6
 16 40  1  0
 16 41  1  0
 17 42  1  0
 17 43  1  0
 20 44  1  0
 23 45  1  0
 26 46  1  0
 29 47  1  0
M  END
>  <meeko>  (741) 
{"is_sidechain": [true], "free_energy": -10.55, "intermolecular_energy": 0.0, "internal_energy": -10.55, "cluster_size": 20, "cluster_id": 1, "rank_in_cluster": 1}

>  <_RMSD_MCS_to_ref>  (741) 
0.6618706654458842

$$$$
ligand
     RDKit          3D

 47 50  0  0  0  0  0  0  0  0999 V2000
   18.9090   19.1540    7.5370 C   0  0  0  0  0  0  0  0  0  0  0  0
   18.7730   17.6460    7.6780 C   0  0  0  0  0  0  0  0  0  0  0  0
   20.0010   16.9280    7.2420 C   0  0  0  0  0  0  0  0  0  0  0  0
   21.2240   16.8320    7.8750 C   0  0  0  0  0  0  0  0  0  0  0  0
   21.9860   16.0840    7.0230 N   0  0  0  0  0  0  0  0  0  0  0  0
   23.5050   15.4510    7.3610 S   0  0  0  0  0  6  0  0  0  0  0  0
   24.4600   16.4060    6.8320 O   0  0  0  0  0  0  0  0  0  0  0  0
   23.4630   14.0700    6.9230 O   0  0  0  0  0  0  0  0  0  0  0  0
   23.5940   15.4880    9.1150 C   0  0  0  0  0  0  0  0  0  0  0  0
   24.6420   16.1410    9.7280 C   0  0  0  0  0  0  0  0  0  0  0  0
   24.8080   16.2270   11.0650 N   0  0  0  0  0  0  0  0  0  0  0  0
   23.8510   15.6280   11.8350 C   0  0  0  0  0  0  0  0  0  0  0  0
   23.8460   15.5970   13.2720 C   0  0  0  0  0  0  0  0  0  0  0  0
   24.8330   16.1750   14.1800 C   0  0  0  0  0  0  0  0  0  0  0  0
   25.5490   15.4800   14.8970 O   0  0  0  0  0  0  0  0  0  0  0  0
   24.9130   17.5440   14.1760 N   0  0  0  0  0  0  0  0  0  0  0  0
   25.9260   18.2690   14.9200 C   0  0  2  0  0  0  0  0  0  0  0  0
   25.7840   18.0640   16.4250 C   0  0  0  0  0  0  0  0  0  0  0  0
   26.8590   18.8600   17.1500 C   0  0  0  0  0  0  0  0  0  0  0  0
   26.8060   20.3220   16.7750 C   0  0  0  0  0  0  0  0  0  0  0  0
   27.0900   21.2150   17.5660 O   0  0  0  0  0  0  0  0  0  0  0  0
   26.4490   20.6110   15.4830 N   0  0  0  0  0  0  0  0  0  0  0  0
   25.8120   19.7660   14.6080 C   0  0  0  0  0  0  0  0  0  0  0  0
   25.2090   20.2070   13.6300 O   0  0  0  0  0  0  0  0  0  0  0  0
   22.7370   14.9140   13.7420 C   0  0  0  0  0  0  0  0  0  0  0  0
   21.7290   14.3310   12.4970 S   0  0  0  0  0  0  0  0  0  0  0  0
   22.7530   14.9680   11.2780 C   0  0  0  0  0  0  0  0  0  0  0  0
   22.6000   14.8900    9.8850 C   0  0  0  0  0  0  0  0  0  0  0  0
   21.2290   15.7120    5.9590 C   0  0  0  0  0  0  0  0  0  0  0  0
   20.0170   16.2170    6.0570 N   0  0  0  0  0  0  0  0  0  0  0  0
   18.9504   19.6134    8.5356 H   0  0  0  0  0  0  0  0  0  0  0  0
   19.8320   19.3891    6.9867 H   0  0  0  0  0  0  0  0  0  0  0  0
   18.0430   19.5504    6.9867 H   0  0  0  0  0  0  0  0  0  0  0  0
   18.5776   17.4050    8.7333 H   0  0  0  0  0  0  0  0  0  0  0  0
   17.9439   17.3198    7.0328 H   0  0  0  0  0  0  0  0  0  0  0  0
   21.5180   17.2603    8.8446 H   0  0  0  0  0  0  0  0  0  0  0  0
   25.3927   16.6240    9.0852 H   0  0  0  0  0  0  0  0  0  0  0  0
   24.2274   18.0783   13.6234 H   0  0  0  0  0  0  0  0  0  0  0  0
   26.9084   17.8806   14.6132 H   0  0  0  0  0  0  0  0  0  0  0  0
   24.7911   18.4086   16.7497 H   0  0  0  0  0  0  0  0  0  0  0  0
   25.8973   16.9957   16.6614 H   0  0  0  0  0  0  0  0  0  0  0  0
   26.7065   18.7626   18.2350 H   0  0  0  0  0  0  0  0  0  0  0  0
   27.8420   18.4621   16.8579 H   0  0  0  0  0  0  0  0  0  0  0  0
   26.6810   21.5524   15.1355 H   0  0  0  0  0  0  0  0  0  0  0  0
   22.5275   14.7628   14.8112 H   0  0  0  0  0  0  0  0  0  0  0  0
   21.7391   14.3825    9.4253 H   0  0  0  0  0  0  0  0  0  0  0  0
   21.5791   15.0777    5.1313 H   0  0  0  0  0  0  0  0  0  0  0  0
  1  2  1  0
  2  3  1  0
  3  4  2  0
  4  5  1  0
  5  6  1  0
  6  7  2  0
  6  8  2  0
  6  9  1  0
  9 10  2  0
 10 11  1  0
 11 12  2  0
 12 13  1  0
 13 14  1  0
 14 15  2  0
 14 16  1  0
 16 17  1  0
 17 18  1  0
 18 19  1  0
 19 20  1  0
 20 21  2  0
 20 22  1  0
 22 23  1  0
 23 24  2  0
 13 25  2  0
 25 26  1  0
 26 27  1  0
 27 28  2  0
  5 29  1  0
 29 30  2  0
 30  3  1  0
 28  9  1  0
 27 12  1  0
 23 17  1  0
  1 31  1  0
  1 32  1  0
  1 33  1  0
  2 34  1  0
  2 35  1  0
  4 36  1  0
 10 37  1  0
 16 38  1  0
 17 39  1  6
 18 40  1  0
 18 41  1  0
 19 42  1  0
 19 43  1  0
 22 44  1  0
 25 45  1  0
 28 46  1  0
 29 47  1  0
M  END
>  <meeko>  (742) 
{"is_sidechain": [true], "free_energy": -10.55, "intermolecular_energy": 0.0, "internal_energy": -10.55, "cluster_size": 20, "cluster_id": 1, "rank_in_cluster": 1}

>  <_RMSD_MCS_to_ref>  (742) 
0.7339433826180933

$$$$
ligand
     RDKit          3D

 45 48  0  0  0  0  0  0  0  0999 V2000
   18.9090   19.1540    7.5370 C   0  0  0  0  0  0  0  0  0  0  0  0
   18.7730   17.6460    7.6780 C   0  0  0  0  0  0  0  0  0  0  0  0
   20.0750   16.9900    7.9800 C   0  0  0  0  0  0  0  0  0  0  0  0
   20.4670   16.3270    9.1260 C   0  0  0  0  0  0  0  0  0  0  0  0
   21.7520   15.9450    8.8680 N   0  0  0  0  0  0  0  0  0  0  0  0
   22.6770   14.9120    9.8170 S   0  0  0  0  0  6  0  0  0  0  0  0
   21.7720   14.3570   10.8050 O   0  0  0  0  0  0  0  0  0  0  0  0
   23.4070   14.0780    8.8810 O   0  0  0  0  0  0  0  0  0  0  0  0
   23.7960   15.9930   10.6290 C   0  0  0  0  0  0  0  0  0  0  0  0
   24.9900   16.3780   10.0050 C   0  0  0  0  0  0  0  0  0  0  0  0
   25.9060   17.2120   10.6760 C   0  0  0  0  0  0  0  0  0  0  0  0
   25.6420   17.6810   11.9680 C   0  0  0  0  0  0  0  0  0  0  0  0
   24.4480   17.3090   12.5540 C   0  0  0  0  0  0  0  0  0  0  0  0
   23.5380   16.4800   11.8920 C   0  0  0  0  0  0  0  0  0  0  0  0
   22.4500   16.2800   12.7380 N   0  0  0  0  0  0  0  0  0  0  0  0
   22.6680   16.9560   13.9440 C   0  0  0  0  0  0  0  0  0  0  0  0
   21.9240   16.9500   14.9090 O   0  0  0  0  0  0  0  0  0  0  0  0
   23.9050   17.6210   13.8110 N   0  0  0  0  0  0  0  0  0  0  0  0
   24.5660   18.3580   14.8690 C   0  0  1  0  0  0  0  0  0  0  0  0
   25.8010   17.6500   15.4240 C   0  0  0  0  0  0  0  0  0  0  0  0
   26.4090   18.4900   16.5360 C   0  0  0  0  0  0  0  0  0  0  0  0
   26.7440   19.8820   16.0510 C   0  0  0  0  0  0  0  0  0  0  0  0
   27.5920   20.5790   16.6010 O   0  0  0  0  0  0  0  0  0  0  0  0
   25.9940   20.3680   15.0110 N   0  0  0  0  0  0  0  0  0  0  0  0
   24.9290   19.7660   14.3780 C   0  0  0  0  0  0  0  0  0  0  0  0
   24.2720   20.3910   13.5470 O   0  0  0  0  0  0  0  0  0  0  0  0
   22.0860   16.3270    7.6080 C   0  0  0  0  0  0  0  0  0  0  0  0
   21.0900   16.9740    7.0420 N   0  0  0  0  0  0  0  0  0  0  0  0
   18.9504   19.6134    8.5356 H   0  0  0  0  0  0  0  0  0  0  0  0
   19.8320   19.3891    6.9867 H   0  0  0  0  0  0  0  0  0  0  0  0
   18.0430   19.5504    6.9867 H   0  0  0  0  0  0  0  0  0  0  0  0
   18.0689   17.4286    8.4947 H   0  0  0  0  0  0  0  0  0  0  0  0
   18.4088   17.2485    6.7192 H   0  0  0  0  0  0  0  0  0  0  0  0
   19.8786   16.1477   10.0380 H   0  0  0  0  0  0  0  0  0  0  0  0
   25.2132   16.0275    8.9865 H   0  0  0  0  0  0  0  0  0  0  0  0
   26.8432   17.4990   10.1767 H   0  0  0  0  0  0  0  0  0  0  0  0
   26.3604   18.3235   12.4982 H   0  0  0  0  0  0  0  0  0  0  0  0
   21.6148   15.7215   12.5114 H   0  0  0  0  0  0  0  0  0  0  0  0
   23.8515   18.4243   15.7027 H   0  0  0  0  0  0  0  0  0  0  0  0
   25.5116   16.6668   15.8234 H   0  0  0  0  0  0  0  0  0  0  0  0
   26.5395   17.5158   14.6198 H   0  0  0  0  0  0  0  0  0  0  0  0
   25.6894   18.5626   17.3648 H   0  0  0  0  0  0  0  0  0  0  0  0
   27.3383   18.0051   16.8695 H   0  0  0  0  0  0  0  0  0  0  0  0
   26.2601   21.2989   14.6595 H   0  0  0  0  0  0  0  0  0  0  0  0
   23.0545   16.1237    7.1277 H   0  0  0  0  0  0  0  0  0  0  0  0
  1  2  1  0
  2  3  1  0
  3  4  2  0
  4  5  1  0
  5  6  1  0
  6  7  2  0
  6  8  2  0
  6  9  1  0
  9 10  2  0
 10 11  1  0
 11 12  2  0
 12 13  1  0
 13 14  2  0
 14 15  1  0
 15 16  1  0
 16 17  2  0
 16 18  1  0
 18 19  1  0
 19 20  1  0
 20 21  1  0
 21 22  1  0
 22 23  2  0
 22 24  1  0
 24 25  1  0
 25 26  2  0
  5 27  1  0
 27 28  2  0
 28  3  1  0
 14  9  1  0
 25 19  1  0
 18 13  1  0
  1 29  1  0
  1 30  1  0
  1 31  1  0
  2 32  1  0
  2 33  1  0
  4 34  1  0
 10 35  1  0
 11 36  1  0
 12 37  1  0
 15 38  1  0
 19 39  1  1
 20 40  1  0
 20 41  1  0
 21 42  1  0
 21 43  1  0
 24 44  1  0
 27 45  1  0
M  END
>  <meeko>  (743) 
{"is_sidechain": [true], "free_energy": -10.55, "intermolecular_energy": 0.0, "internal_energy": -10.55, "cluster_size": 20, "cluster_id": 1, "rank_in_cluster": 1}

>  <_RMSD_MCS_to_ref>  (743) 
0.44644920079320244

$$$$
ligand
     RDKit          3D

 54 58  0  0  0  0  0  0  0  0999 V2000
   18.7970   18.8170    7.7190 C   0  0  0  0  0  0  0  0  0  0  0  0
   18.5280   17.3290    7.8810 C   0  0  0  0  0  0  0  0  0  0  0  0
   19.3980   16.5010    7.0010 C   0  0  0  0  0  0  0  0  0  0  0  0
   20.7730   16.5290    6.8690 C   0  0  0  0  0  0  0  0  0  0  0  0
   21.0410   15.5550    5.9470 N   0  0  0  0  0  0  0  0  0  0  0  0
   22.5350   15.2670    5.2220 S   0  0  0  0  0  6  0  0  0  0  0  0
   23.0910   16.5840    4.9610 O   0  0  0  0  0  0  0  0  0  0  0  0
   22.2390   14.3230    4.1570 O   0  0  0  0  0  0  0  0  0  0  0  0
   23.4620   14.4690    6.5120 C   0  0  0  0  0  0  0  0  0  0  0  0
   24.0300   13.2910    6.2070 N   0  0  0  0  0  0  0  0  0  0  0  0
   24.6740   12.7070    7.2300 C   0  0  0  0  0  0  0  0  0  0  0  0
   24.7560   13.2540    8.4970 C   0  0  0  0  0  0  0  0  0  0  0  0
   24.1360   14.4780    8.7010 C   0  0  0  0  0  0  0  0  0  0  0  0
   24.1240   15.1950    9.9990 C   0  0  0  0  0  0  0  0  0  0  0  0
   22.9160   15.5070   10.6800 C   0  0  0  0  0  0  0  0  0  0  0  0
   22.9100   16.1810   11.9080 C   0  0  0  0  0  0  0  0  0  0  0  0
   24.1290   16.5300   12.4500 C   0  0  0  0  0  0  0  0  0  0  0  0
   25.3320   16.2400   11.8230 C   0  0  0  0  0  0  0  0  0  0  0  0
   25.3440   15.5800   10.6050 C   0  0  0  0  0  0  0  0  0  0  0  0
   26.4720   16.7490   12.6390 C   0  0  0  0  0  0  0  0  0  0  0  0
   25.8060   17.2590   13.8300 N   0  0  0  0  0  0  0  0  0  0  0  0
   26.5270   18.0530   14.8180 C   0  0  2  0  0  0  0  0  0  0  0  0
   26.0040   17.8860   16.2440 C   0  0  0  0  0  0  0  0  0  0  0  0
   26.8610   18.7060   17.1950 C   0  0  0  0  0  0  0  0  0  0  0  0
   26.8900   20.1610   16.7900 C   0  0  0  0  0  0  0  0  0  0  0  0
   27.1370   21.0580   17.5910 O   0  0  0  0  0  0  0  0  0  0  0  0
   26.7070   20.4340   15.4580 N   0  0  0  0  0  0  0  0  0  0  0  0
   26.5510   19.5390   14.4240 C   0  0  0  0  0  0  0  0  0  0  0  0
   26.5410   19.9330   13.2580 O   0  0  0  0  0  0  0  0  0  0  0  0
   24.4250   17.2300   13.7040 C   0  0  0  0  0  0  0  0  0  0  0  0
   23.5840   17.6960   14.4480 O   0  0  0  0  0  0  0  0  0  0  0  0
   23.4740   15.0970    7.7010 N   0  0  0  0  0  0  0  0  0  0  0  0
   19.8700   15.0060    5.5300 C   0  0  0  0  0  0  0  0  0  0  0  0
   18.8490   15.5610    6.1530 N   0  0  0  0  0  0  0  0  0  0  0  0
   18.8815   19.2845    8.7111 H   0  0  0  0  0  0  0  0  0  0  0  0
   19.7359   18.9616    7.1643 H   0  0  0  0  0  0  0  0  0  0  0  0
   17.9682   19.2812    7.1643 H   0  0  0  0  0  0  0  0  0  0  0  0
   18.7131   17.0475    8.9281 H   0  0  0  0  0  0  0  0  0  0  0  0
   17.4825   17.1418    7.5948 H   0  0  0  0  0  0  0  0  0  0  0  0
   21.4885   17.1846    7.3869 H   0  0  0  0  0  0  0  0  0  0  0  0
   25.1640   11.7388    7.0500 H   0  0  0  0  0  0  0  0  0  0  0  0
   25.2906   12.7401    9.3095 H   0  0  0  0  0  0  0  0  0  0  0  0
   21.9574   15.2104   10.2293 H   0  0  0  0  0  0  0  0  0  0  0  0
   21.9675   16.4230   12.4211 H   0  0  0  0  0  0  0  0  0  0  0  0
   26.3001   15.3555   10.1096 H   0  0  0  0  0  0  0  0  0  0  0  0
   27.1725   15.9394   12.8915 H   0  0  0  0  0  0  0  0  0  0  0  0
   27.0795   17.5046   12.1194 H   0  0  0  0  0  0  0  0  0  0  0  0
   27.5550   17.6615   14.8187 H   0  0  0  0  0  0  0  0  0  0  0  0
   24.9619   18.2343   16.2959 H   0  0  0  0  0  0  0  0  0  0  0  0
   26.0495   16.8249   16.5303 H   0  0  0  0  0  0  0  0  0  0  0  0
   26.4472   18.6248   18.2110 H   0  0  0  0  0  0  0  0  0  0  0  0
   27.8887   18.3153   17.1615 H   0  0  0  0  0  0  0  0  0  0  0  0
   26.6835   21.4309   15.2001 H   0  0  0  0  0  0  0  0  0  0  0  0
   19.7855   14.2088    4.7768 H   0  0  0  0  0  0  0  0  0  0  0  0
  1  2  1  0
  2  3  1  0
  3  4  2  0
  4  5  1  0
  5  6  1  0
  6  7  2  0
  6  8  2  0
  6  9  1  0
  9 10  2  0
 10 11  1  0
 11 12  2  0
 12 13  1  0
 13 14  1  0
 14 15  2  0
 15 16  1  0
 16 17  2  0
 17 18  1  0
 18 19  2  0
 18 20  1  0
 20 21  1  0
 21 22  1  0
 22 23  1  0
 23 24  1  0
 24 25  1  0
 25 26  2  0
 25 27  1  0
 27 28  1  0
 28 29  2  0
 21 30  1  0
 30 31  2  0
 13 32  2  0
  5 33  1  0
 33 34  2  0
 34  3  1  0
 32  9  1  0
 19 14  1  0
 28 22  1  0
 30 17  1  0
  1 35  1  0
  1 36  1  0
  1 37  1  0
  2 38  1  0
  2 39  1  0
  4 40  1  0
 11 41  1  0
 12 42  1  0
 15 43  1  0
 16 44  1  0
 19 45  1  0
 20 46  1  0
 20 47  1  0
 22 48  1  1
 23 49  1  0
 23 50  1  0
 24 51  1  0
 24 52  1  0
 27 53  1  0
 33 54  1  0
M  END
>  <meeko>  (744) 
{"is_sidechain": [true], "free_energy": -10.54, "intermolecular_energy": 0.0, "internal_energy": -10.54, "cluster_size": 5, "cluster_id": 2, "rank_in_cluster": 1}

>  <_RMSD_MCS_to_ref>  (744) 
0.9123884711142634

$$$$
ligand
     RDKit          3D

 48 51  0  0  0  0  0  0  0  0999 V2000
   18.9090   19.1540    7.5370 C   0  0  0  0  0  0  0  0  0  0  0  0
   18.7730   17.6460    7.6780 C   0  0  0  0  0  0  0  0  0  0  0  0
   20.0880   16.9540    7.5990 C   0  0  0  0  0  0  0  0  0  0  0  0
   21.0660   16.8320    8.5660 C   0  0  0  0  0  0  0  0  0  0  0  0
   22.0630   16.1300    7.9500 N   0  0  0  0  0  0  0  0  0  0  0  0
   23.4010   15.4420    8.7160 S   0  0  0  0  0  6  0  0  0  0  0  0
   24.5160   16.2840    8.3260 O   0  0  0  0  0  0  0  0  0  0  0  0
   23.3550   14.0430    8.3260 O   0  0  0  0  0  0  0  0  0  0  0  0
   23.1120   15.5770   10.4360 C   0  0  0  0  0  0  0  0  0  0  0  0
   23.9520   16.4360   11.2720 C   0  0  0  0  0  0  0  0  0  0  0  0
   23.7040   16.5250   12.5980 C   0  0  0  0  0  0  0  0  0  0  0  0
   24.5860   17.3760   13.4430 C   0  0  0  0  0  0  0  0  0  0  0  0
   25.8040   17.3500   13.3280 O   0  0  0  0  0  0  0  0  0  0  0  0
   23.9330   18.1470   14.3710 N   0  0  0  0  0  0  0  0  0  0  0  0
   24.6670   18.9060   15.3760 C   0  0  1  0  0  0  0  0  0  0  0  0
   25.7000   18.0530   16.1050 C   0  0  0  0  0  0  0  0  0  0  0  0
   26.4560   18.9160   17.1030 C   0  0  0  0  0  0  0  0  0  0  0  0
   27.0880   20.1110   16.4290 C   0  0  0  0  0  0  0  0  0  0  0  0
   28.1580   20.5860   16.7970 O   0  0  0  0  0  0  0  0  0  0  0  0
   26.3880   20.6720   15.3900 N   0  0  0  0  0  0  0  0  0  0  0  0
   25.3830   20.0670   14.6780 C   0  0  0  0  0  0  0  0  0  0  0  0
   25.0780   20.4480   13.5490 O   0  0  0  0  0  0  0  0  0  0  0  0
   22.6620   15.7580   13.1360 N   0  0  0  0  0  0  0  0  0  0  0  0
   22.2020   15.6410   14.4270 C   0  0  0  0  0  0  0  0  0  0  0  0
   21.1480   14.7600   14.3740 C   0  0  0  0  0  0  0  0  0  0  0  0
   20.9330   14.3290   13.0930 N   0  0  0  0  0  0  0  0  0  0  0  0
   21.8440   14.9340   12.3630 C   0  0  0  0  0  0  0  0  0  0  0  0
   22.0970   14.8650   10.9650 C   0  0  0  0  0  0  0  0  0  0  0  0
   21.6620   15.7990    6.6950 C   0  0  0  0  0  0  0  0  0  0  0  0
   20.4690   16.2970    6.4450 N   0  0  0  0  0  0  0  0  0  0  0  0
   18.9504   19.6134    8.5356 H   0  0  0  0  0  0  0  0  0  0  0  0
   19.8320   19.3891    6.9867 H   0  0  0  0  0  0  0  0  0  0  0  0
   18.0430   19.5504    6.9867 H   0  0  0  0  0  0  0  0  0  0  0  0
   18.3121   17.4212    8.6512 H   0  0  0  0  0  0  0  0  0  0  0  0
   18.1499   17.2836    6.8471 H   0  0  0  0  0  0  0  0  0  0  0  0
   21.0467   17.2133    9.5976 H   0  0  0  0  0  0  0  0  0  0  0  0
   24.7798   17.0055   10.8242 H   0  0  0  0  0  0  0  0  0  0  0  0
   22.9040   18.1904   14.3573 H   0  0  0  0  0  0  0  0  0  0  0  0
   23.9472   19.2679   16.1250 H   0  0  0  0  0  0  0  0  0  0  0  0
   25.1910   17.2363   16.6379 H   0  0  0  0  0  0  0  0  0  0  0  0
   26.4070   17.6302   15.3760 H   0  0  0  0  0  0  0  0  0  0  0  0
   25.7555   19.2688   17.8742 H   0  0  0  0  0  0  0  0  0  0  0  0
   27.2555   18.3079   17.5514 H   0  0  0  0  0  0  0  0  0  0  0  0
   26.6398   21.6337   15.1205 H   0  0  0  0  0  0  0  0  0  0  0  0
   22.5968   16.1486   15.3194 H   0  0  0  0  0  0  0  0  0  0  0  0
   20.5561   14.4435   15.2455 H   0  0  0  0  0  0  0  0  0  0  0  0
   21.4681   14.2344   10.3194 H   0  0  0  0  0  0  0  0  0  0  0  0
   22.2516   15.1987    5.9865 H   0  0  0  0  0  0  0  0  0  0  0  0
  1  2  1  0
  2  3  1  0
  3  4  2  0
  4  5  1  0
  5  6  1  0
  6  7  2  0
  6  8  2  0
  6  9  1  0
  9 10  1  0
 10 11  2  0
 11 12  1  0
 12 13  2  0
 12 14  1  0
 14 15  1  0
 15 16  1  0
 16 17  1  0
 17 18  1  0
 18 19  2  0
 18 20  1  0
 20 21  1  0
 21 22  2  0
 11 23  1  0
 23 24  1  0
 24 25  2  0
 25 26  1  0
 26 27  2  0
 27 28  1  0
  5 29  1  0
 29 30  2  0
 30  3  1  0
 28  9  2  0
 21 15  1  0
 27 23  1  0
  1 31  1  0
  1 32  1  0
  1 33  1  0
  2 34  1  0
  2 35  1  0
  4 36  1  0
 10 37  1  0
 14 38  1  0
 15 39  1  1
 16 40  1  0
 16 41  1  0
 17 42  1  0
 17 43  1  0
 20 44  1  0
 24 45  1  0
 25 46  1  0
 28 47  1  0
 29 48  1  0
M  END
>  <meeko>  (745) 
{"is_sidechain": [true], "free_energy": -10.54, "intermolecular_energy": 0.0, "internal_energy": -10.54, "cluster_size": 20, "cluster_id": 1, "rank_in_cluster": 1}

>  <_RMSD_MCS_to_ref>  (745) 
0.7261641993684658

$$$$
ligand
     RDKit          3D

 48 51  0  0  0  0  0  0  0  0999 V2000
   18.9090   19.1540    7.5370 C   0  0  0  0  0  0  0  0  0  0  0  0
   18.7730   17.6460    7.6780 C   0  0  0  0  0  0  0  0  0  0  0  0
   20.0950   16.9690    7.7620 C   0  0  0  0  0  0  0  0  0  0  0  0
   20.7610   16.5010    8.8780 C   0  0  0  0  0  0  0  0  0  0  0  0
   21.9170   15.9720    8.3840 N   0  0  0  0  0  0  0  0  0  0  0  0
   23.0120   14.9960    9.2220 S   0  0  0  0  0  6  0  0  0  0  0  0
   24.1750   15.8380    9.4360 O   0  0  0  0  0  0  0  0  0  0  0  0
   23.1180   13.8120    8.3840 O   0  0  0  0  0  0  0  0  0  0  0  0
   22.2660   14.5930   10.7350 C   0  0  0  0  0  0  0  0  0  0  0  0
   21.3510   13.6000   10.7570 C   0  0  0  0  0  0  0  0  0  0  0  0
   20.6820   13.2710   12.0050 C   0  0  0  0  0  0  0  0  0  0  0  0
   20.9450   13.9460   13.1370 C   0  0  0  0  0  0  0  0  0  0  0  0
   21.9030   14.9990   13.1270 C   0  0  0  0  0  0  0  0  0  0  0  0
   22.2960   15.7950   14.0970 N   0  0  0  0  0  0  0  0  0  0  0  0
   23.2520   16.6180   13.5310 C   0  0  0  0  0  0  0  0  0  0  0  0
   23.9470   17.6670   14.2760 C   0  0  0  0  0  0  0  0  0  0  0  0
   23.4180   18.3270   15.1640 O   0  0  0  0  0  0  0  0  0  0  0  0
   25.2590   17.8190   13.8790 N   0  0  0  0  0  0  0  0  0  0  0  0
   26.2010   18.5440   14.7070 C   0  0  2  0  0  0  0  0  0  0  0  0
   26.0480   18.1550   16.1720 C   0  0  0  0  0  0  0  0  0  0  0  0
   27.0510   18.9300   17.0120 C   0  0  0  0  0  0  0  0  0  0  0  0
   26.9030   20.4200   16.8050 C   0  0  0  0  0  0  0  0  0  0  0  0
   27.0830   21.2300   17.7080 O   0  0  0  0  0  0  0  0  0  0  0  0
   26.5750   20.8330   15.5380 N   0  0  0  0  0  0  0  0  0  0  0  0
   25.9780   20.0590   14.5710 C   0  0  0  0  0  0  0  0  0  0  0  0
   25.3200   20.5800   13.6730 O   0  0  0  0  0  0  0  0  0  0  0  0
   23.4310   16.2960   12.2020 C   0  0  0  0  0  0  0  0  0  0  0  0
   22.5510   15.2800   11.9200 N   0  0  0  0  0  0  0  0  0  0  0  0
   21.9220   16.1030    7.0320 C   0  0  0  0  0  0  0  0  0  0  0  0
   20.8300   16.7090    6.6210 N   0  0  0  0  0  0  0  0  0  0  0  0
   18.9504   19.6134    8.5356 H   0  0  0  0  0  0  0  0  0  0  0  0
   19.8320   19.3891    6.9867 H   0  0  0  0  0  0  0  0  0  0  0  0
   18.0430   19.5504    6.9867 H   0  0  0  0  0  0  0  0  0  0  0  0
   18.2031   17.4255    8.5927 H   0  0  0  0  0  0  0  0  0  0  0  0
   18.2558   17.2680    6.7838 H   0  0  0  0  0  0  0  0  0  0  0  0
   20.4334   16.5450    9.9271 H   0  0  0  0  0  0  0  0  0  0  0  0
   21.1138   13.0444    9.8377 H   0  0  0  0  0  0  0  0  0  0  0  0
   19.9461   12.4536   12.0232 H   0  0  0  0  0  0  0  0  0  0  0  0
   20.4215   13.6855   14.0687 H   0  0  0  0  0  0  0  0  0  0  0  0
   25.5720   17.4133   12.9855 H   0  0  0  0  0  0  0  0  0  0  0  0
   27.2140   18.2843   14.3659 H   0  0  0  0  0  0  0  0  0  0  0  0
   25.0279   18.3912   16.5091 H   0  0  0  0  0  0  0  0  0  0  0  0
   26.2322   17.0764   16.2851 H   0  0  0  0  0  0  0  0  0  0  0  0
   26.8850   18.6972   18.0742 H   0  0  0  0  0  0  0  0  0  0  0  0
   28.0648   18.6349   16.7037 H   0  0  0  0  0  0  0  0  0  0  0  0
   26.7953   21.8081   15.2898 H   0  0  0  0  0  0  0  0  0  0  0  0
   24.1410   16.7625   11.5033 H   0  0  0  0  0  0  0  0  0  0  0  0
   22.7284   15.7507    6.3720 H   0  0  0  0  0  0  0  0  0  0  0  0
  1  2  1  0
  2  3  1  0
  3  4  2  0
  4  5  1  0
  5  6  1  0
  6  7  2  0
  6  8  2  0
  6  9  1  0
  9 10  2  0
 10 11  1  0
 11 12  2  0
 12 13  1  0
 13 14  2  0
 14 15  1  0
 15 16  1  0
 16 17  2  0
 16 18  1  0
 18 19  1  0
 19 20  1  0
 20 21  1  0
 21 22  1  0
 22 23  2  0
 22 24  1  0
 24 25  1  0
 25 26  2  0
 15 27  2  0
 27 28  1  0
  5 29  1  0
 29 30  2  0
 30  3  1  0
 28  9  1  0
 28 13  1  0
 25 19  1  0
  1 31  1  0
  1 32  1  0
  1 33  1  0
  2 34  1  0
  2 35  1  0
  4 36  1  0
 10 37  1  0
 11 38  1  0
 12 39  1  0
 18 40  1  0
 19 41  1  6
 20 42  1  0
 20 43  1  0
 21 44  1  0
 21 45  1  0
 24 46  1  0
 27 47  1  0
 29 48  1  0
M  END
>  <meeko>  (746) 
{"is_sidechain": [true], "free_energy": -10.54, "intermolecular_energy": 0.0, "internal_energy": -10.54, "cluster_size": 18, "cluster_id": 1, "rank_in_cluster": 1}

>  <_RMSD_MCS_to_ref>  (746) 
0.8716635436527865

$$$$
ligand
     RDKit          3D

 47 50  0  0  0  0  0  0  0  0999 V2000
   18.9090   19.1540    7.5370 C   0  0  0  0  0  0  0  0  0  0  0  0
   18.7730   17.6460    7.6780 C   0  0  0  0  0  0  0  0  0  0  0  0
   20.0920   16.9580    7.6350 C   0  0  0  0  0  0  0  0  0  0  0  0
   21.0390   16.8310    8.6320 C   0  0  0  0  0  0  0  0  0  0  0  0
   22.0390   16.1040    8.0510 N   0  0  0  0  0  0  0  0  0  0  0  0
   23.4920   15.6860    8.7800 S   0  0  0  0  0  6  0  0  0  0  0  0
   24.3810   16.8200    8.6340 O   0  0  0  0  0  0  0  0  0  0  0  0
   23.8170   14.3790    8.2340 O   0  0  0  0  0  0  0  0  0  0  0  0
   23.1670   15.4650   10.4910 C   0  0  0  0  0  0  0  0  0  0  0  0
   24.0790   15.9820   11.4340 C   0  0  0  0  0  0  0  0  0  0  0  0
   23.8530   15.8240   12.8130 C   0  0  0  0  0  0  0  0  0  0  0  0
   24.7990   16.3680   13.8260 C   0  0  0  0  0  0  0  0  0  0  0  0
   25.4030   15.6070   14.5740 O   0  0  0  0  0  0  0  0  0  0  0  0
   24.9720   17.7330   13.8440 N   0  0  0  0  0  0  0  0  0  0  0  0
   25.9800   18.3490   14.6990 C   0  0  2  0  0  0  0  0  0  0  0  0
   25.7710   18.0120   16.1710 C   0  0  0  0  0  0  0  0  0  0  0  0
   26.8270   18.7180   17.0070 C   0  0  0  0  0  0  0  0  0  0  0  0
   26.8150   20.2080   16.7640 C   0  0  0  0  0  0  0  0  0  0  0  0
   27.0880   21.0210   17.6410 O   0  0  0  0  0  0  0  0  0  0  0  0
   26.5140   20.6220   15.4900 N   0  0  0  0  0  0  0  0  0  0  0  0
   25.9080   19.8680   14.5170 C   0  0  0  0  0  0  0  0  0  0  0  0
   25.3550   20.3930   13.5510 O   0  0  0  0  0  0  0  0  0  0  0  0
   22.7030   15.1700   13.2840 C   0  0  0  0  0  0  0  0  0  0  0  0
   21.8370   14.6820   12.3150 C   0  0  0  0  0  0  0  0  0  0  0  0
   20.6680   14.0100   12.5180 O   0  0  0  0  0  0  0  0  0  0  0  0
   20.2110   13.7660   11.2580 C   0  0  0  0  0  0  0  0  0  0  0  0
   20.9780   14.2150   10.2880 N   0  0  0  0  0  0  0  0  0  0  0  0
   22.0250   14.8030   10.9460 C   0  0  0  0  0  0  0  0  0  0  0  0
   21.7060   15.8350    6.7630 C   0  0  0  0  0  0  0  0  0  0  0  0
   20.5200   16.3320    6.4800 N   0  0  0  0  0  0  0  0  0  0  0  0
   18.9504   19.6134    8.5356 H   0  0  0  0  0  0  0  0  0  0  0  0
   19.8320   19.3891    6.9867 H   0  0  0  0  0  0  0  0  0  0  0  0
   18.0430   19.5504    6.9867 H   0  0  0  0  0  0  0  0  0  0  0  0
   18.2874   17.4221    8.6393 H   0  0  0  0  0  0  0  0  0  0  0  0
   18.1724   17.2797    6.8323 H   0  0  0  0  0  0  0  0  0  0  0  0
   20.9976   17.2248    9.6583 H   0  0  0  0  0  0  0  0  0  0  0  0
   24.9768   16.5146   11.0873 H   0  0  0  0  0  0  0  0  0  0  0  0
   24.3814   18.3278   13.2454 H   0  0  0  0  0  0  0  0  0  0  0  0
   26.9651   17.9570   14.4059 H   0  0  0  0  0  0  0  0  0  0  0  0
   24.7710   18.3456   16.4852 H   0  0  0  0  0  0  0  0  0  0  0  0
   25.8563   16.9247   16.3141 H   0  0  0  0  0  0  0  0  0  0  0  0
   26.6273   18.5272   18.0718 H   0  0  0  0  0  0  0  0  0  0  0  0
   27.8145   18.3279   16.7196 H   0  0  0  0  0  0  0  0  0  0  0  0
   26.7668   21.5891   15.2414 H   0  0  0  0  0  0  0  0  0  0  0  0
   22.5002   15.0513   14.3586 H   0  0  0  0  0  0  0  0  0  0  0  0
   19.2687   13.2321   11.0656 H   0  0  0  0  0  0  0  0  0  0  0  0
   22.3384   15.2796    6.0548 H   0  0  0  0  0  0  0  0  0  0  0  0
  1  2  1  0
  2  3  1  0
  3  4  2  0
  4  5  1  0
  5  6  1  0
  6  7  2  0
  6  8  2  0
  6  9  1  0
  9 10  2  0
 10 11  1  0
 11 12  1  0
 12 13  2  0
 12 14  1  0
 14 15  1  0
 15 16  1  0
 16 17  1  0
 17 18  1  0
 18 19  2  0
 18 20  1  0
 20 21  1  0
 21 22  2  0
 11 23  2  0
 23 24  1  0
 24 25  1  0
 25 26  1  0
 26 27  2  0
 27 28  1  0
  5 29  1  0
 29 30  2  0
 30  3  1  0
 28  9  1  0
 21 15  1  0
 28 24  2  0
  1 31  1  0
  1 32  1  0
  1 33  1  0
  2 34  1  0
  2 35  1  0
  4 36  1  0
 10 37  1  0
 14 38  1  0
 15 39  1  6
 16 40  1  0
 16 41  1  0
 17 42  1  0
 17 43  1  0
 20 44  1  0
 23 45  1  0
 26 46  1  0
 29 47  1  0
M  END
>  <meeko>  (747) 
{"is_sidechain": [true], "free_energy": -10.54, "intermolecular_energy": 0.0, "internal_energy": -10.54, "cluster_size": 20, "cluster_id": 1, "rank_in_cluster": 1}

>  <_RMSD_MCS_to_ref>  (747) 
0.7019956473432646

$$$$
ligand
     RDKit          3D

 47 50  0  0  0  0  0  0  0  0999 V2000
   18.9090   19.1540    7.5370 C   0  0  0  0  0  0  0  0  0  0  0  0
   18.7730   17.6460    7.6780 C   0  0  0  0  0  0  0  0  0  0  0  0
   20.0410   16.9350    7.3610 C   0  0  0  0  0  0  0  0  0  0  0  0
   21.0080   16.4570    8.2250 C   0  0  0  0  0  0  0  0  0  0  0  0
   21.9320   15.8790    7.4040 N   0  0  0  0  0  0  0  0  0  0  0  0
   23.3930   15.2170    7.8860 S   0  0  0  0  0  6  0  0  0  0  0  0
   23.1600   13.7910    8.0140 O   0  0  0  0  0  0  0  0  0  0  0  0
   24.4160   15.7690    7.0210 O   0  0  0  0  0  0  0  0  0  0  0  0
   23.8310   15.7260    9.4610 C   0  0  0  0  0  0  0  0  0  0  0  0
   24.9520   16.4590    9.8100 C   0  0  0  0  0  0  0  0  0  0  0  0
   24.9120   16.6600   11.1660 N   0  0  0  0  0  0  0  0  0  0  0  0
   23.7830   16.0700   11.6820 C   0  0  0  0  0  0  0  0  0  0  0  0
   23.2790   15.9830   12.9650 C   0  0  0  0  0  0  0  0  0  0  0  0
   23.9730   16.5870   14.1300 C   0  0  0  0  0  0  0  0  0  0  0  0
   24.2360   15.9170   15.1240 O   0  0  0  0  0  0  0  0  0  0  0  0
   24.2720   17.9220   14.0000 N   0  0  0  0  0  0  0  0  0  0  0  0
   24.8100   18.7160   15.0890 C   0  0  1  0  0  0  0  0  0  0  0  0
   25.9000   17.9740   15.8540 C   0  0  0  0  0  0  0  0  0  0  0  0
   26.4370   18.8630   16.9650 C   0  0  0  0  0  0  0  0  0  0  0  0
   26.9320   20.1830   16.4210 C   0  0  0  0  0  0  0  0  0  0  0  0
   27.8800   20.7850   16.9160 O   0  0  0  0  0  0  0  0  0  0  0  0
   26.2440   20.7040   15.3540 N   0  0  0  0  0  0  0  0  0  0  0  0
   25.3910   20.0180   14.5260 C   0  0  0  0  0  0  0  0  0  0  0  0
   25.1100   20.4510   13.4090 O   0  0  0  0  0  0  0  0  0  0  0  0
   22.1160   15.3190   13.1720 N   0  0  0  0  0  0  0  0  0  0  0  0
   21.5150   14.7830   12.0950 C   0  0  0  0  0  0  0  0  0  0  0  0
   21.9300   14.8220   10.8200 N   0  0  0  0  0  0  0  0  0  0  0  0
   23.0900   15.4830   10.6340 C   0  0  0  0  0  0  0  0  0  0  0  0
   21.5500   16.0480    6.1130 C   0  0  0  0  0  0  0  0  0  0  0  0
   20.3920   16.6750    6.0510 N   0  0  0  0  0  0  0  0  0  0  0  0
   18.9504   19.6134    8.5356 H   0  0  0  0  0  0  0  0  0  0  0  0
   19.8320   19.3891    6.9867 H   0  0  0  0  0  0  0  0  0  0  0  0
   18.0430   19.5504    6.9867 H   0  0  0  0  0  0  0  0  0  0  0  0
   18.4848   17.4116    8.7134 H   0  0  0  0  0  0  0  0  0  0  0  0
   18.0085   17.3077    6.9631 H   0  0  0  0  0  0  0  0  0  0  0  0
   21.0281   16.5265    9.3226 H   0  0  0  0  0  0  0  0  0  0  0  0
   25.7339   16.8159    9.1236 H   0  0  0  0  0  0  0  0  0  0  0  0
   25.6181   17.1732   11.7127 H   0  0  0  0  0  0  0  0  0  0  0  0
   24.1073   18.3782   13.0914 H   0  0  0  0  0  0  0  0  0  0  0  0
   23.9879   18.9257   15.7891 H   0  0  0  0  0  0  0  0  0  0  0  0
   25.4808   17.0553   16.2902 H   0  0  0  0  0  0  0  0  0  0  0  0
   26.7178   17.7141   15.1658 H   0  0  0  0  0  0  0  0  0  0  0  0
   25.6333   19.0536   17.6915 H   0  0  0  0  0  0  0  0  0  0  0  0
   27.2813   18.3468   17.4452 H   0  0  0  0  0  0  0  0  0  0  0  0
   26.3808   21.7054   15.1556 H   0  0  0  0  0  0  0  0  0  0  0  0
   20.5714   14.2494   12.2817 H   0  0  0  0  0  0  0  0  0  0  0  0
   22.1264   15.7090    5.2396 H   0  0  0  0  0  0  0  0  0  0  0  0
  1  2  1  0
  2  3  1  0
  3  4  2  0
  4  5  1  0
  5  6  1  0
  6  7  2  0
  6  8  2  0
  6  9  1  0
  9 10  2  0
 10 11  1  0
 11 12  1  0
 12 13  2  0
 13 14  1  0
 14 15  2  0
 14 16  1  0
 16 17  1  0
 17 18  1  0
 18 19  1  0
 19 20  1  0
 20 21  2  0
 20 22  1  0
 22 23  1  0
 23 24  2  0
 13 25  1  0
 25 26  2  0
 26 27  1  0
 27 28  2  0
  5 29  1  0
 29 30  2  0
 30  3  1  0
 28  9  1  0
 28 12  1  0
 23 17  1  0
  1 31  1  0
  1 32  1  0
  1 33  1  0
  2 34  1  0
  2 35  1  0
  4 36  1  0
 10 37  1  0
 11 38  1  0
 16 39  1  0
 17 40  1  1
 18 41  1  0
 18 42  1  0
 19 43  1  0
 19 44  1  0
 22 45  1  0
 26 46  1  0
 29 47  1  0
M  END
>  <meeko>  (748) 
{"is_sidechain": [true], "free_energy": -10.54, "intermolecular_energy": 0.0, "internal_energy": -10.54, "cluster_size": 7, "cluster_id": 1, "rank_in_cluster": 1}

>  <_RMSD_MCS_to_ref>  (748) 
0.48384673881991475

$$$$
ligand
     RDKit          3D

 47 50  0  0  0  0  0  0  0  0999 V2000
   18.9090   19.1540    7.5370 C   0  0  0  0  0  0  0  0  0  0  0  0
   18.7730   17.6460    7.6780 C   0  0  0  0  0  0  0  0  0  0  0  0
   20.0620   16.9410    7.4390 C   0  0  0  0  0  0  0  0  0  0  0  0
   20.5590   15.8070    8.0510 C   0  0  0  0  0  0  0  0  0  0  0  0
   21.7610   15.5950    7.4370 N   0  0  0  0  0  0  0  0  0  0  0  0
   22.9460   14.5100    7.9620 S   0  0  0  0  0  6  0  0  0  0  0  0
   22.1840   13.4320    8.5670 O   0  0  0  0  0  0  0  0  0  0  0  0
   23.7520   14.2580    6.7830 O   0  0  0  0  0  0  0  0  0  0  0  0
   23.8700   15.3430    9.1580 C   0  0  0  0  0  0  0  0  0  0  0  0
   25.0750   15.8450    8.8120 C   0  0  0  0  0  0  0  0  0  0  0  0
   25.9240   16.4990    9.6910 N   0  0  0  0  0  0  0  0  0  0  0  0
   25.5400   16.6450   10.9300 C   0  0  0  0  0  0  0  0  0  0  0  0
   24.2730   16.1410   11.3710 C   0  0  0  0  0  0  0  0  0  0  0  0
   23.6160   16.1300   12.5800 C   0  0  0  0  0  0  0  0  0  0  0  0
   24.0820   16.6760   13.8530 C   0  0  0  0  0  0  0  0  0  0  0  0
   23.8480   16.1490   14.9350 O   0  0  0  0  0  0  0  0  0  0  0  0
   24.8010   17.8410   13.6990 N   0  0  0  0  0  0  0  0  0  0  0  0
   25.0460   18.7130   14.8330 C   0  0  1  0  0  0  0  0  0  0  0  0
   25.9610   18.0400   15.8470 C   0  0  0  0  0  0  0  0  0  0  0  0
   26.1980   18.9790   17.0190 C   0  0  0  0  0  0  0  0  0  0  0  0
   26.7520   20.3060   16.5550 C   0  0  0  0  0  0  0  0  0  0  0  0
   27.5550   20.9520   17.2210 O   0  0  0  0  0  0  0  0  0  0  0  0
   26.2920   20.7750   15.3510 N   0  0  0  0  0  0  0  0  0  0  0  0
   25.7010   20.0220   14.3640 C   0  0  0  0  0  0  0  0  0  0  0  0
   25.7080   20.4050   13.1960 O   0  0  0  0  0  0  0  0  0  0  0  0
   22.3940   15.4890   12.4350 N   0  0  0  0  0  0  0  0  0  0  0  0
   22.3270   15.1400   11.1670 C   0  0  0  0  0  0  0  0  0  0  0  0
   23.4520   15.4990   10.4690 N   0  0  0  0  0  0  0  0  0  0  0  0
   21.9850   16.5890    6.5410 C   0  0  0  0  0  0  0  0  0  0  0  0
   20.9640   17.4200    6.5100 N   0  0  0  0  0  0  0  0  0  0  0  0
   18.9504   19.6134    8.5356 H   0  0  0  0  0  0  0  0  0  0  0  0
   19.8320   19.3891    6.9867 H   0  0  0  0  0  0  0  0  0  0  0  0
   18.0430   19.5504    6.9867 H   0  0  0  0  0  0  0  0  0  0  0  0
   18.4263   17.4151    8.6961 H   0  0  0  0  0  0  0  0  0  0  0  0
   18.0530   17.2995    6.9220 H   0  0  0  0  0  0  0  0  0  0  0  0
   20.0936   15.2110    8.8499 H   0  0  0  0  0  0  0  0  0  0  0  0
   25.4028   15.7277    7.7686 H   0  0  0  0  0  0  0  0  0  0  0  0
   26.1974   17.1616   11.6448 H   0  0  0  0  0  0  0  0  0  0  0  0
   25.1679   18.0954   12.7708 H   0  0  0  0  0  0  0  0  0  0  0  0
   24.0774   18.9288   15.3076 H   0  0  0  0  0  0  0  0  0  0  0  0
   25.4893   17.1144   16.2086 H   0  0  0  0  0  0  0  0  0  0  0  0
   26.9226   17.7999   15.3698 H   0  0  0  0  0  0  0  0  0  0  0  0
   25.2441   19.1509   17.5391 H   0  0  0  0  0  0  0  0  0  0  0  0
   26.9308   18.5136   17.6945 H   0  0  0  0  0  0  0  0  0  0  0  0
   26.3990   21.7832   15.1697 H   0  0  0  0  0  0  0  0  0  0  0  0
   21.4674   14.6201   10.7189 H   0  0  0  0  0  0  0  0  0  0  0  0
   22.8922   16.6869    5.9267 H   0  0  0  0  0  0  0  0  0  0  0  0
  1  2  1  0
  2  3  1  0
  3  4  2  0
  4  5  1  0
  5  6  1  0
  6  7  2  0
  6  8  2  0
  6  9  1  0
  9 10  2  0
 10 11  1  0
 11 12  2  0
 12 13  1  0
 13 14  2  0
 14 15  1  0
 15 16  2  0
 15 17  1  0
 17 18  1  0
 18 19  1  0
 19 20  1  0
 20 21  1  0
 21 22  2  0
 21 23  1  0
 23 24  1  0
 24 25  2  0
 14 26  1  0
 26 27  2  0
 27 28  1  0
  5 29  1  0
 29 30  2  0
 30  3  1  0
 28  9  1  0
 28 13  1  0
 24 18  1  0
  1 31  1  0
  1 32  1  0
  1 33  1  0
  2 34  1  0
  2 35  1  0
  4 36  1  0
 10 37  1  0
 12 38  1  0
 17 39  1  0
 18 40  1  1
 19 41  1  0
 19 42  1  0
 20 43  1  0
 20 44  1  0
 23 45  1  0
 27 46  1  0
 29 47  1  0
M  END
>  <meeko>  (749) 
{"is_sidechain": [true], "free_energy": -10.54, "intermolecular_energy": 0.0, "internal_energy": -10.54, "cluster_size": 20, "cluster_id": 1, "rank_in_cluster": 1}

>  <_RMSD_MCS_to_ref>  (749) 
0.5529853323351148

$$$$
ligand
     RDKit          3D

 51 55  0  0  0  0  0  0  0  0999 V2000
   18.9090   19.1540    7.5370 C   0  0  0  0  0  0  0  0  0  0  0  0
   18.7730   17.6460    7.6780 C   0  0  0  0  0  0  0  0  0  0  0  0
   19.9470   16.9210    7.1210 C   0  0  0  0  0  0  0  0  0  0  0  0
   21.2530   16.9060    7.5710 C   0  0  0  0  0  0  0  0  0  0  0  0
   21.9060   16.1070    6.6770 N   0  0  0  0  0  0  0  0  0  0  0  0
   23.4840   15.5500    6.8280 S   0  0  0  0  0  6  0  0  0  0  0  0
   23.5320   14.2870    6.1190 O   0  0  0  0  0  0  0  0  0  0  0  0
   24.3310   16.6730    6.4730 O   0  0  0  0  0  0  0  0  0  0  0  0
   23.6520   15.2360    8.5620 C   0  0  0  0  0  0  0  0  0  0  0  0
   23.6970   13.9150    9.0290 C   0  0  0  0  0  0  0  0  0  0  0  0
   23.8240   13.6690   10.3960 C   0  0  0  0  0  0  0  0  0  0  0  0
   23.8980   14.7550   11.2720 C   0  0  0  0  0  0  0  0  0  0  0  0
   23.8420   16.0850   10.8180 C   0  0  0  0  0  0  0  0  0  0  0  0
   23.7120   16.3160    9.4500 C   0  0  0  0  0  0  0  0  0  0  0  0
   23.9100   17.2000   11.6800 N   0  0  0  0  0  0  0  0  0  0  0  0
   24.0340   17.0340   12.9710 C   0  0  0  0  0  0  0  0  0  0  0  0
   24.0990   18.1290   13.8000 N   0  0  0  0  0  0  0  0  0  0  0  0
   25.3500   18.5700   14.4140 C   0  0  2  0  0  0  0  0  0  0  0  0
   25.4300   18.0930   15.8600 C   0  0  0  0  0  0  0  0  0  0  0  0
   26.7060   18.6150   16.5010 C   0  0  0  0  0  0  0  0  0  0  0  0
   26.7830   20.1210   16.4180 C   0  0  0  0  0  0  0  0  0  0  0  0
   27.3340   20.8010   17.2780 O   0  0  0  0  0  0  0  0  0  0  0  0
   26.2350   20.7020   15.3030 N   0  0  0  0  0  0  0  0  0  0  0  0
   25.3990   20.1040   14.3940 C   0  0  0  0  0  0  0  0  0  0  0  0
   24.7320   20.7750   13.6060 O   0  0  0  0  0  0  0  0  0  0  0  0
   24.0990   15.6920   13.4890 C   0  0  0  0  0  0  0  0  0  0  0  0
   24.2370   15.1660   14.7540 C   0  0  0  0  0  0  0  0  0  0  0  0
   24.2420   13.7920   14.7140 N   0  0  0  0  0  0  0  0  0  0  0  0
   24.1160   13.4860   13.4390 C   0  0  0  0  0  0  0  0  0  0  0  0
   24.0300   14.6050   12.6580 N   0  0  0  0  0  0  0  0  0  0  0  0
   21.0140   15.6300    5.7710 C   0  0  0  0  0  0  0  0  0  0  0  0
   19.8130   16.1150    6.0070 N   0  0  0  0  0  0  0  0  0  0  0  0
   18.9504   19.6134    8.5356 H   0  0  0  0  0  0  0  0  0  0  0  0
   19.8320   19.3891    6.9867 H   0  0  0  0  0  0  0  0  0  0  0  0
   18.0430   19.5504    6.9867 H   0  0  0  0  0  0  0  0  0  0  0  0
   18.6768   17.3973    8.7452 H   0  0  0  0  0  0  0  0  0  0  0  0
   17.8833   17.3329    7.1120 H   0  0  0  0  0  0  0  0  0  0  0  0
   21.6712   17.4202    8.4489 H   0  0  0  0  0  0  0  0  0  0  0  0
   23.6324   13.0761    8.3204 H   0  0  0  0  0  0  0  0  0  0  0  0
   23.8652   12.6382   10.7777 H   0  0  0  0  0  0  0  0  0  0  0  0
   23.6566   17.3462    9.0684 H   0  0  0  0  0  0  0  0  0  0  0  0
   23.2363   18.6568   13.9951 H   0  0  0  0  0  0  0  0  0  0  0  0
   26.1949   18.1485   13.8497 H   0  0  0  0  0  0  0  0  0  0  0  0
   24.5599   18.4693   16.4180 H   0  0  0  0  0  0  0  0  0  0  0  0
   25.4346   16.9932   15.8815 H   0  0  0  0  0  0  0  0  0  0  0  0
   26.7259   18.3125   17.5584 H   0  0  0  0  0  0  0  0  0  0  0  0
   27.5654   18.1922   15.9601 H   0  0  0  0  0  0  0  0  0  0  0  0
   26.4757   21.6885   15.1303 H   0  0  0  0  0  0  0  0  0  0  0  0
   24.3306   15.7643   15.6723 H   0  0  0  0  0  0  0  0  0  0  0  0
   24.0839   12.4574   13.0506 H   0  0  0  0  0  0  0  0  0  0  0  0
   21.2604   14.9356    4.9542 H   0  0  0  0  0  0  0  0  0  0  0  0
  1  2  1  0
  2  3  1  0
  3  4  2  0
  4  5  1  0
  5  6  1  0
  6  7  2  0
  6  8  2  0
  6  9  1  0
  9 10  2  0
 10 11  1  0
 11 12  2  0
 12 13  1  0
 13 14  2  0
 13 15  1  0
 15 16  2  0
 16 17  1  0
 17 18  1  0
 18 19  1  0
 19 20  1  0
 20 21  1  0
 21 22  2  0
 21 23  1  0
 23 24  1  0
 24 25  2  0
 16 26  1  0
 26 27  2  0
 27 28  1  0
 28 29  2  0
 29 30  1  0
  5 31  1  0
 31 32  2  0
 32  3  1  0
 14  9  1  0
 24 18  1  0
 30 26  1  0
 30 12  1  0
  1 33  1  0
  1 34  1  0
  1 35  1  0
  2 36  1  0
  2 37  1  0
  4 38  1  0
 10 39  1  0
 11 40  1  0
 14 41  1  0
 17 42  1  0
 18 43  1  6
 19 44  1  0
 19 45  1  0
 20 46  1  0
 20 47  1  0
 23 48  1  0
 27 49  1  0
 29 50  1  0
 31 51  1  0
M  END
>  <meeko>  (750) 
{"is_sidechain": [true], "free_energy": -10.54, "intermolecular_energy": 0.0, "internal_energy": -10.54, "cluster_size": 20, "cluster_id": 1, "rank_in_cluster": 1}

>  <_RMSD_MCS_to_ref>  (750) 
0.5574669895558347

$$$$
ligand
     RDKit          3D

 55 59  0  0  0  0  0  0  0  0999 V2000
   18.9090   19.1540    7.5370 C   0  0  0  0  0  0  0  0  0  0  0  0
   18.7730   17.6460    7.6780 C   0  0  0  0  0  0  0  0  0  0  0  0
   20.0670   16.9430    7.4570 C   0  0  0  0  0  0  0  0  0  0  0  0
   20.5800   15.8420    8.1140 C   0  0  0  0  0  0  0  0  0  0  0  0
   21.7780   15.6150    7.5020 N   0  0  0  0  0  0  0  0  0  0  0  0
   22.9700   14.5550    8.0310 S   0  0  0  0  0  6  0  0  0  0  0  0
   24.1450   14.8640    7.2400 O   0  0  0  0  0  0  0  0  0  0  0  0
   22.3630   13.2390    8.0440 O   0  0  0  0  0  0  0  0  0  0  0  0
   23.2600   15.0580    9.7060 C   0  0  0  0  0  0  0  0  0  0  0  0
   24.3780   15.8420    9.9940 C   0  0  0  0  0  0  0  0  0  0  0  0
   24.5560   16.2010   11.3150 C   0  0  0  0  0  0  0  0  0  0  0  0
   23.6720   15.8340   12.3330 C   0  0  0  0  0  0  0  0  0  0  0  0
   22.5420   15.0700   12.0550 C   0  0  0  0  0  0  0  0  0  0  0  0
   21.5900   14.6880   13.0960 C   0  0  0  0  0  0  0  0  0  0  0  0
   21.9800   14.5680   14.4350 C   0  0  0  0  0  0  0  0  0  0  0  0
   21.0490   14.1960   15.4040 C   0  0  0  0  0  0  0  0  0  0  0  0
   19.7460   13.9520   15.0020 C   0  0  0  0  0  0  0  0  0  0  0  0
   19.3280   14.0530   13.7240 N   0  0  0  0  0  0  0  0  0  0  0  0
   20.2530   14.4220   12.8070 C   0  0  0  0  0  0  0  0  0  0  0  0
   22.3470   14.6820   10.7150 C   0  0  0  0  0  0  0  0  0  0  0  0
   24.1500   16.3940   13.6370 C   0  0  0  0  0  0  0  0  0  0  0  0
   25.4120   17.0260   13.2730 N   0  0  0  0  0  0  0  0  0  0  0  0
   26.1320   17.9420   14.1500 C   0  0  2  0  0  0  0  0  0  0  0  0
   25.8580   17.6740   15.6270 C   0  0  0  0  0  0  0  0  0  0  0  0
   26.7060   18.6110   16.4750 C   0  0  0  0  0  0  0  0  0  0  0  0
   26.4580   20.0550   16.1050 C   0  0  0  0  0  0  0  0  0  0  0  0
   26.4580   20.9560   16.9370 O   0  0  0  0  0  0  0  0  0  0  0  0
   26.2470   20.3210   14.7760 N   0  0  0  0  0  0  0  0  0  0  0  0
   25.8050   19.4130   13.8400 C   0  0  0  0  0  0  0  0  0  0  0  0
   25.1840   19.7920   12.8490 O   0  0  0  0  0  0  0  0  0  0  0  0
   25.6350   16.9970   11.9060 C   0  0  0  0  0  0  0  0  0  0  0  0
   26.5380   17.5150   11.2770 O   0  0  0  0  0  0  0  0  0  0  0  0
   21.9820   16.5670    6.5540 C   0  0  0  0  0  0  0  0  0  0  0  0
   20.9540   17.3870    6.4970 N   0  0  0  0  0  0  0  0  0  0  0  0
   18.9504   19.6134    8.5356 H   0  0  0  0  0  0  0  0  0  0  0  0
   19.8320   19.3891    6.9867 H   0  0  0  0  0  0  0  0  0  0  0  0
   18.0430   19.5504    6.9867 H   0  0  0  0  0  0  0  0  0  0  0  0
   18.4130   17.4157    8.6916 H   0  0  0  0  0  0  0  0  0  0  0  0
   18.0635   17.2972    6.9132 H   0  0  0  0  0  0  0  0  0  0  0  0
   20.1263   15.2771    8.9417 H   0  0  0  0  0  0  0  0  0  0  0  0
   25.0810   16.1576    9.2090 H   0  0  0  0  0  0  0  0  0  0  0  0
   23.0227   14.7675   14.7232 H   0  0  0  0  0  0  0  0  0  0  0  0
   21.3415   14.0988   16.4599 H   0  0  0  0  0  0  0  0  0  0  0  0
   19.0120   13.6598   15.7674 H   0  0  0  0  0  0  0  0  0  0  0  0
   19.9265   14.5186   11.7610 H   0  0  0  0  0  0  0  0  0  0  0  0
   21.4682   14.0756   10.4502 H   0  0  0  0  0  0  0  0  0  0  0  0
   23.4382   17.1314   14.0364 H   0  0  0  0  0  0  0  0  0  0  0  0
   24.2546   15.6341   14.4254 H   0  0  0  0  0  0  0  0  0  0  0  0
   27.1983   17.7586   13.9513 H   0  0  0  0  0  0  0  0  0  0  0  0
   24.7930   17.8481   15.8405 H   0  0  0  0  0  0  0  0  0  0  0  0
   26.1122   16.6306   15.8651 H   0  0  0  0  0  0  0  0  0  0  0  0
   26.4532   18.4635   17.5353 H   0  0  0  0  0  0  0  0  0  0  0  0
   27.7666   18.3816   16.2945 H   0  0  0  0  0  0  0  0  0  0  0  0
   26.4349   21.2802   14.4510 H   0  0  0  0  0  0  0  0  0  0  0  0
   22.8799   16.6418    5.9230 H   0  0  0  0  0  0  0  0  0  0  0  0
  1  2  1  0
  2  3  1  0
  3  4  2  0
  4  5  1  0
  5  6  1  0
  6  7  2  0
  6  8  2  0
  6  9  1  0
  9 10  2  0
 10 11  1  0
 11 12  2  0
 12 13  1  0
 13 14  1  0
 14 15  2  0
 15 16  1  0
 16 17  2  0
 17 18  1  0
 18 19  2  0
 13 20  2  0
 12 21  1  0
 21 22  1  0
 22 23  1  0
 23 24  1  0
 24 25  1  0
 25 26  1  0
 26 27  2  0
 26 28  1  0
 28 29  1  0
 29 30  2  0
 22 31  1  0
 31 32  2  0
  5 33  1  0
 33 34  2  0
 34  3  1  0
 20  9  1  0
 29 23  1  0
 31 11  1  0
 19 14  1  0
  1 35  1  0
  1 36  1  0
  1 37  1  0
  2 38  1  0
  2 39  1  0
  4 40  1  0
 10 41  1  0
 15 42  1  0
 16 43  1  0
 17 44  1  0
 19 45  1  0
 20 46  1  0
 21 47  1  0
 21 48  1  0
 23 49  1  1
 24 50  1  0
 24 51  1  0
 25 52  1  0
 25 53  1  0
 28 54  1  0
 33 55  1  0
M  END
>  <meeko>  (751) 
{"is_sidechain": [true], "free_energy": -10.54, "intermolecular_energy": 0.0, "internal_energy": -10.54, "cluster_size": 13, "cluster_id": 1, "rank_in_cluster": 1}

>  <_RMSD_MCS_to_ref>  (751) 
1.9858259966293341

$$$$
ligand
     RDKit          3D

 54 58  0  0  0  0  0  0  0  0999 V2000
   18.9090   19.1540    7.5370 C   0  0  0  0  0  0  0  0  0  0  0  0
   18.7730   17.6460    7.6780 C   0  0  0  0  0  0  0  0  0  0  0  0
   20.0880   16.9560    7.5970 C   0  0  0  0  0  0  0  0  0  0  0  0
   20.6480   16.0480    8.4720 C   0  0  0  0  0  0  0  0  0  0  0  0
   21.8590   15.7460    7.9140 N   0  0  0  0  0  0  0  0  0  0  0  0
   22.9880   14.6850    8.5550 S   0  0  0  0  0  6  0  0  0  0  0  0
   22.2040   13.8820    9.4780 O   0  0  0  0  0  0  0  0  0  0  0  0
   23.7010   14.0850    7.4500 O   0  0  0  0  0  0  0  0  0  0  0  0
   24.1340   15.6490    9.5300 C   0  0  0  0  0  0  0  0  0  0  0  0
   23.6730   16.0180   10.8090 C   0  0  0  0  0  0  0  0  0  0  0  0
   24.5050   16.7870   11.5960 C   0  0  0  0  0  0  0  0  0  0  0  0
   25.7590   17.2020   11.1760 C   0  0  0  0  0  0  0  0  0  0  0  0
   26.2250   16.8450    9.9220 C   0  0  0  0  0  0  0  0  0  0  0  0
   25.4180   16.0530    9.0660 C   0  0  0  0  0  0  0  0  0  0  0  0
   25.9840   15.6730    7.7700 C   0  0  0  0  0  0  0  0  0  0  0  0
   26.8830   14.6230    7.6150 C   0  0  0  0  0  0  0  0  0  0  0  0
   27.3720   14.3420    6.3450 C   0  0  0  0  0  0  0  0  0  0  0  0
   26.9290   15.1170    5.2920 C   0  0  0  0  0  0  0  0  0  0  0  0
   26.0430   16.1170    5.4590 N   0  0  0  0  0  0  0  0  0  0  0  0
   25.5680   16.3960    6.7100 N   0  0  0  0  0  0  0  0  0  0  0  0
   26.4080   18.0240   12.2390 C   0  0  0  0  0  0  0  0  0  0  0  0
   25.4440   17.9580   13.3270 N   0  0  0  0  0  0  0  0  0  0  0  0
   25.5570   18.8300   14.4920 C   0  0  2  0  0  0  0  0  0  0  0  0
   26.3630   20.1030   14.2390 C   0  0  0  0  0  0  0  0  0  0  0  0
   26.3620   20.9580   15.4970 C   0  0  0  0  0  0  0  0  0  0  0  0
   26.9030   20.1910   16.6810 C   0  0  0  0  0  0  0  0  0  0  0  0
   27.3770   20.7540   17.6640 O   0  0  0  0  0  0  0  0  0  0  0  0
   26.7610   18.8270   16.6500 N   0  0  0  0  0  0  0  0  0  0  0  0
   26.1240   18.0650   15.6980 C   0  0  0  0  0  0  0  0  0  0  0  0
   25.9440   16.8610   15.8820 O   0  0  0  0  0  0  0  0  0  0  0  0
   24.2750   17.3180   12.9440 C   0  0  0  0  0  0  0  0  0  0  0  0
   23.2280   17.2170   13.5530 O   0  0  0  0  0  0  0  0  0  0  0  0
   21.9900   16.4200    6.7440 C   0  0  0  0  0  0  0  0  0  0  0  0
   20.9390   17.1880    6.5340 N   0  0  0  0  0  0  0  0  0  0  0  0
   18.9504   19.6134    8.5356 H   0  0  0  0  0  0  0  0  0  0  0  0
   19.8320   19.3891    6.9867 H   0  0  0  0  0  0  0  0  0  0  0  0
   18.0430   19.5504    6.9867 H   0  0  0  0  0  0  0  0  0  0  0  0
   18.3136   17.4207    8.6517 H   0  0  0  0  0  0  0  0  0  0  0  0
   18.1482   17.2831    6.8486 H   0  0  0  0  0  0  0  0  0  0  0  0
   20.2181   15.6564    9.4057 H   0  0  0  0  0  0  0  0  0  0  0  0
   22.6821   15.7033   11.1683 H   0  0  0  0  0  0  0  0  0  0  0  0
   27.2203   17.1754    9.5900 H   0  0  0  0  0  0  0  0  0  0  0  0
   27.2012   14.0258    8.4822 H   0  0  0  0  0  0  0  0  0  0  0  0
   28.0913   13.5256    6.1834 H   0  0  0  0  0  0  0  0  0  0  0  0
   27.3129   14.9105    4.2821 H   0  0  0  0  0  0  0  0  0  0  0  0
   27.3747   17.5933   12.5388 H   0  0  0  0  0  0  0  0  0  0  0  0
   26.6353   19.0515   11.9187 H   0  0  0  0  0  0  0  0  0  0  0  0
   24.5313   19.1582   14.7161 H   0  0  0  0  0  0  0  0  0  0  0  0
   27.3975   19.8367   13.9767 H   0  0  0  0  0  0  0  0  0  0  0  0
   25.9100   20.6669   13.4103 H   0  0  0  0  0  0  0  0  0  0  0  0
   26.9894   21.8456   15.3278 H   0  0  0  0  0  0  0  0  0  0  0  0
   25.3250   21.2514   15.7172 H   0  0  0  0  0  0  0  0  0  0  0  0
   27.1826   18.3104   17.4350 H   0  0  0  0  0  0  0  0  0  0  0  0
   22.8520   16.3374    6.0657 H   0  0  0  0  0  0  0  0  0  0  0  0
  1  2  1  0
  2  3  1  0
  3  4  2  0
  4  5  1  0
  5  6  1  0
  6  7  2  0
  6  8  2  0
  6  9  1  0
  9 10  2  0
 10 11  1  0
 11 12  2  0
 12 13  1  0
 13 14  2  0
 14 15  1  0
 15 16  2  0
 16 17  1  0
 17 18  2  0
 18 19  1  0
 19 20  2  0
 12 21  1  0
 21 22  1  0
 22 23  1  0
 23 24  1  0
 24 25  1  0
 25 26  1  0
 26 27  2  0
 26 28  1  0
 28 29  1  0
 29 30  2  0
 22 31  1  0
 31 32  2  0
  5 33  1  0
 33 34  2  0
 34  3  1  0
 14  9  1  0
 20 15  1  0
 29 23  1  0
 31 11  1  0
  1 35  1  0
  1 36  1  0
  1 37  1  0
  2 38  1  0
  2 39  1  0
  4 40  1  0
 10 41  1  0
 13 42  1  0
 16 43  1  0
 17 44  1  0
 18 45  1  0
 21 46  1  0
 21 47  1  0
 23 48  1  1
 24 49  1  0
 24 50  1  0
 25 51  1  0
 25 52  1  0
 28 53  1  0
 33 54  1  0
M  END
>  <meeko>  (752) 
{"is_sidechain": [true], "free_energy": -10.54, "intermolecular_energy": 0.0, "internal_energy": -10.54, "cluster_size": 15, "cluster_id": 2, "rank_in_cluster": 1}

>  <_RMSD_MCS_to_ref>  (752) 
1.7692023312467362

$$$$
ligand
     RDKit          3D

 54 58  0  0  0  0  0  0  0  0999 V2000
   18.7970   18.8170    7.7190 C   0  0  0  0  0  0  0  0  0  0  0  0
   18.5280   17.3290    7.8810 C   0  0  0  0  0  0  0  0  0  0  0  0
   19.7580   16.5130    7.6960 C   0  0  0  0  0  0  0  0  0  0  0  0
   20.9470   16.5610    8.3980 C   0  0  0  0  0  0  0  0  0  0  0  0
   21.7280   15.6120    7.8010 N   0  0  0  0  0  0  0  0  0  0  0  0
   23.2630   15.1320    8.2900 S   0  0  0  0  0  6  0  0  0  0  0  0
   24.0630   15.1620    7.0790 O   0  0  0  0  0  0  0  0  0  0  0  0
   23.5690   15.9580    9.4460 O   0  0  0  0  0  0  0  0  0  0  0  0
   23.0870   13.4620    8.8190 C   0  0  0  0  0  0  0  0  0  0  0  0
   22.9120   12.5560    7.8120 N   0  0  0  0  0  0  0  0  0  0  0  0
   22.8310   11.2690    8.2100 C   0  0  0  0  0  0  0  0  0  0  0  0
   22.9260   10.9030    9.5400 C   0  0  0  0  0  0  0  0  0  0  0  0
   23.1020   11.8110   10.5300 N   0  0  0  0  0  0  0  0  0  0  0  0
   23.1780   13.1210   10.1630 C   0  0  0  0  0  0  0  0  0  0  0  0
   23.3680   14.0540   11.2800 C   0  0  0  0  0  0  0  0  0  0  0  0
   22.2400   14.5480   11.9840 C   0  0  0  0  0  0  0  0  0  0  0  0
   22.3760   15.4360   13.0550 C   0  0  0  0  0  0  0  0  0  0  0  0
   23.6560   15.8170   13.4020 C   0  0  0  0  0  0  0  0  0  0  0  0
   24.7830   15.3660   12.7230 C   0  0  0  0  0  0  0  0  0  0  0  0
   24.6550   14.4940   11.6530 C   0  0  0  0  0  0  0  0  0  0  0  0
   26.0090   15.9760   13.3120 C   0  0  0  0  0  0  0  0  0  0  0  0
   25.4830   16.7190   14.4490 N   0  0  0  0  0  0  0  0  0  0  0  0
   26.3200   17.6480   15.2000 C   0  0  2  0  0  0  0  0  0  0  0  0
   25.9700   17.7310   16.6850 C   0  0  0  0  0  0  0  0  0  0  0  0
   26.9380   18.6770   17.3780 C   0  0  0  0  0  0  0  0  0  0  0  0
   26.9250   20.0440   16.7360 C   0  0  0  0  0  0  0  0  0  0  0  0
   27.2810   21.0540   17.3370 O   0  0  0  0  0  0  0  0  0  0  0  0
   26.5750   20.0980   15.4100 N   0  0  0  0  0  0  0  0  0  0  0  0
   26.3070   19.0470   14.5620 C   0  0  0  0  0  0  0  0  0  0  0  0
   26.1770   19.2420   13.3550 O   0  0  0  0  0  0  0  0  0  0  0  0
   24.0960   16.7260   14.4660 C   0  0  0  0  0  0  0  0  0  0  0  0
   23.3500   17.3580   15.1880 O   0  0  0  0  0  0  0  0  0  0  0  0
   21.0160   15.0060    6.8160 C   0  0  0  0  0  0  0  0  0  0  0  0
   19.8150   15.5400    6.7170 N   0  0  0  0  0  0  0  0  0  0  0  0
   18.8815   19.2845    8.7111 H   0  0  0  0  0  0  0  0  0  0  0  0
   19.7359   18.9616    7.1643 H   0  0  0  0  0  0  0  0  0  0  0  0
   17.9682   19.2812    7.1643 H   0  0  0  0  0  0  0  0  0  0  0  0
   18.1315   17.1484    8.8910 H   0  0  0  0  0  0  0  0  0  0  0  0
   17.8046   17.0301    7.1081 H   0  0  0  0  0  0  0  0  0  0  0  0
   21.2058   17.2142    9.2444 H   0  0  0  0  0  0  0  0  0  0  0  0
   22.6846   10.4857    7.4517 H   0  0  0  0  0  0  0  0  0  0  0  0
   22.8562    9.8373    9.8035 H   0  0  0  0  0  0  0  0  0  0  0  0
   21.2337   14.2244   11.6797 H   0  0  0  0  0  0  0  0  0  0  0  0
   21.4985   15.8155   13.5989 H   0  0  0  0  0  0  0  0  0  0  0  0
   25.5437   14.1505   11.1032 H   0  0  0  0  0  0  0  0  0  0  0  0
   26.7194   15.2022   13.6383 H   0  0  0  0  0  0  0  0  0  0  0  0
   26.5685   16.6030   12.6022 H   0  0  0  0  0  0  0  0  0  0  0  0
   27.3390   17.2370   15.1471 H   0  0  0  0  0  0  0  0  0  0  0  0
   24.9428   18.1075   16.7998 H   0  0  0  0  0  0  0  0  0  0  0  0
   26.0448   16.7311   17.1374 H   0  0  0  0  0  0  0  0  0  0  0  0
   26.6485   18.7748   18.4347 H   0  0  0  0  0  0  0  0  0  0  0  0
   27.9526   18.2616   17.2888 H   0  0  0  0  0  0  0  0  0  0  0  0
   26.5042   21.0398   14.9991 H   0  0  0  0  0  0  0  0  0  0  0  0
   21.3897   14.1838    6.1881 H   0  0  0  0  0  0  0  0  0  0  0  0
  1  2  1  0
  2  3  1  0
  3  4  2  0
  4  5  1  0
  5  6  1  0
  6  7  2  0
  6  8  2  0
  6  9  1  0
  9 10  2  0
 10 11  1  0
 11 12  2  0
 12 13  1  0
 13 14  2  0
 14 15  1  0
 15 16  2  0
 16 17  1  0
 17 18  2  0
 18 19  1  0
 19 20  2  0
 19 21  1  0
 21 22  1  0
 22 23  1  0
 23 24  1  0
 24 25  1  0
 25 26  1  0
 26 27  2  0
 26 28  1  0
 28 29  1  0
 29 30  2  0
 22 31  1  0
 31 32  2  0
  5 33  1  0
 33 34  2  0
 34  3  1  0
 14  9  1  0
 20 15  1  0
 29 23  1  0
 31 18  1  0
  1 35  1  0
  1 36  1  0
  1 37  1  0
  2 38  1  0
  2 39  1  0
  4 40  1  0
 11 41  1  0
 12 42  1  0
 16 43  1  0
 17 44  1  0
 20 45  1  0
 21 46  1  0
 21 47  1  0
 23 48  1  1
 24 49  1  0
 24 50  1  0
 25 51  1  0
 25 52  1  0
 28 53  1  0
 33 54  1  0
M  END
>  <meeko>  (753) 
{"is_sidechain": [true], "free_energy": -10.53, "intermolecular_energy": 0.0, "internal_energy": -10.53, "cluster_size": 20, "cluster_id": 1, "rank_in_cluster": 1}

>  <_RMSD_MCS_to_ref>  (753) 
1.2491974979517404

$$$$
ligand
     RDKit          3D

 48 51  0  0  0  0  0  0  0  0999 V2000
   18.9090   19.1540    7.5370 C   0  0  0  0  0  0  0  0  0  0  0  0
   18.7730   17.6460    7.6780 C   0  0  0  0  0  0  0  0  0  0  0  0
   20.0700   16.9410    7.8820 C   0  0  0  0  0  0  0  0  0  0  0  0
   20.5700   16.3320    9.0180 C   0  0  0  0  0  0  0  0  0  0  0  0
   21.7990   15.8680    8.6430 N   0  0  0  0  0  0  0  0  0  0  0  0
   22.7700   14.8180    9.5470 S   0  0  0  0  0  6  0  0  0  0  0  0
   23.9320   15.6280    9.8800 O   0  0  0  0  0  0  0  0  0  0  0  0
   22.9230   13.6440    8.7030 O   0  0  0  0  0  0  0  0  0  0  0  0
   21.9500   14.3730   11.0100 C   0  0  0  0  0  0  0  0  0  0  0  0
   21.0450   13.3700   10.9760 C   0  0  0  0  0  0  0  0  0  0  0  0
   20.3190   12.9670   12.1740 C   0  0  0  0  0  0  0  0  0  0  0  0
   20.5550   13.6130   13.3300 C   0  0  0  0  0  0  0  0  0  0  0  0
   21.4850   14.6490   13.3490 N   0  0  0  0  0  0  0  0  0  0  0  0
   21.8950   15.4400   14.3920 C   0  0  0  0  0  0  0  0  0  0  0  0
   22.8400   16.3000   13.8680 C   0  0  0  0  0  0  0  0  0  0  0  0
   23.6040   17.3320   14.5680 C   0  0  0  0  0  0  0  0  0  0  0  0
   23.1630   17.9730   15.5150 O   0  0  0  0  0  0  0  0  0  0  0  0
   24.8670   17.4960   14.0390 N   0  0  0  0  0  0  0  0  0  0  0  0
   25.8900   18.2410   14.7450 C   0  0  2  0  0  0  0  0  0  0  0  0
   25.8240   17.9530   16.2400 C   0  0  0  0  0  0  0  0  0  0  0  0
   26.9010   18.7450   16.9620 C   0  0  0  0  0  0  0  0  0  0  0  0
   26.7820   20.2220   16.6720 C   0  0  0  0  0  0  0  0  0  0  0  0
   27.0840   21.0810   17.4940 O   0  0  0  0  0  0  0  0  0  0  0  0
   26.3470   20.5680   15.4170 N   0  0  0  0  0  0  0  0  0  0  0  0
   25.7090   19.7500   14.5150 C   0  0  0  0  0  0  0  0  0  0  0  0
   25.0660   20.2360   13.5870 O   0  0  0  0  0  0  0  0  0  0  0  0
   23.0010   16.0560   12.5160 N   0  0  0  0  0  0  0  0  0  0  0  0
   22.1940   15.0620   12.2260 C   0  0  0  0  0  0  0  0  0  0  0  0
   22.0160   16.1930    7.3400 C   0  0  0  0  0  0  0  0  0  0  0  0
   20.9770   16.8340    6.8410 N   0  0  0  0  0  0  0  0  0  0  0  0
   18.9504   19.6134    8.5356 H   0  0  0  0  0  0  0  0  0  0  0  0
   19.8320   19.3891    6.9867 H   0  0  0  0  0  0  0  0  0  0  0  0
   18.0430   19.5504    6.9867 H   0  0  0  0  0  0  0  0  0  0  0  0
   18.1245   17.4356    8.5412 H   0  0  0  0  0  0  0  0  0  0  0  0
   18.3510   17.2729    6.7332 H   0  0  0  0  0  0  0  0  0  0  0  0
   20.0870   16.2415   10.0021 H   0  0  0  0  0  0  0  0  0  0  0  0
   20.8527   12.8482   10.0269 H   0  0  0  0  0  0  0  0  0  0  0  0
   19.5882   12.1459   12.1333 H   0  0  0  0  0  0  0  0  0  0  0  0
   20.0205   13.3267   14.2478 H   0  0  0  0  0  0  0  0  0  0  0  0
   21.5429   15.3979   15.4333 H   0  0  0  0  0  0  0  0  0  0  0  0
   25.0878   17.0802   13.1229 H   0  0  0  0  0  0  0  0  0  0  0  0
   26.8696   17.9262   14.3561 H   0  0  0  0  0  0  0  0  0  0  0  0
   24.8357   18.2443   16.6252 H   0  0  0  0  0  0  0  0  0  0  0  0
   25.9852   16.8785   16.4115 H   0  0  0  0  0  0  0  0  0  0  0  0
   26.7996   18.5831   18.0453 H   0  0  0  0  0  0  0  0  0  0  0  0
   27.8832   18.3992   16.6075 H   0  0  0  0  0  0  0  0  0  0  0  0
   26.5159   21.5399   15.1208 H   0  0  0  0  0  0  0  0  0  0  0  0
   22.9320   15.9541    6.7797 H   0  0  0  0  0  0  0  0  0  0  0  0
  1  2  1  0
  2  3  1  0
  3  4  2  0
  4  5  1  0
  5  6  1  0
  6  7  2  0
  6  8  2  0
  6  9  1  0
  9 10  2  0
 10 11  1  0
 11 12  2  0
 12 13  1  0
 13 14  1  0
 14 15  2  0
 15 16  1  0
 16 17  2  0
 16 18  1  0
 18 19  1  0
 19 20  1  0
 20 21  1  0
 21 22  1  0
 22 23  2  0
 22 24  1  0
 24 25  1  0
 25 26  2  0
 15 27  1  0
 27 28  2  0
  5 29  1  0
 29 30  2  0
 30  3  1  0
 28  9  1  0
 28 13  1  0
 25 19  1  0
  1 31  1  0
  1 32  1  0
  1 33  1  0
  2 34  1  0
  2 35  1  0
  4 36  1  0
 10 37  1  0
 11 38  1  0
 12 39  1  0
 14 40  1  0
 18 41  1  0
 19 42  1  6
 20 43  1  0
 20 44  1  0
 21 45  1  0
 21 46  1  0
 24 47  1  0
 29 48  1  0
M  END
>  <meeko>  (754) 
{"is_sidechain": [true], "free_energy": -10.53, "intermolecular_energy": 0.0, "internal_energy": -10.53, "cluster_size": 15, "cluster_id": 1, "rank_in_cluster": 1}

>  <_RMSD_MCS_to_ref>  (754) 
0.6194126249924197

$$$$
ligand
     RDKit          3D

 48 51  0  0  0  0  0  0  0  0999 V2000
   18.9090   19.1540    7.5370 C   0  0  0  0  0  0  0  0  0  0  0  0
   18.7730   17.6460    7.6780 C   0  0  0  0  0  0  0  0  0  0  0  0
   20.0920   16.9590    7.6590 C   0  0  0  0  0  0  0  0  0  0  0  0
   20.9430   16.6800    8.7100 C   0  0  0  0  0  0  0  0  0  0  0  0
   21.9880   16.0200    8.1270 N   0  0  0  0  0  0  0  0  0  0  0  0
   23.3670   15.4700    8.9270 S   0  0  0  0  0  6  0  0  0  0  0  0
   23.5690   14.1370    8.3770 O   0  0  0  0  0  0  0  0  0  0  0  0
   24.3720   16.4970    8.7100 O   0  0  0  0  0  0  0  0  0  0  0  0
   23.0440   15.3250   10.6240 C   0  0  0  0  0  0  0  0  0  0  0  0
   23.9510   15.8110   11.5010 C   0  0  0  0  0  0  0  0  0  0  0  0
   23.7180   15.7540   12.9440 C   0  0  0  0  0  0  0  0  0  0  0  0
   24.6820   16.2800   13.9560 C   0  0  0  0  0  0  0  0  0  0  0  0
   25.2670   15.5380   14.7370 O   0  0  0  0  0  0  0  0  0  0  0  0
   24.8910   17.6340   13.9040 N   0  0  0  0  0  0  0  0  0  0  0  0
   25.9160   18.2730   14.7200 C   0  0  2  0  0  0  0  0  0  0  0  0
   25.7280   17.9910   16.2060 C   0  0  0  0  0  0  0  0  0  0  0  0
   26.8020   18.7200   16.9990 C   0  0  0  0  0  0  0  0  0  0  0  0
   26.7960   20.2010   16.7010 C   0  0  0  0  0  0  0  0  0  0  0  0
   27.0860   21.0450   17.5430 O   0  0  0  0  0  0  0  0  0  0  0  0
   26.4800   20.5690   15.4160 N   0  0  0  0  0  0  0  0  0  0  0  0
   25.8500   19.7840   14.4840 C   0  0  0  0  0  0  0  0  0  0  0  0
   25.2800   20.2770   13.5110 O   0  0  0  0  0  0  0  0  0  0  0  0
   22.5510   15.2510   13.3890 C   0  0  0  0  0  0  0  0  0  0  0  0
   21.6260   14.7680   12.4710 N   0  0  0  0  0  0  0  0  0  0  0  0
   20.3960   14.2050   12.6900 C   0  0  0  0  0  0  0  0  0  0  0  0
   19.9060   13.8920   11.4450 C   0  0  0  0  0  0  0  0  0  0  0  0
   20.7970   14.2470   10.4660 N   0  0  0  0  0  0  0  0  0  0  0  0
   21.8250   14.7720   11.0940 C   0  0  0  0  0  0  0  0  0  0  0  0
   21.7850   15.9570    6.7870 C   0  0  0  0  0  0  0  0  0  0  0  0
   20.6260   16.5000    6.4690 N   0  0  0  0  0  0  0  0  0  0  0  0
   18.9504   19.6134    8.5356 H   0  0  0  0  0  0  0  0  0  0  0  0
   19.8320   19.3891    6.9867 H   0  0  0  0  0  0  0  0  0  0  0  0
   18.0430   19.5504    6.9867 H   0  0  0  0  0  0  0  0  0  0  0  0
   18.2711   17.4231    8.6311 H   0  0  0  0  0  0  0  0  0  0  0  0
   18.1881   17.2781    6.8221 H   0  0  0  0  0  0  0  0  0  0  0  0
   20.8102   16.9313    9.7726 H   0  0  0  0  0  0  0  0  0  0  0  0
   24.8820   16.2578   11.1221 H   0  0  0  0  0  0  0  0  0  0  0  0
   24.3127   18.2107   13.2764 H   0  0  0  0  0  0  0  0  0  0  0  0
   26.8940   17.8640   14.4265 H   0  0  0  0  0  0  0  0  0  0  0  0
   24.7353   18.3427   16.5235 H   0  0  0  0  0  0  0  0  0  0  0  0
   25.8084   16.9091   16.3875 H   0  0  0  0  0  0  0  0  0  0  0  0
   26.6178   18.5701   18.0731 H   0  0  0  0  0  0  0  0  0  0  0  0
   27.7823   18.3124   16.7110 H   0  0  0  0  0  0  0  0  0  0  0  0
   26.7401   21.5223   15.1254 H   0  0  0  0  0  0  0  0  0  0  0  0
   22.3322   15.2227   14.4667 H   0  0  0  0  0  0  0  0  0  0  0  0
   19.9039   14.0385   13.6596 H   0  0  0  0  0  0  0  0  0  0  0  0
   18.9300   13.4200   11.2591 H   0  0  0  0  0  0  0  0  0  0  0  0
   22.4888   15.5148    6.0665 H   0  0  0  0  0  0  0  0  0  0  0  0
  1  2  1  0
  2  3  1  0
  3  4  2  0
  4  5  1  0
  5  6  1  0
  6  7  2  0
  6  8  2  0
  6  9  1  0
  9 10  2  0
 10 11  1  0
 11 12  1  0
 12 13  2  0
 12 14  1  0
 14 15  1  0
 15 16  1  0
 16 17  1  0
 17 18  1  0
 18 19  2  0
 18 20  1  0
 20 21  1  0
 21 22  2  0
 11 23  2  0
 23 24  1  0
 24 25  1  0
 25 26  2  0
 26 27  1  0
 27 28  2  0
  5 29  1  0
 29 30  2  0
 30  3  1  0
 28  9  1  0
 21 15  1  0
 28 24  1  0
  1 31  1  0
  1 32  1  0
  1 33  1  0
  2 34  1  0
  2 35  1  0
  4 36  1  0
 10 37  1  0
 14 38  1  0
 15 39  1  6
 16 40  1  0
 16 41  1  0
 17 42  1  0
 17 43  1  0
 20 44  1  0
 23 45  1  0
 25 46  1  0
 26 47  1  0
 29 48  1  0
M  END
>  <meeko>  (755) 
{"is_sidechain": [true], "free_energy": -10.53, "intermolecular_energy": 0.0, "internal_energy": -10.53, "cluster_size": 18, "cluster_id": 1, "rank_in_cluster": 1}

>  <_RMSD_MCS_to_ref>  (755) 
0.6517690456663995

$$$$
ligand
     RDKit          3D

 47 50  0  0  0  0  0  0  0  0999 V2000
   18.9090   19.1540    7.5370 C   0  0  0  0  0  0  0  0  0  0  0  0
   18.7730   17.6460    7.6780 C   0  0  0  0  0  0  0  0  0  0  0  0
   20.0950   16.9620    7.6830 C   0  0  0  0  0  0  0  0  0  0  0  0
   21.0000   16.8300    8.7180 C   0  0  0  0  0  0  0  0  0  0  0  0
   22.0360   16.1290    8.1680 N   0  0  0  0  0  0  0  0  0  0  0  0
   23.3740   15.5370    8.9880 S   0  0  0  0  0  6  0  0  0  0  0  0
   23.6120   14.2050    8.4660 O   0  0  0  0  0  0  0  0  0  0  0  0
   24.3740   16.5890    8.9200 O   0  0  0  0  0  0  0  0  0  0  0  0
   22.8680   15.3830   10.6860 C   0  0  0  0  0  0  0  0  0  0  0  0
   23.5910   16.0590   11.6610 C   0  0  0  0  0  0  0  0  0  0  0  0
   23.1800   15.9290   12.9930 C   0  0  0  0  0  0  0  0  0  0  0  0
   23.8840   16.5960   14.1120 C   0  0  0  0  0  0  0  0  0  0  0  0
   24.1710   15.9700   15.1250 O   0  0  0  0  0  0  0  0  0  0  0  0
   24.1640   17.9350   13.9570 N   0  0  0  0  0  0  0  0  0  0  0  0
   24.7230   18.7160   15.0560 C   0  0  1  0  0  0  0  0  0  0  0  0
   25.8280   17.9670   15.7910 C   0  0  0  0  0  0  0  0  0  0  0  0
   26.3950   18.8530   16.8910 C   0  0  0  0  0  0  0  0  0  0  0  0
   26.8800   20.1730   16.3360 C   0  0  0  0  0  0  0  0  0  0  0  0
   27.8470   20.7680   16.8020 O   0  0  0  0  0  0  0  0  0  0  0  0
   26.1640   20.7010   15.2920 N   0  0  0  0  0  0  0  0  0  0  0  0
   25.2960   20.0150   14.4810 C   0  0  0  0  0  0  0  0  0  0  0  0
   24.9930   20.4330   13.3640 O   0  0  0  0  0  0  0  0  0  0  0  0
   22.0710   15.1030   13.2580 C   0  0  0  0  0  0  0  0  0  0  0  0
   21.3220   14.6620   14.3730 C   0  0  0  0  0  0  0  0  0  0  0  0
   20.3070   13.8580   14.0350 N   0  0  0  0  0  0  0  0  0  0  0  0
   20.4120   13.7670   12.6950 N   0  0  0  0  0  0  0  0  0  0  0  0
   21.4470   14.4960   12.1770 C   0  0  0  0  0  0  0  0  0  0  0  0
   21.7810   14.5920   10.8770 N   0  0  0  0  0  0  0  0  0  0  0  0
   21.7350   15.8280    6.8790 C   0  0  0  0  0  0  0  0  0  0  0  0
   20.5640   16.3310    6.5470 N   0  0  0  0  0  0  0  0  0  0  0  0
   18.9504   19.6134    8.5356 H   0  0  0  0  0  0  0  0  0  0  0  0
   19.8320   19.3891    6.9867 H   0  0  0  0  0  0  0  0  0  0  0  0
   18.0430   19.5504    6.9867 H   0  0  0  0  0  0  0  0  0  0  0  0
   18.2551   17.4235    8.6226 H   0  0  0  0  0  0  0  0  0  0  0  0
   18.2033   17.2752    6.8131 H   0  0  0  0  0  0  0  0  0  0  0  0
   20.9079   17.2035    9.7486 H   0  0  0  0  0  0  0  0  0  0  0  0
   24.4604   16.6779   11.3943 H   0  0  0  0  0  0  0  0  0  0  0  0
   23.9764   18.3919   13.0531 H   0  0  0  0  0  0  0  0  0  0  0  0
   23.9199   18.9163   15.7805 H   0  0  0  0  0  0  0  0  0  0  0  0
   25.4161   17.0488   16.2352 H   0  0  0  0  0  0  0  0  0  0  0  0
   26.6274   17.7043   15.0826 H   0  0  0  0  0  0  0  0  0  0  0  0
   25.6101   19.0446   17.6374 H   0  0  0  0  0  0  0  0  0  0  0  0
   27.2492   18.3338   17.3500 H   0  0  0  0  0  0  0  0  0  0  0  0
   26.2896   21.7050   15.0992 H   0  0  0  0  0  0  0  0  0  0  0  0
   21.5497   14.9497   15.4100 H   0  0  0  0  0  0  0  0  0  0  0  0
   19.7740   13.2025   12.1160 H   0  0  0  0  0  0  0  0  0  0  0  0
   22.3798   15.2448    6.2051 H   0  0  0  0  0  0  0  0  0  0  0  0
  1  2  1  0
  2  3  1  0
  3  4  2  0
  4  5  1  0
  5  6  1  0
  6  7  2  0
  6  8  2  0
  6  9  1  0
  9 10  2  0
 10 11  1  0
 11 12  1  0
 12 13  2  0
 12 14  1  0
 14 15  1  0
 15 16  1  0
 16 17  1  0
 17 18  1  0
 18 19  2  0
 18 20  1  0
 20 21  1  0
 21 22  2  0
 11 23  2  0
 23 24  1  0
 24 25  2  0
 25 26  1  0
 26 27  1  0
 27 28  2  0
  5 29  1  0
 29 30  2  0
 30  3  1  0
 28  9  1  0
 21 15  1  0
 27 23  1  0
  1 31  1  0
  1 32  1  0
  1 33  1  0
  2 34  1  0
  2 35  1  0
  4 36  1  0
 10 37  1  0
 14 38  1  0
 15 39  1  1
 16 40  1  0
 16 41  1  0
 17 42  1  0
 17 43  1  0
 20 44  1  0
 24 45  1  0
 26 46  1  0
 29 47  1  0
M  END
>  <meeko>  (756) 
{"is_sidechain": [true], "free_energy": -10.53, "intermolecular_energy": 0.0, "internal_energy": -10.53, "cluster_size": 20, "cluster_id": 1, "rank_in_cluster": 1}

>  <_RMSD_MCS_to_ref>  (756) 
0.4634644898299474

$$$$
ligand
     RDKit          3D

 50 53  0  0  0  0  0  0  0  0999 V2000
   18.9090   19.1540    7.5370 C   0  0  0  0  0  0  0  0  0  0  0  0
   18.7730   17.6460    7.6780 C   0  0  0  0  0  0  0  0  0  0  0  0
   20.0220   16.9330    7.2990 C   0  0  0  0  0  0  0  0  0  0  0  0
   21.0740   16.5380    8.1040 C   0  0  0  0  0  0  0  0  0  0  0  0
   21.9410   15.9250    7.2440 N   0  0  0  0  0  0  0  0  0  0  0  0
   23.4720   15.3490    7.6230 S   0  0  0  0  0  6  0  0  0  0  0  0
   24.4060   16.2510    6.9760 O   0  0  0  0  0  0  0  0  0  0  0  0
   23.4360   13.9270    7.3250 O   0  0  0  0  0  0  0  0  0  0  0  0
   23.6290   15.5420    9.3760 C   0  0  0  0  0  0  0  0  0  0  0  0
   24.5250   16.4550    9.8880 C   0  0  0  0  0  0  0  0  0  0  0  0
   24.6010   16.5500   11.2730 C   0  0  0  0  0  0  0  0  0  0  0  0
   23.7880   15.7440   12.1070 C   0  0  0  0  0  0  0  0  0  0  0  0
   23.7990   15.7650   13.5300 C   0  0  0  0  0  0  0  0  0  0  0  0
   24.6750   16.6990   14.2870 C   0  0  0  0  0  0  0  0  0  0  0  0
   25.8730   16.4870   14.4100 O   0  0  0  0  0  0  0  0  0  0  0  0
   24.0400   17.7900   14.8370 N   0  0  0  0  0  0  0  0  0  0  0  0
   24.7410   18.7040   15.7270 C   0  0  1  0  0  0  0  0  0  0  0  0
   25.7490   17.9850   16.6180 C   0  0  0  0  0  0  0  0  0  0  0  0
   26.4710   19.0010   17.4880 C   0  0  0  0  0  0  0  0  0  0  0  0
   27.1250   20.0750   16.6510 C   0  0  0  0  0  0  0  0  0  0  0  0
   28.1860   20.6050   16.9700 O   0  0  0  0  0  0  0  0  0  0  0  0
   26.4580   20.4610   15.5160 N   0  0  0  0  0  0  0  0  0  0  0  0
   25.4810   19.7410   14.8750 C   0  0  0  0  0  0  0  0  0  0  0  0
   25.2180   19.9370   13.6880 O   0  0  0  0  0  0  0  0  0  0  0  0
   22.9580   14.9180   14.2680 C   0  0  0  0  0  0  0  0  0  0  0  0
   22.1110   14.0400   13.6060 C   0  0  0  0  0  0  0  0  0  0  0  0
   22.1000   14.0130   12.2120 C   0  0  0  0  0  0  0  0  0  0  0  0
   22.9140   14.8410   11.4540 C   0  0  0  0  0  0  0  0  0  0  0  0
   22.8330   14.7370   10.1200 N   0  0  0  0  0  0  0  0  0  0  0  0
   21.4400   15.9930    5.9830 C   0  0  0  0  0  0  0  0  0  0  0  0
   20.2630   16.5860    5.9840 N   0  0  0  0  0  0  0  0  0  0  0  0
   18.9504   19.6134    8.5356 H   0  0  0  0  0  0  0  0  0  0  0  0
   19.8320   19.3891    6.9867 H   0  0  0  0  0  0  0  0  0  0  0  0
   18.0430   19.5504    6.9867 H   0  0  0  0  0  0  0  0  0  0  0  0
   18.5326   17.4080    8.7247 H   0  0  0  0  0  0  0  0  0  0  0  0
   17.9741   17.3133    6.9990 H   0  0  0  0  0  0  0  0  0  0  0  0
   21.1872   16.6838    9.1884 H   0  0  0  0  0  0  0  0  0  0  0  0
   25.1502   17.0789    9.2324 H   0  0  0  0  0  0  0  0  0  0  0  0
   25.3041   17.2628   11.7286 H   0  0  0  0  0  0  0  0  0  0  0  0
   23.0493   17.9628   14.6142 H   0  0  0  0  0  0  0  0  0  0  0  0
   23.9966   19.1792   16.3828 H   0  0  0  0  0  0  0  0  0  0  0  0
   25.2223   17.2622   17.2585 H   0  0  0  0  0  0  0  0  0  0  0  0
   26.4800   17.4541   15.9905 H   0  0  0  0  0  0  0  0  0  0  0  0
   25.7452   19.4697   18.1688 H   0  0  0  0  0  0  0  0  0  0  0  0
   27.2549   18.4775   18.0549 H   0  0  0  0  0  0  0  0  0  0  0  0
   26.7131   21.3720   15.1087 H   0  0  0  0  0  0  0  0  0  0  0  0
   22.9700   14.9498   15.3675 H   0  0  0  0  0  0  0  0  0  0  0  0
   21.4524   13.3696   14.1776 H   0  0  0  0  0  0  0  0  0  0  0  0
   21.4248   13.3133   11.6977 H   0  0  0  0  0  0  0  0  0  0  0  0
   21.9463   15.6069    5.0860 H   0  0  0  0  0  0  0  0  0  0  0  0
  1  2  1  0
  2  3  1  0
  3  4  2  0
  4  5  1  0
  5  6  1  0
  6  7  2  0
  6  8  2  0
  6  9  1  0
  9 10  2  0
 10 11  1  0
 11 12  2  0
 12 13  1  0
 13 14  1  0
 14 15  2  0
 14 16  1  0
 16 17  1  0
 17 18  1  0
 18 19  1  0
 19 20  1  0
 20 21  2  0
 20 22  1  0
 22 23  1  0
 23 24  2  0
 13 25  2  0
 25 26  1  0
 26 27  2  0
 27 28  1  0
 28 29  2  0
  5 30  1  0
 30 31  2  0
 31  3  1  0
 29  9  1  0
 28 12  1  0
 23 17  1  0
  1 32  1  0
  1 33  1  0
  1 34  1  0
  2 35  1  0
  2 36  1  0
  4 37  1  0
 10 38  1  0
 11 39  1  0
 16 40  1  0
 17 41  1  1
 18 42  1  0
 18 43  1  0
 19 44  1  0
 19 45  1  0
 22 46  1  0
 25 47  1  0
 26 48  1  0
 27 49  1  0
 30 50  1  0
M  END
>  <meeko>  (757) 
{"is_sidechain": [true], "free_energy": -10.53, "intermolecular_energy": 0.0, "internal_energy": -10.53, "cluster_size": 18, "cluster_id": 1, "rank_in_cluster": 1}

>  <_RMSD_MCS_to_ref>  (757) 
0.8873107309918736

$$$$
ligand
     RDKit          3D

 47 50  0  0  0  0  0  0  0  0999 V2000
   18.9090   19.1540    7.5370 C   0  0  0  0  0  0  0  0  0  0  0  0
   18.7730   17.6460    7.6780 C   0  0  0  0  0  0  0  0  0  0  0  0
   20.0940   16.9600    7.6790 C   0  0  0  0  0  0  0  0  0  0  0  0
   21.0030   16.8300    8.7090 C   0  0  0  0  0  0  0  0  0  0  0  0
   22.0350   16.1250    8.1590 N   0  0  0  0  0  0  0  0  0  0  0  0
   23.3280   15.4560    8.9970 S   0  0  0  0  0  6  0  0  0  0  0  0
   23.5370   14.1450    8.4130 O   0  0  0  0  0  0  0  0  0  0  0  0
   24.3630   16.4700    9.0230 O   0  0  0  0  0  0  0  0  0  0  0  0
   22.7050   15.2580   10.6430 C   0  0  0  0  0  0  0  0  0  0  0  0
   23.3750   15.8550   11.7060 C   0  0  0  0  0  0  0  0  0  0  0  0
   22.9080   15.7120   13.0260 C   0  0  0  0  0  0  0  0  0  0  0  0
   23.6780   16.3990   14.0940 C   0  0  0  0  0  0  0  0  0  0  0  0
   24.0070   15.7770   15.0980 O   0  0  0  0  0  0  0  0  0  0  0  0
   23.9500   17.7330   13.9280 N   0  0  0  0  0  0  0  0  0  0  0  0
   24.5650   18.5310   14.9780 C   0  0  1  0  0  0  0  0  0  0  0  0
   25.7130   17.7980   15.6640 C   0  0  0  0  0  0  0  0  0  0  0  0
   26.3330   18.7010   16.7190 C   0  0  0  0  0  0  0  0  0  0  0  0
   26.7780   20.0150   16.1220 C   0  0  0  0  0  0  0  0  0  0  0  0
   27.7750   20.6150   16.5150 O   0  0  0  0  0  0  0  0  0  0  0  0
   25.9940   20.5340   15.1230 N   0  0  0  0  0  0  0  0  0  0  0  0
   25.1030   19.8240   14.3570 C   0  0  0  0  0  0  0  0  0  0  0  0
   24.7640   20.2180   13.2410 O   0  0  0  0  0  0  0  0  0  0  0  0
   21.7350   14.9540   13.2430 C   0  0  0  0  0  0  0  0  0  0  0  0
   20.8450   14.6040   14.6890 S   0  0  0  0  0  0  0  0  0  0  0  0
   19.7250   13.6820   13.7930 C   0  0  0  0  0  0  0  0  0  0  0  0
   19.9360   13.6150   12.5010 N   0  0  0  0  0  0  0  0  0  0  0  0
   21.0680   14.3380   12.1720 C   0  0  0  0  0  0  0  0  0  0  0  0
   21.5630   14.4850   10.8610 C   0  0  0  0  0  0  0  0  0  0  0  0
   21.7260   15.8150    6.8730 C   0  0  0  0  0  0  0  0  0  0  0  0
   20.5540   16.3180    6.5450 N   0  0  0  0  0  0  0  0  0  0  0  0
   18.9504   19.6134    8.5356 H   0  0  0  0  0  0  0  0  0  0  0  0
   19.8320   19.3891    6.9867 H   0  0  0  0  0  0  0  0  0  0  0  0
   18.0430   19.5504    6.9867 H   0  0  0  0  0  0  0  0  0  0  0  0
   18.2577   17.4237    8.6241 H   0  0  0  0  0  0  0  0  0  0  0  0
   18.2011   17.2763    6.8141 H   0  0  0  0  0  0  0  0  0  0  0  0
   20.9161   17.2081    9.7383 H   0  0  0  0  0  0  0  0  0  0  0  0
   24.2818   16.4467   11.5123 H   0  0  0  0  0  0  0  0  0  0  0  0
   23.7117   18.1836   13.0330 H   0  0  0  0  0  0  0  0  0  0  0  0
   23.7989   18.7391   15.7394 H   0  0  0  0  0  0  0  0  0  0  0  0
   25.3307   16.8842   16.1423 H   0  0  0  0  0  0  0  0  0  0  0  0
   26.4750   17.5299   14.9173 H   0  0  0  0  0  0  0  0  0  0  0  0
   25.5888   18.8979   17.5047 H   0  0  0  0  0  0  0  0  0  0  0  0
   27.2144   18.1928   17.1373 H   0  0  0  0  0  0  0  0  0  0  0  0
   26.0813   21.5422   14.9313 H   0  0  0  0  0  0  0  0  0  0  0  0
   18.8751   13.1732   14.2712 H   0  0  0  0  0  0  0  0  0  0  0  0
   21.0545   13.9954   10.0173 H   0  0  0  0  0  0  0  0  0  0  0  0
   22.3657   15.2259    6.1994 H   0  0  0  0  0  0  0  0  0  0  0  0
  1  2  1  0
  2  3  1  0
  3  4  2  0
  4  5  1  0
  5  6  1  0
  6  7  2  0
  6  8  2  0
  6  9  1  0
  9 10  2  0
 10 11  1  0
 11 12  1  0
 12 13  2  0
 12 14  1  0
 14 15  1  0
 15 16  1  0
 16 17  1  0
 17 18  1  0
 18 19  2  0
 18 20  1  0
 20 21  1  0
 21 22  2  0
 11 23  2  0
 23 24  1  0
 24 25  1  0
 25 26  2  0
 26 27  1  0
 27 28  2  0
  5 29  1  0
 29 30  2  0
 30  3  1  0
 28  9  1  0
 21 15  1  0
 27 23  1  0
  1 31  1  0
  1 32  1  0
  1 33  1  0
  2 34  1  0
  2 35  1  0
  4 36  1  0
 10 37  1  0
 14 38  1  0
 15 39  1  1
 16 40  1  0
 16 41  1  0
 17 42  1  0
 17 43  1  0
 20 44  1  0
 25 45  1  0
 28 46  1  0
 29 47  1  0
M  END
>  <meeko>  (758) 
{"is_sidechain": [true], "free_energy": -10.53, "intermolecular_energy": 0.0, "internal_energy": -10.53, "cluster_size": 20, "cluster_id": 1, "rank_in_cluster": 1}

>  <_RMSD_MCS_to_ref>  (758) 
0.4445089675385887

$$$$
ligand
     RDKit          3D

 47 50  0  0  0  0  0  0  0  0999 V2000
   18.9090   19.1540    7.5370 C   0  0  0  0  0  0  0  0  0  0  0  0
   18.7730   17.6460    7.6780 C   0  0  0  0  0  0  0  0  0  0  0  0
   20.0600   16.9410    7.4330 C   0  0  0  0  0  0  0  0  0  0  0  0
   20.8070   16.1700    8.3030 C   0  0  0  0  0  0  0  0  0  0  0  0
   21.8740   15.7610    7.5540 N   0  0  0  0  0  0  0  0  0  0  0  0
   23.1480   14.8140    8.1030 S   0  0  0  0  0  6  0  0  0  0  0  0
   24.2790   15.0810    7.2370 O   0  0  0  0  0  0  0  0  0  0  0  0
   22.5800   13.4830    8.2340 O   0  0  0  0  0  0  0  0  0  0  0  0
   23.5450   15.3870    9.7250 C   0  0  0  0  0  0  0  0  0  0  0  0
   24.6680   16.2060    9.8860 C   0  0  0  0  0  0  0  0  0  0  0  0
   25.0120   16.6720   11.1480 C   0  0  0  0  0  0  0  0  0  0  0  0
   24.2540   16.3370   12.2860 C   0  0  0  0  0  0  0  0  0  0  0  0
   24.7100   16.8830   13.5920 C   0  0  0  0  0  0  0  0  0  0  0  0
   24.8000   16.1420   14.5660 O   0  0  0  0  0  0  0  0  0  0  0  0
   24.9690   18.2290   13.6680 N   0  0  0  0  0  0  0  0  0  0  0  0
   25.2800   18.8840   14.9310 C   0  0  1  0  0  0  0  0  0  0  0  0
   26.3640   18.1480   15.7120 C   0  0  0  0  0  0  0  0  0  0  0  0
   26.6660   18.9050   16.9950 C   0  0  0  0  0  0  0  0  0  0  0  0
   27.0490   20.3380   16.7090 C   0  0  0  0  0  0  0  0  0  0  0  0
   27.8740   20.9470   17.3830 O   0  0  0  0  0  0  0  0  0  0  0  0
   26.4070   20.9500   15.6620 N   0  0  0  0  0  0  0  0  0  0  0  0
   25.7610   20.3070   14.6350 C   0  0  0  0  0  0  0  0  0  0  0  0
   25.5830   20.8600   13.5490 O   0  0  0  0  0  0  0  0  0  0  0  0
   23.1070   15.5290   12.1080 C   0  0  0  0  0  0  0  0  0  0  0  0
   21.9220   14.9660   13.2450 S   0  0  0  0  0  0  0  0  0  0  0  0
   21.0900   14.1540   12.0000 C   0  0  0  0  0  0  0  0  0  0  0  0
   21.6020   14.2710   10.8000 N   0  0  0  0  0  0  0  0  0  0  0  0
   22.7470   15.0500   10.8350 C   0  0  0  0  0  0  0  0  0  0  0  0
   21.7680   16.2800    6.3040 C   0  0  0  0  0  0  0  0  0  0  0  0
   20.6710   17.0030    6.1970 N   0  0  0  0  0  0  0  0  0  0  0  0
   18.9504   19.6134    8.5356 H   0  0  0  0  0  0  0  0  0  0  0  0
   19.8320   19.3891    6.9867 H   0  0  0  0  0  0  0  0  0  0  0  0
   18.0430   19.5504    6.9867 H   0  0  0  0  0  0  0  0  0  0  0  0
   18.4308   17.4148    8.6975 H   0  0  0  0  0  0  0  0  0  0  0  0
   18.0494   17.3000    6.9252 H   0  0  0  0  0  0  0  0  0  0  0  0
   20.5920   15.9386    9.3567 H   0  0  0  0  0  0  0  0  0  0  0  0
   25.2782   16.4807    9.0130 H   0  0  0  0  0  0  0  0  0  0  0  0
   25.8959   17.3169   11.2610 H   0  0  0  0  0  0  0  0  0  0  0  0
   24.9426   18.7924   12.8061 H   0  0  0  0  0  0  0  0  0  0  0  0
   24.3688   18.8871   15.5472 H   0  0  0  0  0  0  0  0  0  0  0  0
   26.0147   17.1343   15.9578 H   0  0  0  0  0  0  0  0  0  0  0  0
   27.2764   18.0831   15.1010 H   0  0  0  0  0  0  0  0  0  0  0  0
   25.7724   18.8940   17.6364 H   0  0  0  0  0  0  0  0  0  0  0  0
   27.5117   18.4131   17.4978 H   0  0  0  0  0  0  0  0  0  0  0  0
   26.4099   21.9799   15.6450 H   0  0  0  0  0  0  0  0  0  0  0  0
   20.1792   13.5677   12.1918 H   0  0  0  0  0  0  0  0  0  0  0  0
   22.4952   16.1197    5.4944 H   0  0  0  0  0  0  0  0  0  0  0  0
  1  2  1  0
  2  3  1  0
  3  4  2  0
  4  5  1  0
  5  6  1  0
  6  7  2  0
  6  8  2  0
  6  9  1  0
  9 10  2  0
 10 11  1  0
 11 12  2  0
 12 13  1  0
 13 14  2  0
 13 15  1  0
 15 16  1  0
 16 17  1  0
 17 18  1  0
 18 19  1  0
 19 20  2  0
 19 21  1  0
 21 22  1  0
 22 23  2  0
 12 24  1  0
 24 25  1  0
 25 26  1  0
 26 27  2  0
 27 28  1  0
  5 29  1  0
 29 30  2  0
 30  3  1  0
 28  9  1  0
 22 16  1  0
 28 24  2  0
  1 31  1  0
  1 32  1  0
  1 33  1  0
  2 34  1  0
  2 35  1  0
  4 36  1  0
 10 37  1  0
 11 38  1  0
 15 39  1  0
 16 40  1  1
 17 41  1  0
 17 42  1  0
 18 43  1  0
 18 44  1  0
 21 45  1  0
 26 46  1  0
 29 47  1  0
M  END
>  <meeko>  (759) 
{"is_sidechain": [true], "free_energy": -10.53, "intermolecular_energy": 0.0, "internal_energy": -10.53, "cluster_size": 14, "cluster_id": 1, "rank_in_cluster": 1}

>  <_RMSD_MCS_to_ref>  (759) 
0.768145674841548

$$$$
ligand
     RDKit          3D

 44 47  0  0  0  0  0  0  0  0999 V2000
   18.9090   19.1540    7.5370 C   0  0  0  0  0  0  0  0  0  0  0  0
   18.7730   17.6460    7.6780 C   0  0  0  0  0  0  0  0  0  0  0  0
   20.0610   16.9970    8.0420 C   0  0  0  0  0  0  0  0  0  0  0  0
   20.3460   16.1890    9.1250 C   0  0  0  0  0  0  0  0  0  0  0  0
   21.6570   15.8570    8.9570 N   0  0  0  0  0  0  0  0  0  0  0  0
   22.5690   14.8280    9.9100 S   0  0  0  0  0  6  0  0  0  0  0  0
   22.1690   15.1070   11.2770 O   0  0  0  0  0  0  0  0  0  0  0  0
   22.4910   13.5030    9.3360 O   0  0  0  0  0  0  0  0  0  0  0  0
   24.2580   15.2770    9.8730 C   0  0  0  0  0  0  0  0  0  0  0  0
   25.0450   14.7950    8.8630 N   0  0  0  0  0  0  0  0  0  0  0  0
   26.3370   15.1540    8.9510 N   0  0  0  0  0  0  0  0  0  0  0  0
   26.3680   15.9340   10.0340 C   0  0  0  0  0  0  0  0  0  0  0  0
   25.1060   16.0440   10.6470 C   0  0  0  0  0  0  0  0  0  0  0  0
   24.8170   16.8080   11.8420 C   0  0  0  0  0  0  0  0  0  0  0  0
   25.6670   17.5030   12.6690 C   0  0  0  0  0  0  0  0  0  0  0  0
   24.8410   18.0240   13.6240 N   0  0  0  0  0  0  0  0  0  0  0  0
   25.1680   18.7680   14.8310 C   0  0  1  0  0  0  0  0  0  0  0  0
   26.2560   18.0500   15.6310 C   0  0  0  0  0  0  0  0  0  0  0  0
   26.5360   18.8100   16.9170 C   0  0  0  0  0  0  0  0  0  0  0  0
   26.9160   20.2430   16.6320 C   0  0  0  0  0  0  0  0  0  0  0  0
   27.6350   20.8960   17.3810 O   0  0  0  0  0  0  0  0  0  0  0  0
   26.3700   20.8040   15.5040 N   0  0  0  0  0  0  0  0  0  0  0  0
   25.5800   20.2010   14.5480 C   0  0  0  0  0  0  0  0  0  0  0  0
   25.2240   20.8410   13.5630 O   0  0  0  0  0  0  0  0  0  0  0  0
   23.5670   17.6330   13.4230 N   0  0  0  0  0  0  0  0  0  0  0  0
   23.5420   16.9010   12.3190 N   0  0  0  0  0  0  0  0  0  0  0  0
   22.1300   16.4560    7.8340 C   0  0  0  0  0  0  0  0  0  0  0  0
   21.1810   17.1540    7.2470 N   0  0  0  0  0  0  0  0  0  0  0  0
   18.9504   19.6134    8.5356 H   0  0  0  0  0  0  0  0  0  0  0  0
   19.8320   19.3891    6.9867 H   0  0  0  0  0  0  0  0  0  0  0  0
   18.0430   19.5504    6.9867 H   0  0  0  0  0  0  0  0  0  0  0  0
   18.0329   17.4289    8.4623 H   0  0  0  0  0  0  0  0  0  0  0  0
   18.4552   17.2433    6.7050 H   0  0  0  0  0  0  0  0  0  0  0  0
   19.6699   15.8834    9.9371 H   0  0  0  0  0  0  0  0  0  0  0  0
   24.6786   14.2073    8.1005 H   0  0  0  0  0  0  0  0  0  0  0  0
   27.2755   16.4332   10.4045 H   0  0  0  0  0  0  0  0  0  0  0  0
   26.7579   17.6138   12.5820 H   0  0  0  0  0  0  0  0  0  0  0  0
   24.2465   18.8124   15.4301 H   0  0  0  0  0  0  0  0  0  0  0  0
   25.9182   17.0319   15.8747 H   0  0  0  0  0  0  0  0  0  0  0  0
   27.1762   18.0015   15.0302 H   0  0  0  0  0  0  0  0  0  0  0  0
   25.6335   18.7963   17.5458 H   0  0  0  0  0  0  0  0  0  0  0  0
   27.3760   18.3229   17.4339 H   0  0  0  0  0  0  0  0  0  0  0  0
   26.5767   21.8016   15.3527 H   0  0  0  0  0  0  0  0  0  0  0  0
   23.1630   16.3699    7.4659 H   0  0  0  0  0  0  0  0  0  0  0  0
  1  2  1  0
  2  3  1  0
  3  4  2  0
  4  5  1  0
  5  6  1  0
  6  7  2  0
  6  8  2  0
  6  9  1  0
  9 10  1  0
 10 11  1  0
 11 12  2  0
 12 13  1  0
 13 14  1  0
 14 15  2  0
 15 16  1  0
 16 17  1  0
 17 18  1  0
 18 19  1  0
 19 20  1  0
 20 21  2  0
 20 22  1  0
 22 23  1  0
 23 24  2  0
 16 25  1  0
 25 26  2  0
  5 27  1  0
 27 28  2  0
 28  3  1  0
 13  9  2  0
 26 14  1  0
 23 17  1  0
  1 29  1  0
  1 30  1  0
  1 31  1  0
  2 32  1  0
  2 33  1  0
  4 34  1  0
 10 35  1  0
 12 36  1  0
 15 37  1  0
 17 38  1  1
 18 39  1  0
 18 40  1  0
 19 41  1  0
 19 42  1  0
 22 43  1  0
 27 44  1  0
M  END
>  <meeko>  (760) 
{"is_sidechain": [true], "free_energy": -10.53, "intermolecular_energy": 0.0, "internal_energy": -10.53, "cluster_size": 18, "cluster_id": 1, "rank_in_cluster": 1}

>  <_RMSD_MCS_to_ref>  (760) 
0.5640745616592825

$$$$
ligand
     RDKit          3D

 47 50  0  0  0  0  0  0  0  0999 V2000
   18.7970   18.8170    7.7190 C   0  0  0  0  0  0  0  0  0  0  0  0
   18.5280   17.3290    7.8810 C   0  0  0  0  0  0  0  0  0  0  0  0
   19.7850   16.5390    7.9790 C   0  0  0  0  0  0  0  0  0  0  0  0
   20.1690   15.6340    8.9500 C   0  0  0  0  0  0  0  0  0  0  0  0
   21.4110   15.2270    8.5550 N   0  0  0  0  0  0  0  0  0  0  0  0
   22.3190   14.0120    9.2600 S   0  0  0  0  0  6  0  0  0  0  0  0
   23.2490   13.5510    8.2460 O   0  0  0  0  0  0  0  0  0  0  0  0
   21.3800   13.1170    9.9090 O   0  0  0  0  0  0  0  0  0  0  0  0
   23.2950   14.6790   10.5310 C   0  0  0  0  0  0  0  0  0  0  0  0
   23.8080   15.8940   10.5450 N   0  0  0  0  0  0  0  0  0  0  0  0
   24.5140   16.0440   11.7100 N   0  0  0  0  0  0  0  0  0  0  0  0
   24.4190   14.9210   12.3920 C   0  0  0  0  0  0  0  0  0  0  0  0
   24.9380   14.5040   13.6540 C   0  0  0  0  0  0  0  0  0  0  0  0
   25.7870   15.3850   14.5160 C   0  0  0  0  0  0  0  0  0  0  0  0
   26.5300   14.9210   15.3770 O   0  0  0  0  0  0  0  0  0  0  0  0
   25.6900   16.7330   14.2840 N   0  0  0  0  0  0  0  0  0  0  0  0
   26.5050   17.7000   15.0010 C   0  0  2  0  0  0  0  0  0  0  0  0
   26.2690   17.6240   16.5070 C   0  0  0  0  0  0  0  0  0  0  0  0
   27.1330   18.6590   17.2090 C   0  0  0  0  0  0  0  0  0  0  0  0
   26.8740   20.0460   16.6720 C   0  0  0  0  0  0  0  0  0  0  0  0
   26.9620   21.0500   17.3740 O   0  0  0  0  0  0  0  0  0  0  0  0
   26.5690   20.1420   15.3380 N   0  0  0  0  0  0  0  0  0  0  0  0
   26.1810   19.1150   14.5110 C   0  0  0  0  0  0  0  0  0  0  0  0
   25.6320   19.3470   13.4350 O   0  0  0  0  0  0  0  0  0  0  0  0
   24.6490   13.2590   14.1000 C   0  0  0  0  0  0  0  0  0  0  0  0
   23.8330   12.3350   13.3270 C   0  0  0  0  0  0  0  0  0  0  0  0
   23.3500   12.7290   12.1380 C   0  0  0  0  0  0  0  0  0  0  0  0
   23.6440   14.0130   11.6780 N   0  0  0  0  0  0  0  0  0  0  0  0
   21.7160   15.8150    7.3700 C   0  0  0  0  0  0  0  0  0  0  0  0
   20.7590   16.6420    7.0060 N   0  0  0  0  0  0  0  0  0  0  0  0
   18.8815   19.2845    8.7111 H   0  0  0  0  0  0  0  0  0  0  0  0
   19.7359   18.9616    7.1643 H   0  0  0  0  0  0  0  0  0  0  0  0
   17.9682   19.2812    7.1643 H   0  0  0  0  0  0  0  0  0  0  0  0
   17.9390   17.1730    8.7968 H   0  0  0  0  0  0  0  0  0  0  0  0
   17.9812   16.9853    6.9905 H   0  0  0  0  0  0  0  0  0  0  0  0
   19.6036   15.3146    9.8379 H   0  0  0  0  0  0  0  0  0  0  0  0
   25.0187   17.0710   13.5797 H   0  0  0  0  0  0  0  0  0  0  0  0
   27.5606   17.4624   14.8031 H   0  0  0  0  0  0  0  0  0  0  0  0
   25.2091   17.8244   16.7225 H   0  0  0  0  0  0  0  0  0  0  0  0
   26.5337   16.6196   16.8690 H   0  0  0  0  0  0  0  0  0  0  0  0
   26.9070   18.6437   18.2854 H   0  0  0  0  0  0  0  0  0  0  0  0
   28.1890   18.4090   17.0291 H   0  0  0  0  0  0  0  0  0  0  0  0
   26.6377   21.0779   14.9134 H   0  0  0  0  0  0  0  0  0  0  0  0
   25.0425   12.9364   15.0752 H   0  0  0  0  0  0  0  0  0  0  0  0
   23.6149   11.3277   13.7115 H   0  0  0  0  0  0  0  0  0  0  0  0
   22.7309   12.0488   11.5346 H   0  0  0  0  0  0  0  0  0  0  0  0
   22.6344   15.6266    6.7946 H   0  0  0  0  0  0  0  0  0  0  0  0
  1  2  1  0
  2  3  1  0
  3  4  2  0
  4  5  1  0
  5  6  1  0
  6  7  2  0
  6  8  2  0
  6  9  1  0
  9 10  2  0
 10 11  1  0
 11 12  2  0
 12 13  1  0
 13 14  1  0
 14 15  2  0
 14 16  1  0
 16 17  1  0
 17 18  1  0
 18 19  1  0
 19 20  1  0
 20 21  2  0
 20 22  1  0
 22 23  1  0
 23 24  2  0
 13 25  2  0
 25 26  1  0
 26 27  2  0
 27 28  1  0
  5 29  1  0
 29 30  2  0
 30  3  1  0
 28  9  1  0
 28 12  1  0
 23 17  1  0
  1 31  1  0
  1 32  1  0
  1 33  1  0
  2 34  1  0
  2 35  1  0
  4 36  1  0
 16 37  1  0
 17 38  1  1
 18 39  1  0
 18 40  1  0
 19 41  1  0
 19 42  1  0
 22 43  1  0
 25 44  1  0
 26 45  1  0
 27 46  1  0
 29 47  1  0
M  END
>  <meeko>  (761) 
{"is_sidechain": [true], "free_energy": -10.52, "intermolecular_energy": 0.0, "internal_energy": -10.52, "cluster_size": 16, "cluster_id": 1, "rank_in_cluster": 1}

>  <_RMSD_MCS_to_ref>  (761) 
0.9207550645469669

$$$$
ligand
     RDKit          3D

 50 53  0  0  0  0  0  0  0  0999 V2000
   18.7970   18.8170    7.7190 C   0  0  0  0  0  0  0  0  0  0  0  0
   18.5280   17.3290    7.8810 C   0  0  0  0  0  0  0  0  0  0  0  0
   19.7480   16.5110    7.6440 C   0  0  0  0  0  0  0  0  0  0  0  0
   20.1900   15.3910    8.3210 C   0  0  0  0  0  0  0  0  0  0  0  0
   21.3390   15.0380    7.6700 N   0  0  0  0  0  0  0  0  0  0  0  0
   22.4290   13.8710    8.1890 S   0  0  0  0  0  6  0  0  0  0  0  0
   23.2500   13.6310    7.0140 O   0  0  0  0  0  0  0  0  0  0  0  0
   21.6920   12.7850    8.8030 O   0  0  0  0  0  0  0  0  0  0  0  0
   23.4730   14.6190    9.4250 C   0  0  0  0  0  0  0  0  0  0  0  0
   24.7640   14.9860    9.0000 C   0  0  0  0  0  0  0  0  0  0  0  0
   25.6860   15.5070    9.9010 C   0  0  0  0  0  0  0  0  0  0  0  0
   25.3390   15.6540   11.2390 C   0  0  0  0  0  0  0  0  0  0  0  0
   24.0570   15.2940   11.6780 C   0  0  0  0  0  0  0  0  0  0  0  0
   23.6690   15.4100   13.1010 C   0  0  0  0  0  0  0  0  0  0  0  0
   24.6300   15.9910   14.1310 C   0  0  0  0  0  0  0  0  0  0  0  0
   25.1680   15.2740   14.9590 O   0  0  0  0  0  0  0  0  0  0  0  0
   24.8270   17.3450   13.9960 N   0  0  0  0  0  0  0  0  0  0  0  0
   25.8880   18.0290   14.7180 C   0  0  2  0  0  0  0  0  0  0  0  0
   25.7980   17.8040   16.2230 C   0  0  0  0  0  0  0  0  0  0  0  0
   26.9110   18.5720   16.9190 C   0  0  0  0  0  0  0  0  0  0  0  0
   26.8640   20.0420   16.5690 C   0  0  0  0  0  0  0  0  0  0  0  0
   27.1940   20.9180   17.3640 O   0  0  0  0  0  0  0  0  0  0  0  0
   26.4650   20.3570   15.2950 N   0  0  0  0  0  0  0  0  0  0  0  0
   25.7930   19.5310   14.4280 C   0  0  0  0  0  0  0  0  0  0  0  0
   25.1730   19.9880   13.4690 O   0  0  0  0  0  0  0  0  0  0  0  0
   22.5210   15.0170   13.5670 N   0  0  0  0  0  0  0  0  0  0  0  0
   21.6230   14.5140   12.6850 N   0  0  0  0  0  0  0  0  0  0  0  0
   21.7840   14.4300   11.3250 C   0  0  0  0  0  0  0  0  0  0  0  0
   20.8500   14.1080   10.6070 O   0  0  0  0  0  0  0  0  0  0  0  0
   23.1120   14.7770   10.7750 C   0  0  0  0  0  0  0  0  0  0  0  0
   21.6050   15.9600    6.7090 C   0  0  0  0  0  0  0  0  0  0  0  0
   20.6390   16.8550    6.6470 N   0  0  0  0  0  0  0  0  0  0  0  0
   18.8815   19.2845    8.7111 H   0  0  0  0  0  0  0  0  0  0  0  0
   19.7359   18.9616    7.1643 H   0  0  0  0  0  0  0  0  0  0  0  0
   17.9682   19.2812    7.1643 H   0  0  0  0  0  0  0  0  0  0  0  0
   18.1692   17.1427    8.9040 H   0  0  0  0  0  0  0  0  0  0  0  0
   17.7743   17.0376    7.1346 H   0  0  0  0  0  0  0  0  0  0  0  0
   19.7240   14.8964    9.1860 H   0  0  0  0  0  0  0  0  0  0  0  0
   25.0462   14.8593    7.9444 H   0  0  0  0  0  0  0  0  0  0  0  0
   26.6878   15.8022    9.5557 H   0  0  0  0  0  0  0  0  0  0  0  0
   26.0720   16.0538   11.9552 H   0  0  0  0  0  0  0  0  0  0  0  0
   24.2113   17.8852   13.3715 H   0  0  0  0  0  0  0  0  0  0  0  0
   26.8502   17.6195   14.3768 H   0  0  0  0  0  0  0  0  0  0  0  0
   24.8233   18.1591   16.5890 H   0  0  0  0  0  0  0  0  0  0  0  0
   25.9027   16.7307   16.4397 H   0  0  0  0  0  0  0  0  0  0  0  0
   26.7986   18.4587   18.0074 H   0  0  0  0  0  0  0  0  0  0  0  0
   27.8765   18.1653   16.5839 H   0  0  0  0  0  0  0  0  0  0  0  0
   26.6910   21.3032   14.9565 H   0  0  0  0  0  0  0  0  0  0  0  0
   20.7360   14.1616   13.0723 H   0  0  0  0  0  0  0  0  0  0  0  0
   22.5013   15.9600    6.0714 H   0  0  0  0  0  0  0  0  0  0  0  0
  1  2  1  0
  2  3  1  0
  3  4  2  0
  4  5  1  0
  5  6  1  0
  6  7  2  0
  6  8  2  0
  6  9  1  0
  9 10  2  0
 10 11  1  0
 11 12  2  0
 12 13  1  0
 13 14  1  0
 14 15  1  0
 15 16  2  0
 15 17  1  0
 17 18  1  0
 18 19  1  0
 19 20  1  0
 20 21  1  0
 21 22  2  0
 21 23  1  0
 23 24  1  0
 24 25  2  0
 14 26  2  0
 26 27  1  0
 27 28  1  0
 28 29  2  0
 28 30  1  0
  5 31  1  0
 31 32  2  0
 32  3  1  0
 30  9  1  0
 30 13  2  0
 24 18  1  0
  1 33  1  0
  1 34  1  0
  1 35  1  0
  2 36  1  0
  2 37  1  0
  4 38  1  0
 10 39  1  0
 11 40  1  0
 12 41  1  0
 17 42  1  0
 18 43  1  6
 19 44  1  0
 19 45  1  0
 20 46  1  0
 20 47  1  0
 23 48  1  0
 27 49  1  0
 31 50  1  0
M  END
>  <meeko>  (762) 
{"is_sidechain": [true], "free_energy": -10.52, "intermolecular_energy": 0.0, "internal_energy": -10.52, "cluster_size": 12, "cluster_id": 1, "rank_in_cluster": 1}

>  <_RMSD_MCS_to_ref>  (762) 
0.4726277605050302

$$$$
ligand
     RDKit          3D

 54 58  0  0  0  0  0  0  0  0999 V2000
   18.9090   19.1540    7.5370 C   0  0  0  0  0  0  0  0  0  0  0  0
   18.7730   17.6460    7.6780 C   0  0  0  0  0  0  0  0  0  0  0  0
   20.0650   16.9430    7.4510 C   0  0  0  0  0  0  0  0  0  0  0  0
   20.5930   15.8570    8.1210 C   0  0  0  0  0  0  0  0  0  0  0  0
   21.7950   15.6390    7.5100 N   0  0  0  0  0  0  0  0  0  0  0  0
   22.8210   14.3330    7.7710 S   0  0  0  0  0  6  0  0  0  0  0  0
   22.7840   13.5990    6.5220 O   0  0  0  0  0  0  0  0  0  0  0  0
   24.0380   14.8900    8.3240 O   0  0  0  0  0  0  0  0  0  0  0  0
   22.0890   13.3070    9.0200 C   0  0  0  0  0  0  0  0  0  0  0  0
   21.4200   12.1360    8.6130 C   0  0  0  0  0  0  0  0  0  0  0  0
   20.9800   11.2030    9.5510 C   0  0  0  0  0  0  0  0  0  0  0  0
   21.2170   11.4150   10.9020 C   0  0  0  0  0  0  0  0  0  0  0  0
   21.8690   12.5740   11.3180 C   0  0  0  0  0  0  0  0  0  0  0  0
   22.2650   13.5580   10.3920 C   0  0  0  0  0  0  0  0  0  0  0  0
   22.7550   14.7440   10.9880 N   0  0  0  0  0  0  0  0  0  0  0  0
   22.8650   16.0360   10.5420 C   0  0  0  0  0  0  0  0  0  0  0  0
   23.3600   16.8420   11.4600 N   0  0  0  0  0  0  0  0  0  0  0  0
   23.5510   16.0540   12.5780 C   0  0  0  0  0  0  0  0  0  0  0  0
   24.1040   16.5700   13.8280 C   0  0  0  0  0  0  0  0  0  0  0  0
   24.2320   15.8910   14.8430 O   0  0  0  0  0  0  0  0  0  0  0  0
   24.4620   17.8920   13.7480 N   0  0  0  0  0  0  0  0  0  0  0  0
   24.9060   18.6540   14.8980 C   0  0  1  0  0  0  0  0  0  0  0  0
   25.9970   17.9260   15.6760 C   0  0  0  0  0  0  0  0  0  0  0  0
   26.4310   18.7750   16.8600 C   0  0  0  0  0  0  0  0  0  0  0  0
   26.8810   20.1470   16.4170 C   0  0  0  0  0  0  0  0  0  0  0  0
   27.7610   20.7710   17.0020 O   0  0  0  0  0  0  0  0  0  0  0  0
   26.2280   20.6880   15.3390 N   0  0  0  0  0  0  0  0  0  0  0  0
   25.4400   20.0140   14.4370 C   0  0  0  0  0  0  0  0  0  0  0  0
   25.1750   20.5080   13.3420 O   0  0  0  0  0  0  0  0  0  0  0  0
   23.1410   14.7660   12.3060 C   0  0  0  0  0  0  0  0  0  0  0  0
   23.1070   13.5300   13.1040 C   0  0  0  0  0  0  0  0  0  0  0  0
   22.0070   12.7110   12.6770 O   0  0  0  0  0  0  0  0  0  0  0  0
   21.9610   16.5460    6.5130 C   0  0  0  0  0  0  0  0  0  0  0  0
   20.9200   17.3490    6.4440 N   0  0  0  0  0  0  0  0  0  0  0  0
   18.9504   19.6134    8.5356 H   0  0  0  0  0  0  0  0  0  0  0  0
   19.8320   19.3891    6.9867 H   0  0  0  0  0  0  0  0  0  0  0  0
   18.0430   19.5504    6.9867 H   0  0  0  0  0  0  0  0  0  0  0  0
   18.4175   17.4154    8.6931 H   0  0  0  0  0  0  0  0  0  0  0  0
   18.0599   17.2978    6.9163 H   0  0  0  0  0  0  0  0  0  0  0  0
   20.1475   15.2959    8.9557 H   0  0  0  0  0  0  0  0  0  0  0  0
   21.2426   11.9556    7.5425 H   0  0  0  0  0  0  0  0  0  0  0  0
   20.4457   10.3000    9.2207 H   0  0  0  0  0  0  0  0  0  0  0  0
   20.8909   10.6698   11.6425 H   0  0  0  0  0  0  0  0  0  0  0  0
   22.5733   16.3626    9.5329 H   0  0  0  0  0  0  0  0  0  0  0  0
   24.4132   18.3623   12.8329 H   0  0  0  0  0  0  0  0  0  0  0  0
   24.0412   18.7858   15.5649 H   0  0  0  0  0  0  0  0  0  0  0  0
   25.6078   16.9633   16.0388 H   0  0  0  0  0  0  0  0  0  0  0  0
   26.8599   17.7491   15.0171 H   0  0  0  0  0  0  0  0  0  0  0  0
   25.5838   18.8825   17.5533 H   0  0  0  0  0  0  0  0  0  0  0  0
   27.2774   18.2750   17.3536 H   0  0  0  0  0  0  0  0  0  0  0  0
   26.3394   21.7011   15.1905 H   0  0  0  0  0  0  0  0  0  0  0  0
   24.0490   12.9790   12.9658 H   0  0  0  0  0  0  0  0  0  0  0  0
   22.9819   13.7846   14.1668 H   0  0  0  0  0  0  0  0  0  0  0  0
   22.8412   16.6019    5.8557 H   0  0  0  0  0  0  0  0  0  0  0  0
  1  2  1  0
  2  3  1  0
  3  4  2  0
  4  5  1  0
  5  6  1  0
  6  7  2  0
  6  8  2  0
  6  9  1  0
  9 10  2  0
 10 11  1  0
 11 12  2  0
 12 13  1  0
 13 14  2  0
 14 15  1  0
 15 16  1  0
 16 17  2  0
 17 18  1  0
 18 19  1  0
 19 20  2  0
 19 21  1  0
 21 22  1  0
 22 23  1  0
 23 24  1  0
 24 25  1  0
 25 26  2  0
 25 27  1  0
 27 28  1  0
 28 29  2  0
 18 30  2  0
 30 31  1  0
 31 32  1  0
  5 33  1  0
 33 34  2  0
 34  3  1  0
 14  9  1  0
 30 15  1  0
 32 13  1  0
 28 22  1  0
  1 35  1  0
  1 36  1  0
  1 37  1  0
  2 38  1  0
  2 39  1  0
  4 40  1  0
 10 41  1  0
 11 42  1  0
 12 43  1  0
 16 44  1  0
 21 45  1  0
 22 46  1  1
 23 47  1  0
 23 48  1  0
 24 49  1  0
 24 50  1  0
 27 51  1  0
 31 52  1  0
 31 53  1  0
 33 54  1  0
M  END
>  <meeko>  (763) 
{"is_sidechain": [true], "free_energy": -10.52, "intermolecular_energy": 0.0, "internal_energy": -10.52, "cluster_size": 11, "cluster_id": 1, "rank_in_cluster": 1}

>  <_RMSD_MCS_to_ref>  (763) 
0.4028288856463883

$$$$
ligand
     RDKit          3D

 48 51  0  0  0  0  0  0  0  0999 V2000
   18.9090   19.1540    7.5370 C   0  0  0  0  0  0  0  0  0  0  0  0
   18.7730   17.6460    7.6780 C   0  0  0  0  0  0  0  0  0  0  0  0
   19.8830   16.9170    7.0060 C   0  0  0  0  0  0  0  0  0  0  0  0
   21.2090   16.8180    7.3770 C   0  0  0  0  0  0  0  0  0  0  0  0
   21.7790   16.0650    6.3910 N   0  0  0  0  0  0  0  0  0  0  0  0
   23.3270   15.3920    6.4410 S   0  0  0  0  0  6  0  0  0  0  0  0
   23.2180   14.1820    5.6450 O   0  0  0  0  0  0  0  0  0  0  0  0
   24.2000   16.4760    6.0260 O   0  0  0  0  0  0  0  0  0  0  0  0
   23.6320   14.9960    8.1090 C   0  0  0  0  0  0  0  0  0  0  0  0
   23.6080   13.6160    8.5860 C   0  0  0  0  0  0  0  0  0  0  0  0
   23.8620   13.3180    9.8750 C   0  0  0  0  0  0  0  0  0  0  0  0
   24.1560   14.3660   10.7890 C   0  0  0  0  0  0  0  0  0  0  0  0
   24.4550   14.4240   12.1270 C   0  0  0  0  0  0  0  0  0  0  0  0
   24.6370   15.7990   12.4060 C   0  0  0  0  0  0  0  0  0  0  0  0
   24.9700   16.3950   13.7090 C   0  0  0  0  0  0  0  0  0  0  0  0
   25.0830   15.7340   14.7370 O   0  0  0  0  0  0  0  0  0  0  0  0
   25.1300   17.7600   13.6670 N   0  0  0  0  0  0  0  0  0  0  0  0
   25.2890   18.5660   14.8600 C   0  0  1  0  0  0  0  0  0  0  0  0
   26.2830   17.9470   15.8390 C   0  0  0  0  0  0  0  0  0  0  0  0
   26.4220   18.8460   17.0580 C   0  0  0  0  0  0  0  0  0  0  0  0
   26.8240   20.2480   16.6630 C   0  0  0  0  0  0  0  0  0  0  0  0
   27.5330   20.9540   17.3730 O   0  0  0  0  0  0  0  0  0  0  0  0
   26.3240   20.7170   15.4760 N   0  0  0  0  0  0  0  0  0  0  0  0
   25.7790   19.9630   14.4650 C   0  0  0  0  0  0  0  0  0  0  0  0
   25.6810   20.4130   13.3250 O   0  0  0  0  0  0  0  0  0  0  0  0
   24.4610   16.5550   11.3050 N   0  0  0  0  0  0  0  0  0  0  0  0
   24.1640   15.6780   10.3150 N   0  0  0  0  0  0  0  0  0  0  0  0
   23.9020   15.9840    8.9810 C   0  0  0  0  0  0  0  0  0  0  0  0
   20.8160   15.6800    5.5140 C   0  0  0  0  0  0  0  0  0  0  0  0
   19.6520   16.1930    5.8530 N   0  0  0  0  0  0  0  0  0  0  0  0
   18.9504   19.6134    8.5356 H   0  0  0  0  0  0  0  0  0  0  0  0
   19.8320   19.3891    6.9867 H   0  0  0  0  0  0  0  0  0  0  0  0
   18.0430   19.5504    6.9867 H   0  0  0  0  0  0  0  0  0  0  0  0
   18.7760   17.3883    8.7474 H   0  0  0  0  0  0  0  0  0  0  0  0
   17.8307   17.3451    7.1968 H   0  0  0  0  0  0  0  0  0  0  0  0
   21.6956   17.2479    8.2649 H   0  0  0  0  0  0  0  0  0  0  0  0
   23.3782   12.8047    7.8796 H   0  0  0  0  0  0  0  0  0  0  0  0
   23.8420   12.2728   10.2171 H   0  0  0  0  0  0  0  0  0  0  0  0
   24.5358   13.5827   12.8310 H   0  0  0  0  0  0  0  0  0  0  0  0
   25.1371   18.2285   12.7498 H   0  0  0  0  0  0  0  0  0  0  0  0
   24.3107   18.6231   15.3598 H   0  0  0  0  0  0  0  0  0  0  0  0
   25.9201   16.9572   16.1530 H   0  0  0  0  0  0  0  0  0  0  0  0
   27.2620   17.8405   15.3488 H   0  0  0  0  0  0  0  0  0  0  0  0
   25.4579   18.8850   17.5863 H   0  0  0  0  0  0  0  0  0  0  0  0
   27.2056   18.4303   17.7085 H   0  0  0  0  0  0  0  0  0  0  0  0
   26.3605   21.7356   15.3273 H   0  0  0  0  0  0  0  0  0  0  0  0
   23.9159   17.0304    8.6421 H   0  0  0  0  0  0  0  0  0  0  0  0
   20.9850   15.0305    4.6425 H   0  0  0  0  0  0  0  0  0  0  0  0
  1  2  1  0
  2  3  1  0
  3  4  2  0
  4  5  1  0
  5  6  1  0
  6  7  2  0
  6  8  2  0
  6  9  1  0
  9 10  1  0
 10 11  2  0
 11 12  1  0
 12 13  2  0
 13 14  1  0
 14 15  1  0
 15 16  2  0
 15 17  1  0
 17 18  1  0
 18 19  1  0
 19 20  1  0
 20 21  1  0
 21 22  2  0
 21 23  1  0
 23 24  1  0
 24 25  2  0
 14 26  2  0
 26 27  1  0
 27 28  1  0
  5 29  1  0
 29 30  2  0
 30  3  1  0
 28  9  2  0
 27 12  1  0
 24 18  1  0
  1 31  1  0
  1 32  1  0
  1 33  1  0
  2 34  1  0
  2 35  1  0
  4 36  1  0
 10 37  1  0
 11 38  1  0
 13 39  1  0
 17 40  1  0
 18 41  1  1
 19 42  1  0
 19 43  1  0
 20 44  1  0
 20 45  1  0
 23 46  1  0
 28 47  1  0
 29 48  1  0
M  END
>  <meeko>  (764) 
{"is_sidechain": [true], "free_energy": -10.52, "intermolecular_energy": 0.0, "internal_energy": -10.52, "cluster_size": 18, "cluster_id": 1, "rank_in_cluster": 1}

>  <_RMSD_MCS_to_ref>  (764) 
0.5810354741512974

$$$$
ligand
     RDKit          3D

 47 50  0  0  0  0  0  0  0  0999 V2000
   18.9090   19.1540    7.5370 C   0  0  0  0  0  0  0  0  0  0  0  0
   18.7730   17.6460    7.6780 C   0  0  0  0  0  0  0  0  0  0  0  0
   20.0900   16.9560    7.6160 C   0  0  0  0  0  0  0  0  0  0  0  0
   21.0510   16.8290    8.5990 C   0  0  0  0  0  0  0  0  0  0  0  0
   22.0460   16.1090    8.0020 N   0  0  0  0  0  0  0  0  0  0  0  0
   23.4220   15.5220    8.7660 S   0  0  0  0  0  6  0  0  0  0  0  0
   23.6650   14.2030    8.2190 O   0  0  0  0  0  0  0  0  0  0  0  0
   24.3860   16.6020    8.6630 O   0  0  0  0  0  0  0  0  0  0  0  0
   23.0000   15.3360   10.4600 C   0  0  0  0  0  0  0  0  0  0  0  0
   23.8730   15.8300   11.4470 C   0  0  0  0  0  0  0  0  0  0  0  0
   23.5740   15.7180   12.8170 C   0  0  0  0  0  0  0  0  0  0  0  0
   24.5590   16.2590   13.7930 C   0  0  0  0  0  0  0  0  0  0  0  0
   25.1700   15.4980   14.5340 O   0  0  0  0  0  0  0  0  0  0  0  0
   24.7570   17.6210   13.7880 N   0  0  0  0  0  0  0  0  0  0  0  0
   25.8040   18.2290   14.6000 C   0  0  2  0  0  0  0  0  0  0  0  0
   25.6230   17.9430   16.0860 C   0  0  0  0  0  0  0  0  0  0  0  0
   26.7210   18.6410   16.8740 C   0  0  0  0  0  0  0  0  0  0  0  0
   26.7460   20.1240   16.5860 C   0  0  0  0  0  0  0  0  0  0  0  0
   27.0520   20.9550   17.4350 O   0  0  0  0  0  0  0  0  0  0  0  0
   26.4350   20.5060   15.3050 N   0  0  0  0  0  0  0  0  0  0  0  0
   25.7730   19.7440   14.3750 C   0  0  0  0  0  0  0  0  0  0  0  0
   25.2010   20.2610   13.4150 O   0  0  0  0  0  0  0  0  0  0  0  0
   22.3930   15.0850   13.2430 C   0  0  0  0  0  0  0  0  0  0  0  0
   21.5230   14.5860   12.2650 C   0  0  0  0  0  0  0  0  0  0  0  0
   20.3220   13.9360   12.3900 N   0  0  0  0  0  0  0  0  0  0  0  0
   19.9680   13.7030   11.1460 C   0  0  0  0  0  0  0  0  0  0  0  0
   20.8430   14.1470   10.2010 O   0  0  0  0  0  0  0  0  0  0  0  0
   21.8460   14.7230   10.9240 C   0  0  0  0  0  0  0  0  0  0  0  0
   21.6820   15.8130    6.7290 C   0  0  0  0  0  0  0  0  0  0  0  0
   20.4920   16.3130    6.4620 N   0  0  0  0  0  0  0  0  0  0  0  0
   18.9504   19.6134    8.5356 H   0  0  0  0  0  0  0  0  0  0  0  0
   19.8320   19.3891    6.9867 H   0  0  0  0  0  0  0  0  0  0  0  0
   18.0430   19.5504    6.9867 H   0  0  0  0  0  0  0  0  0  0  0  0
   18.3004   17.4216    8.6456 H   0  0  0  0  0  0  0  0  0  0  0  0
   18.1604   17.2817    6.8401 H   0  0  0  0  0  0  0  0  0  0  0  0
   21.0219   17.2185    9.6273 H   0  0  0  0  0  0  0  0  0  0  0  0
   24.8113   16.3151   11.1400 H   0  0  0  0  0  0  0  0  0  0  0  0
   24.1570   18.2191   13.2023 H   0  0  0  0  0  0  0  0  0  0  0  0
   26.7684   17.7967   14.2949 H   0  0  0  0  0  0  0  0  0  0  0  0
   24.6419   18.3165   16.4145 H   0  0  0  0  0  0  0  0  0  0  0  0
   25.6795   16.8584   16.2602 H   0  0  0  0  0  0  0  0  0  0  0  0
   26.5435   18.4877   17.9487 H   0  0  0  0  0  0  0  0  0  0  0  0
   27.6890   18.2129   16.5743 H   0  0  0  0  0  0  0  0  0  0  0  0
   26.7249   21.4509   15.0150 H   0  0  0  0  0  0  0  0  0  0  0  0
   22.1590   14.9845   14.3131 H   0  0  0  0  0  0  0  0  0  0  0  0
   19.0322   13.1864   10.8864 H   0  0  0  0  0  0  0  0  0  0  0  0
   22.2939   15.2368    6.0194 H   0  0  0  0  0  0  0  0  0  0  0  0
  1  2  1  0
  2  3  1  0
  3  4  2  0
  4  5  1  0
  5  6  1  0
  6  7  2  0
  6  8  2  0
  6  9  1  0
  9 10  2  0
 10 11  1  0
 11 12  1  0
 12 13  2  0
 12 14  1  0
 14 15  1  0
 15 16  1  0
 16 17  1  0
 17 18  1  0
 18 19  2  0
 18 20  1  0
 20 21  1  0
 21 22  2  0
 11 23  2  0
 23 24  1  0
 24 25  1  0
 25 26  2  0
 26 27  1  0
 27 28  1  0
  5 29  1  0
 29 30  2  0
 30  3  1  0
 28  9  1  0
 21 15  1  0
 28 24  2  0
  1 31  1  0
  1 32  1  0
  1 33  1  0
  2 34  1  0
  2 35  1  0
  4 36  1  0
 10 37  1  0
 14 38  1  0
 15 39  1  6
 16 40  1  0
 16 41  1  0
 17 42  1  0
 17 43  1  0
 20 44  1  0
 23 45  1  0
 26 46  1  0
 29 47  1  0
M  END
>  <meeko>  (765) 
{"is_sidechain": [true], "free_energy": -10.52, "intermolecular_energy": 0.0, "internal_energy": -10.52, "cluster_size": 19, "cluster_id": 1, "rank_in_cluster": 1}

>  <_RMSD_MCS_to_ref>  (765) 
0.5592056866663635

$$$$
ligand
     RDKit          3D

 47 50  0  0  0  0  0  0  0  0999 V2000
   18.9090   19.1540    7.5370 C   0  0  0  0  0  0  0  0  0  0  0  0
   18.7730   17.6460    7.6780 C   0  0  0  0  0  0  0  0  0  0  0  0
   20.0920   16.9590    7.6400 C   0  0  0  0  0  0  0  0  0  0  0  0
   20.9710   16.7070    8.6740 C   0  0  0  0  0  0  0  0  0  0  0  0
   22.0150   16.0630    8.0740 N   0  0  0  0  0  0  0  0  0  0  0  0
   23.3820   15.4710    8.8680 S   0  0  0  0  0  6  0  0  0  0  0  0
   23.4670   14.0680    8.5040 O   0  0  0  0  0  0  0  0  0  0  0  0
   24.4290   16.3890    8.4460 O   0  0  0  0  0  0  0  0  0  0  0  0
   23.1800   15.6120   10.5690 C   0  0  0  0  0  0  0  0  0  0  0  0
   23.9960   16.4310   11.2550 C   0  0  0  0  0  0  0  0  0  0  0  0
   23.7610   16.4750   12.7280 C   0  0  0  0  0  0  0  0  0  0  0  0
   24.6700   17.4050   13.5400 C   0  0  0  0  0  0  0  0  0  0  0  0
   25.8650   17.4710   13.3030 O   0  0  0  0  0  0  0  0  0  0  0  0
   24.0130   18.1100   14.5180 N   0  0  0  0  0  0  0  0  0  0  0  0
   24.7180   18.9040   15.5090 C   0  0  1  0  0  0  0  0  0  0  0  0
   25.7420   18.0790   16.2800 C   0  0  0  0  0  0  0  0  0  0  0  0
   26.4660   18.9700   17.2780 C   0  0  0  0  0  0  0  0  0  0  0  0
   27.1010   20.1570   16.5940 C   0  0  0  0  0  0  0  0  0  0  0  0
   28.1550   20.6530   16.9800 O   0  0  0  0  0  0  0  0  0  0  0  0
   26.4230   20.6850   15.5250 N   0  0  0  0  0  0  0  0  0  0  0  0
   25.4330   20.0630   14.8050 C   0  0  0  0  0  0  0  0  0  0  0  0
   25.1410   20.4400   13.6710 O   0  0  0  0  0  0  0  0  0  0  0  0
   22.8520   15.7920   13.3690 N   0  0  0  0  0  0  0  0  0  0  0  0
   22.0690   14.9680   12.6120 C   0  0  0  0  0  0  0  0  0  0  0  0
   21.0440   14.1190   12.9570 C   0  0  0  0  0  0  0  0  0  0  0  0
   20.6280   13.5420   11.7510 C   0  0  0  0  0  0  0  0  0  0  0  0
   21.3280   13.9820   10.7050 N   0  0  0  0  0  0  0  0  0  0  0  0
   22.2190   14.8600   11.2210 N   0  0  0  0  0  0  0  0  0  0  0  0
   21.7550   15.9220    6.7500 C   0  0  0  0  0  0  0  0  0  0  0  0
   20.5930   16.4690    6.4500 N   0  0  0  0  0  0  0  0  0  0  0  0
   18.9504   19.6134    8.5356 H   0  0  0  0  0  0  0  0  0  0  0  0
   19.8320   19.3891    6.9867 H   0  0  0  0  0  0  0  0  0  0  0  0
   18.0430   19.5504    6.9867 H   0  0  0  0  0  0  0  0  0  0  0  0
   18.2841   17.4222    8.6376 H   0  0  0  0  0  0  0  0  0  0  0  0
   18.1755   17.2791    6.8304 H   0  0  0  0  0  0  0  0  0  0  0  0
   20.8567   16.9655    9.7371 H   0  0  0  0  0  0  0  0  0  0  0  0
   24.7809   17.0262   10.7655 H   0  0  0  0  0  0  0  0  0  0  0  0
   22.9841   18.0746   14.5500 H   0  0  0  0  0  0  0  0  0  0  0  0
   23.9776   19.2804   16.2301 H   0  0  0  0  0  0  0  0  0  0  0  0
   25.2291   17.2680   16.8178 H   0  0  0  0  0  0  0  0  0  0  0  0
   26.4708   17.6501   15.5765 H   0  0  0  0  0  0  0  0  0  0  0  0
   25.7442   19.3310   18.0254 H   0  0  0  0  0  0  0  0  0  0  0  0
   27.2606   18.3797   17.7577 H   0  0  0  0  0  0  0  0  0  0  0  0
   26.6811   21.6389   15.2347 H   0  0  0  0  0  0  0  0  0  0  0  0
   20.6386   13.9333   13.9626 H   0  0  0  0  0  0  0  0  0  0  0  0
   19.8134   12.8067   11.6749 H   0  0  0  0  0  0  0  0  0  0  0  0
   22.4190   15.4225    6.0291 H   0  0  0  0  0  0  0  0  0  0  0  0
  1  2  1  0
  2  3  1  0
  3  4  2  0
  4  5  1  0
  5  6  1  0
  6  7  2  0
  6  8  2  0
  6  9  1  0
  9 10  2  0
 10 11  1  0
 11 12  1  0
 12 13  2  0
 12 14  1  0
 14 15  1  0
 15 16  1  0
 16 17  1  0
 17 18  1  0
 18 19  2  0
 18 20  1  0
 20 21  1  0
 21 22  2  0
 11 23  2  0
 23 24  1  0
 24 25  2  0
 25 26  1  0
 26 27  2  0
 27 28  1  0
  5 29  1  0
 29 30  2  0
 30  3  1  0
 28  9  1  0
 21 15  1  0
 28 24  1  0
  1 31  1  0
  1 32  1  0
  1 33  1  0
  2 34  1  0
  2 35  1  0
  4 36  1  0
 10 37  1  0
 14 38  1  0
 15 39  1  1
 16 40  1  0
 16 41  1  0
 17 42  1  0
 17 43  1  0
 20 44  1  0
 25 45  1  0
 26 46  1  0
 29 47  1  0
M  END
>  <meeko>  (766) 
{"is_sidechain": [true], "free_energy": -10.52, "intermolecular_energy": 0.0, "internal_energy": -10.52, "cluster_size": 17, "cluster_id": 1, "rank_in_cluster": 1}

>  <_RMSD_MCS_to_ref>  (766) 
0.7898658113882381

$$$$
ligand
     RDKit          3D

 47 50  0  0  0  0  0  0  0  0999 V2000
   18.9090   19.1540    7.5370 C   0  0  0  0  0  0  0  0  0  0  0  0
   18.7730   17.6460    7.6780 C   0  0  0  0  0  0  0  0  0  0  0  0
   20.0680   16.9430    7.4650 C   0  0  0  0  0  0  0  0  0  0  0  0
   20.7010   16.0240    8.2780 C   0  0  0  0  0  0  0  0  0  0  0  0
   21.8330   15.6910    7.5910 N   0  0  0  0  0  0  0  0  0  0  0  0
   23.1490   14.8460    8.2300 S   0  0  0  0  0  6  0  0  0  0  0  0
   22.7810   13.4510    8.0790 O   0  0  0  0  0  0  0  0  0  0  0  0
   24.2990   15.3920    7.5340 O   0  0  0  0  0  0  0  0  0  0  0  0
   23.2260   15.2740    9.8930 C   0  0  0  0  0  0  0  0  0  0  0  0
   24.1570   16.3190   10.3670 C   0  0  0  0  0  0  0  0  0  0  0  0
   24.2720   16.7400   11.5900 N   0  0  0  0  0  0  0  0  0  0  0  0
   23.4320   16.0970   12.4650 N   0  0  0  0  0  0  0  0  0  0  0  0
   23.3410   16.3250   13.8170 C   0  0  0  0  0  0  0  0  0  0  0  0
   24.0850   17.2590   14.6180 C   0  0  0  0  0  0  0  0  0  0  0  0
   23.6070   17.8160   15.6030 O   0  0  0  0  0  0  0  0  0  0  0  0
   25.3780   17.4960   14.2230 N   0  0  0  0  0  0  0  0  0  0  0  0
   26.2970   18.3030   15.0070 C   0  0  2  0  0  0  0  0  0  0  0  0
   26.1220   18.0790   16.5050 C   0  0  0  0  0  0  0  0  0  0  0  0
   27.0930   18.9660   17.2680 C   0  0  0  0  0  0  0  0  0  0  0  0
   26.9200   20.4180   16.8930 C   0  0  0  0  0  0  0  0  0  0  0  0
   27.0850   21.3320   17.6960 O   0  0  0  0  0  0  0  0  0  0  0  0
   26.5920   20.6800   15.5860 N   0  0  0  0  0  0  0  0  0  0  0  0
   26.0550   19.7840   14.6940 C   0  0  0  0  0  0  0  0  0  0  0  0
   25.4360   20.1710   13.7050 O   0  0  0  0  0  0  0  0  0  0  0  0
   22.3660   15.4400   14.2440 C   0  0  0  0  0  0  0  0  0  0  0  0
   21.8620   14.6920   13.2100 N   0  0  0  0  0  0  0  0  0  0  0  0
   22.5220   15.0970   12.1500 C   0  0  0  0  0  0  0  0  0  0  0  0
   22.4340   14.6860   10.8000 C   0  0  0  0  0  0  0  0  0  0  0  0
   21.8910   16.4230    6.4480 C   0  0  0  0  0  0  0  0  0  0  0  0
   20.8270   17.1910    6.3390 N   0  0  0  0  0  0  0  0  0  0  0  0
   18.9504   19.6134    8.5356 H   0  0  0  0  0  0  0  0  0  0  0  0
   19.8320   19.3891    6.9867 H   0  0  0  0  0  0  0  0  0  0  0  0
   18.0430   19.5504    6.9867 H   0  0  0  0  0  0  0  0  0  0  0  0
   18.4072   17.4162    8.6896 H   0  0  0  0  0  0  0  0  0  0  0  0
   18.0683   17.2968    6.9090 H   0  0  0  0  0  0  0  0  0  0  0  0
   20.3690   15.6462    9.2563 H   0  0  0  0  0  0  0  0  0  0  0  0
   24.8125   16.7827    9.6151 H   0  0  0  0  0  0  0  0  0  0  0  0
   25.7090   17.0864   13.3378 H   0  0  0  0  0  0  0  0  0  0  0  0
   27.3208   18.0047   14.7371 H   0  0  0  0  0  0  0  0  0  0  0  0
   25.0910   18.3299   16.7951 H   0  0  0  0  0  0  0  0  0  0  0  0
   26.3243   17.0244   16.7437 H   0  0  0  0  0  0  0  0  0  0  0  0
   26.9119   18.8505   18.3468 H   0  0  0  0  0  0  0  0  0  0  0  0
   28.1179   18.6606   17.0106 H   0  0  0  0  0  0  0  0  0  0  0  0
   26.7643   21.6358   15.2429 H   0  0  0  0  0  0  0  0  0  0  0  0
   22.0345   15.3474   15.2887 H   0  0  0  0  0  0  0  0  0  0  0  0
   21.7280   13.8977   10.4996 H   0  0  0  0  0  0  0  0  0  0  0  0
   22.7114   16.3801    5.7165 H   0  0  0  0  0  0  0  0  0  0  0  0
  1  2  1  0
  2  3  1  0
  3  4  2  0
  4  5  1  0
  5  6  1  0
  6  7  2  0
  6  8  2  0
  6  9  1  0
  9 10  1  0
 10 11  2  0
 11 12  1  0
 12 13  1  0
 13 14  1  0
 14 15  2  0
 14 16  1  0
 16 17  1  0
 17 18  1  0
 18 19  1  0
 19 20  1  0
 20 21  2  0
 20 22  1  0
 22 23  1  0
 23 24  2  0
 13 25  2  0
 25 26  1  0
 26 27  2  0
 27 28  1  0
  5 29  1  0
 29 30  2  0
 30  3  1  0
 28  9  2  0
 27 12  1  0
 23 17  1  0
  1 31  1  0
  1 32  1  0
  1 33  1  0
  2 34  1  0
  2 35  1  0
  4 36  1  0
 10 37  1  0
 16 38  1  0
 17 39  1  6
 18 40  1  0
 18 41  1  0
 19 42  1  0
 19 43  1  0
 22 44  1  0
 25 45  1  0
 28 46  1  0
 29 47  1  0
M  END
>  <meeko>  (767) 
{"is_sidechain": [true], "free_energy": -10.52, "intermolecular_energy": 0.0, "internal_energy": -10.52, "cluster_size": 19, "cluster_id": 1, "rank_in_cluster": 1}

>  <_RMSD_MCS_to_ref>  (767) 
0.9689196159755579

$$$$
ligand
     RDKit          3D

 47 50  0  0  0  0  0  0  0  0999 V2000
   18.9090   19.1540    7.5370 C   0  0  0  0  0  0  0  0  0  0  0  0
   18.7730   17.6460    7.6780 C   0  0  0  0  0  0  0  0  0  0  0  0
   20.0950   16.9640    7.7310 C   0  0  0  0  0  0  0  0  0  0  0  0
   20.9090   16.7320    8.8220 C   0  0  0  0  0  0  0  0  0  0  0  0
   21.9760   16.0530    8.3060 N   0  0  0  0  0  0  0  0  0  0  0  0
   23.3760   15.6280    9.1340 S   0  0  0  0  0  6  0  0  0  0  0  0
   24.1930   16.8280    9.1510 O   0  0  0  0  0  0  0  0  0  0  0  0
   23.8130   14.3940    8.4990 O   0  0  0  0  0  0  0  0  0  0  0  0
   22.8090   15.2750   10.7870 C   0  0  0  0  0  0  0  0  0  0  0  0
   23.4910   15.9010   11.7700 N   0  0  0  0  0  0  0  0  0  0  0  0
   23.0930   15.6380   13.0440 C   0  0  0  0  0  0  0  0  0  0  0  0
   23.8370   16.3160   14.1420 C   0  0  0  0  0  0  0  0  0  0  0  0
   24.2490   15.7110   15.1250 O   0  0  0  0  0  0  0  0  0  0  0  0
   24.0160   17.6710   13.9640 N   0  0  0  0  0  0  0  0  0  0  0  0
   24.5920   18.5210   14.9910 C   0  0  1  0  0  0  0  0  0  0  0  0
   25.7620   17.8470   15.6990 C   0  0  0  0  0  0  0  0  0  0  0  0
   26.3350   18.7910   16.7440 C   0  0  0  0  0  0  0  0  0  0  0  0
   26.7360   20.1120   16.1300 C   0  0  0  0  0  0  0  0  0  0  0  0
   27.6870   20.7680   16.5440 O   0  0  0  0  0  0  0  0  0  0  0  0
   25.9580   20.5700   15.0970 N   0  0  0  0  0  0  0  0  0  0  0  0
   25.0770   19.8270   14.3520 C   0  0  0  0  0  0  0  0  0  0  0  0
   24.6970   20.2160   13.2480 O   0  0  0  0  0  0  0  0  0  0  0  0
   22.0300   14.7630   13.2850 C   0  0  0  0  0  0  0  0  0  0  0  0
   21.3310   14.2390   14.4090 C   0  0  0  0  0  0  0  0  0  0  0  0
   20.3490   13.3920   13.9390 C   0  0  0  0  0  0  0  0  0  0  0  0
   20.4230   13.3800   12.5700 N   0  0  0  0  0  0  0  0  0  0  0  0
   21.4370   14.2050   12.1590 C   0  0  0  0  0  0  0  0  0  0  0  0
   21.7750   14.4130   10.8790 N   0  0  0  0  0  0  0  0  0  0  0  0
   21.8150   15.9260    6.9620 C   0  0  0  0  0  0  0  0  0  0  0  0
   20.6750   16.4670    6.5810 N   0  0  0  0  0  0  0  0  0  0  0  0
   18.9504   19.6134    8.5356 H   0  0  0  0  0  0  0  0  0  0  0  0
   19.8320   19.3891    6.9867 H   0  0  0  0  0  0  0  0  0  0  0  0
   18.0430   19.5504    6.9867 H   0  0  0  0  0  0  0  0  0  0  0  0
   18.2232   17.4252    8.6048 H   0  0  0  0  0  0  0  0  0  0  0  0
   18.2355   17.2717    6.7943 H   0  0  0  0  0  0  0  0  0  0  0  0
   20.7374   17.0267    9.8678 H   0  0  0  0  0  0  0  0  0  0  0  0
   23.7309   18.0961   13.0702 H   0  0  0  0  0  0  0  0  0  0  0  0
   23.8116   18.7201   15.7402 H   0  0  0  0  0  0  0  0  0  0  0  0
   25.4126   16.9263   16.1891 H   0  0  0  0  0  0  0  0  0  0  0  0
   26.5412   17.5984   14.9634 H   0  0  0  0  0  0  0  0  0  0  0  0
   25.5751   18.9719   17.5185 H   0  0  0  0  0  0  0  0  0  0  0  0
   27.2310   18.3243   17.1792 H   0  0  0  0  0  0  0  0  0  0  0  0
   26.0434   21.5681   14.8574 H   0  0  0  0  0  0  0  0  0  0  0  0
   21.5373   14.4687   15.4648 H   0  0  0  0  0  0  0  0  0  0  0  0
   19.6333   12.8264   14.5537 H   0  0  0  0  0  0  0  0  0  0  0  0
   19.8107   12.8348   11.9465 H   0  0  0  0  0  0  0  0  0  0  0  0
   22.5350   15.4400    6.2872 H   0  0  0  0  0  0  0  0  0  0  0  0
  1  2  1  0
  2  3  1  0
  3  4  2  0
  4  5  1  0
  5  6  1  0
  6  7  2  0
  6  8  2  0
  6  9  1  0
  9 10  2  0
 10 11  1  0
 11 12  1  0
 12 13  2  0
 12 14  1  0
 14 15  1  0
 15 16  1  0
 16 17  1  0
 17 18  1  0
 18 19  2  0
 18 20  1  0
 20 21  1  0
 21 22  2  0
 11 23  2  0
 23 24  1  0
 24 25  2  0
 25 26  1  0
 26 27  1  0
 27 28  2  0
  5 29  1  0
 29 30  2  0
 30  3  1  0
 28  9  1  0
 21 15  1  0
 27 23  1  0
  1 31  1  0
  1 32  1  0
  1 33  1  0
  2 34  1  0
  2 35  1  0
  4 36  1  0
 14 37  1  0
 15 38  1  1
 16 39  1  0
 16 40  1  0
 17 41  1  0
 17 42  1  0
 20 43  1  0
 24 44  1  0
 25 45  1  0
 26 46  1  0
 29 47  1  0
M  END
>  <meeko>  (768) 
{"is_sidechain": [true], "free_energy": -10.52, "intermolecular_energy": 0.0, "internal_energy": -10.52, "cluster_size": 20, "cluster_id": 1, "rank_in_cluster": 1}

>  <_RMSD_MCS_to_ref>  (768) 
0.4202878643131273

$$$$
ligand
     RDKit          3D

 45 48  0  0  0  0  0  0  0  0999 V2000
   18.9090   19.1540    7.5370 C   0  0  0  0  0  0  0  0  0  0  0  0
   18.7730   17.6460    7.6780 C   0  0  0  0  0  0  0  0  0  0  0  0
   20.0910   16.9760    7.8480 C   0  0  0  0  0  0  0  0  0  0  0  0
   20.6350   16.4060    8.9830 C   0  0  0  0  0  0  0  0  0  0  0  0
   21.8560   15.9510    8.5750 N   0  0  0  0  0  0  0  0  0  0  0  0
   22.8860   14.9760    9.4660 S   0  0  0  0  0  6  0  0  0  0  0  0
   22.3090   13.6470    9.4590 O   0  0  0  0  0  0  0  0  0  0  0  0
   24.2290   15.2460    8.9910 O   0  0  0  0  0  0  0  0  0  0  0  0
   22.8540   15.5040   11.1340 C   0  0  0  0  0  0  0  0  0  0  0  0
   23.6740   16.3920   11.6930 N   0  0  0  0  0  0  0  0  0  0  0  0
   23.2790   16.4950   13.0330 C   0  0  0  0  0  0  0  0  0  0  0  0
   23.9460   17.3700   13.9910 C   0  0  0  0  0  0  0  0  0  0  0  0
   23.4020   17.8570   14.9750 O   0  0  0  0  0  0  0  0  0  0  0  0
   25.2680   17.5810   13.6810 N   0  0  0  0  0  0  0  0  0  0  0  0
   26.1730   18.2790   14.5730 C   0  0  2  0  0  0  0  0  0  0  0  0
   25.9180   17.9260   16.0340 C   0  0  0  0  0  0  0  0  0  0  0  0
   26.8750   18.7080   16.9200 C   0  0  0  0  0  0  0  0  0  0  0  0
   26.7620   20.1930   16.6750 C   0  0  0  0  0  0  0  0  0  0  0  0
   26.9390   21.0240   17.5620 O   0  0  0  0  0  0  0  0  0  0  0  0
   26.4850   20.5850   15.3890 N   0  0  0  0  0  0  0  0  0  0  0  0
   25.9980   19.7900   14.3810 C   0  0  0  0  0  0  0  0  0  0  0  0
   25.4780   20.2830   13.3800 O   0  0  0  0  0  0  0  0  0  0  0  0
   22.2180   15.6560   13.2350 C   0  0  0  0  0  0  0  0  0  0  0  0
   21.1200   15.1220   14.4710 S   0  0  0  0  0  0  0  0  0  0  0  0
   20.3440   14.0620   13.2890 C   0  0  0  0  0  0  0  0  0  0  0  0
   20.9050   14.1410   12.0710 C   0  0  0  0  0  0  0  0  0  0  0  0
   21.9550   15.0350   12.0470 N   0  0  0  0  0  0  0  0  0  0  0  0
   22.0000   16.1890    7.2470 C   0  0  0  0  0  0  0  0  0  0  0  0
   20.9540   16.8370    6.7790 N   0  0  0  0  0  0  0  0  0  0  0  0
   18.9504   19.6134    8.5356 H   0  0  0  0  0  0  0  0  0  0  0  0
   19.8320   19.3891    6.9867 H   0  0  0  0  0  0  0  0  0  0  0  0
   18.0430   19.5504    6.9867 H   0  0  0  0  0  0  0  0  0  0  0  0
   18.1485   17.4273    8.5567 H   0  0  0  0  0  0  0  0  0  0  0  0
   18.3148   17.2606    6.7552 H   0  0  0  0  0  0  0  0  0  0  0  0
   20.1872   16.3351    9.9852 H   0  0  0  0  0  0  0  0  0  0  0  0
   25.6291   17.2305   12.7823 H   0  0  0  0  0  0  0  0  0  0  0  0
   27.1995   17.9701   14.3261 H   0  0  0  0  0  0  0  0  0  0  0  0
   24.8815   18.1832   16.2976 H   0  0  0  0  0  0  0  0  0  0  0  0
   26.0783   16.8481   16.1837 H   0  0  0  0  0  0  0  0  0  0  0  0
   26.6383   18.4999   17.9739 H   0  0  0  0  0  0  0  0  0  0  0  0
   27.9022   18.3946   16.6819 H   0  0  0  0  0  0  0  0  0  0  0  0
   26.6598   21.5733   15.1573 H   0  0  0  0  0  0  0  0  0  0  0  0
   19.4923   13.4072   13.5254 H   0  0  0  0  0  0  0  0  0  0  0  0
   20.5677   13.5626   11.1982 H   0  0  0  0  0  0  0  0  0  0  0  0
   22.8689   15.8833    6.6457 H   0  0  0  0  0  0  0  0  0  0  0  0
  1  2  1  0
  2  3  1  0
  3  4  2  0
  4  5  1  0
  5  6  1  0
  6  7  2  0
  6  8  2  0
  6  9  1  0
  9 10  2  0
 10 11  1  0
 11 12  1  0
 12 13  2  0
 12 14  1  0
 14 15  1  0
 15 16  1  0
 16 17  1  0
 17 18  1  0
 18 19  2  0
 18 20  1  0
 20 21  1  0
 21 22  2  0
 11 23  2  0
 23 24  1  0
 24 25  1  0
 25 26  2  0
 26 27  1  0
  5 28  1  0
 28 29  2  0
 29  3  1  0
 27  9  1  0
 21 15  1  0
 27 23  1  0
  1 30  1  0
  1 31  1  0
  1 32  1  0
  2 33  1  0
  2 34  1  0
  4 35  1  0
 14 36  1  0
 15 37  1  6
 16 38  1  0
 16 39  1  0
 17 40  1  0
 17 41  1  0
 20 42  1  0
 25 43  1  0
 26 44  1  0
 28 45  1  0
M  END
>  <meeko>  (769) 
{"is_sidechain": [true], "free_energy": -10.52, "intermolecular_energy": 0.0, "internal_energy": -10.52, "cluster_size": 20, "cluster_id": 1, "rank_in_cluster": 1}

>  <_RMSD_MCS_to_ref>  (769) 
0.7490094940801633

$$$$
ligand
     RDKit          3D

 48 51  0  0  0  0  0  0  0  0999 V2000
   18.9090   19.1540    7.5370 C   0  0  0  0  0  0  0  0  0  0  0  0
   18.7730   17.6460    7.6780 C   0  0  0  0  0  0  0  0  0  0  0  0
   19.9840   16.9260    7.1950 C   0  0  0  0  0  0  0  0  0  0  0  0
   21.1960   16.7400    7.8310 C   0  0  0  0  0  0  0  0  0  0  0  0
   21.9440   16.0420    6.9270 N   0  0  0  0  0  0  0  0  0  0  0  0
   23.4170   15.2830    7.2440 S   0  0  0  0  0  6  0  0  0  0  0  0
   23.1640   13.8770    6.9810 O   0  0  0  0  0  0  0  0  0  0  0  0
   24.3950   16.0310    6.4780 O   0  0  0  0  0  0  0  0  0  0  0  0
   23.7250   15.4660    8.9590 C   0  0  0  0  0  0  0  0  0  0  0  0
   23.1420   14.6150    9.8170 C   0  0  0  0  0  0  0  0  0  0  0  0
   23.3660   14.7470   11.1810 N   0  0  0  0  0  0  0  0  0  0  0  0
   22.8600   13.9630   12.1530 N   0  0  0  0  0  0  0  0  0  0  0  0
   23.3420   14.4820   13.2810 C   0  0  0  0  0  0  0  0  0  0  0  0
   24.1880   15.5980   13.0720 C   0  0  0  0  0  0  0  0  0  0  0  0
   24.8410   16.3420   14.1380 C   0  0  0  0  0  0  0  0  0  0  0  0
   25.2900   15.7650   15.1250 O   0  0  0  0  0  0  0  0  0  0  0  0
   24.9450   17.7050   13.9850 N   0  0  0  0  0  0  0  0  0  0  0  0
   25.2810   18.5510   15.1190 C   0  0  1  0  0  0  0  0  0  0  0  0
   26.4190   17.9420   15.9280 C   0  0  0  0  0  0  0  0  0  0  0  0
   26.7570   18.8560   17.0960 C   0  0  0  0  0  0  0  0  0  0  0  0
   27.0840   20.2520   16.6220 C   0  0  0  0  0  0  0  0  0  0  0  0
   27.9230   20.9550   17.1790 O   0  0  0  0  0  0  0  0  0  0  0  0
   26.3760   20.7170   15.5430 N   0  0  0  0  0  0  0  0  0  0  0  0
   25.7110   19.9400   14.6230 C   0  0  0  0  0  0  0  0  0  0  0  0
   25.4880   20.3660   13.4910 O   0  0  0  0  0  0  0  0  0  0  0  0
   24.1820   15.7450   11.6920 C   0  0  0  0  0  0  0  0  0  0  0  0
   24.8060   16.6780   10.7890 C   0  0  0  0  0  0  0  0  0  0  0  0
   25.5340   17.6020   11.1390 O   0  0  0  0  0  0  0  0  0  0  0  0
   24.5390   16.4730    9.4510 N   0  0  0  0  0  0  0  0  0  0  0  0
   21.1860   15.7770    5.8320 C   0  0  0  0  0  0  0  0  0  0  0  0
   19.9890   16.3080    5.9600 N   0  0  0  0  0  0  0  0  0  0  0  0
   18.9504   19.6134    8.5356 H   0  0  0  0  0  0  0  0  0  0  0  0
   19.8320   19.3891    6.9867 H   0  0  0  0  0  0  0  0  0  0  0  0
   18.0430   19.5504    6.9867 H   0  0  0  0  0  0  0  0  0  0  0  0
   18.6149   17.4019    8.7389 H   0  0  0  0  0  0  0  0  0  0  0  0
   17.9199   17.3241    7.0626 H   0  0  0  0  0  0  0  0  0  0  0  0
   21.4909   17.0771    8.8357 H   0  0  0  0  0  0  0  0  0  0  0  0
   22.4880   13.8145    9.4407 H   0  0  0  0  0  0  0  0  0  0  0  0
   23.1057   14.0824   14.2782 H   0  0  0  0  0  0  0  0  0  0  0  0
   24.7837   18.1295   13.0605 H   0  0  0  0  0  0  0  0  0  0  0  0
   24.3903   18.6377   15.7587 H   0  0  0  0  0  0  0  0  0  0  0  0
   26.1112   16.9575   16.3101 H   0  0  0  0  0  0  0  0  0  0  0  0
   27.3042   17.8258   15.2854 H   0  0  0  0  0  0  0  0  0  0  0  0
   25.8944   18.9015   17.7770 H   0  0  0  0  0  0  0  0  0  0  0  0
   27.6387   18.4487   17.6124 H   0  0  0  0  0  0  0  0  0  0  0  0
   26.3391   21.7377   15.4100 H   0  0  0  0  0  0  0  0  0  0  0  0
   24.9748   17.1126    8.7714 H   0  0  0  0  0  0  0  0  0  0  0  0
   21.5253   15.1991    4.9597 H   0  0  0  0  0  0  0  0  0  0  0  0
  1  2  1  0
  2  3  1  0
  3  4  2  0
  4  5  1  0
  5  6  1  0
  6  7  2  0
  6  8  2  0
  6  9  1  0
  9 10  2  0
 10 11  1  0
 11 12  1  0
 12 13  2  0
 13 14  1  0
 14 15  1  0
 15 16  2  0
 15 17  1  0
 17 18  1  0
 18 19  1  0
 19 20  1  0
 20 21  1  0
 21 22  2  0
 21 23  1  0
 23 24  1  0
 24 25  2  0
 14 26  2  0
 26 27  1  0
 27 28  2  0
 27 29  1  0
  5 30  1  0
 30 31  2  0
 31  3  1  0
 29  9  1  0
 26 11  1  0
 24 18  1  0
  1 32  1  0
  1 33  1  0
  1 34  1  0
  2 35  1  0
  2 36  1  0
  4 37  1  0
 10 38  1  0
 13 39  1  0
 17 40  1  0
 18 41  1  1
 19 42  1  0
 19 43  1  0
 20 44  1  0
 20 45  1  0
 23 46  1  0
 29 47  1  0
 30 48  1  0
M  END
>  <meeko>  (770) 
{"is_sidechain": [true], "free_energy": -10.52, "intermolecular_energy": 0.0, "internal_energy": -10.52, "cluster_size": 17, "cluster_id": 1, "rank_in_cluster": 1}

>  <_RMSD_MCS_to_ref>  (770) 
0.6354227813913428

$$$$
ligand
     RDKit          3D

 52 56  0  0  0  0  0  0  0  0999 V2000
   18.7980   18.8170    7.7190 C   0  0  0  0  0  0  0  0  0  0  0  0
   18.5270   17.3290    7.8810 C   0  0  0  0  0  0  0  0  0  0  0  0
   19.7810   16.5450    8.0550 C   0  0  0  0  0  0  0  0  0  0  0  0
   20.4310   15.7380    7.1430 C   0  0  0  0  0  0  0  0  0  0  0  0
   21.5140   15.2660    7.8260 N   0  0  0  0  0  0  0  0  0  0  0  0
   22.6410   14.1700    7.2470 S   0  0  0  0  0  6  0  0  0  0  0  0
   22.3350   13.9710    5.8440 O   0  0  0  0  0  0  0  0  0  0  0  0
   22.6150   13.0810    8.2060 O   0  0  0  0  0  0  0  0  0  0  0  0
   24.1930   14.9460    7.3570 C   0  0  0  0  0  0  0  0  0  0  0  0
   24.9670   15.0420    6.2120 C   0  0  0  0  0  0  0  0  0  0  0  0
   26.1970   15.6120    6.1580 N   0  0  0  0  0  0  0  0  0  0  0  0
   26.7370   16.1460    7.2820 C   0  0  0  0  0  0  0  0  0  0  0  0
   26.0270   16.0980    8.4840 C   0  0  0  0  0  0  0  0  0  0  0  0
   26.2560   16.5360    9.8120 C   0  0  0  0  0  0  0  0  0  0  0  0
   25.1440   16.1810   10.5530 C   0  0  0  0  0  0  0  0  0  0  0  0
   24.7690   16.3580   11.9560 C   0  0  0  0  0  0  0  0  0  0  0  0
   23.7070   15.6250   12.4950 C   0  0  0  0  0  0  0  0  0  0  0  0
   23.3270   15.7990   13.8240 C   0  0  0  0  0  0  0  0  0  0  0  0
   24.0060   16.7110   14.6320 C   0  0  0  0  0  0  0  0  0  0  0  0
   25.0740   17.4680   14.1360 C   0  0  0  0  0  0  0  0  0  0  0  0
   25.7790   18.3970   14.9770 N   0  0  0  0  0  0  0  0  0  0  0  0
   26.6020   17.8950   16.0740 C   0  0  0  0  0  0  0  0  0  0  0  0
   26.5340   18.8170   17.2720 C   0  0  0  0  0  0  0  0  0  0  0  0
   26.8830   20.2080   16.8450 C   0  0  0  0  0  0  0  0  0  0  0  0
   27.2950   21.0580   17.6300 O   0  0  0  0  0  0  0  0  0  0  0  0
   26.6250   20.5100   15.5370 N   0  0  0  0  0  0  0  0  0  0  0  0
   25.8910   19.7540   14.6540 C   0  0  0  0  0  0  0  0  0  0  0  0
   25.4160   20.3170   13.6710 O   0  0  0  0  0  0  0  0  0  0  0  0
   25.4420   17.2710   12.7900 C   0  0  0  0  0  0  0  0  0  0  0  0
   24.2410   15.5470    9.7420 O   0  0  0  0  0  0  0  0  0  0  0  0
   24.7740   15.4960    8.4870 C   0  0  0  0  0  0  0  0  0  0  0  0
   21.5060   15.7740    9.0850 C   0  0  0  0  0  0  0  0  0  0  0  0
   20.4610   16.5580    9.2590 N   0  0  0  0  0  0  0  0  0  0  0  0
   18.8831   19.2843    8.7111 H   0  0  0  0  0  0  0  0  0  0  0  0
   19.7370   18.9604    7.1644 H   0  0  0  0  0  0  0  0  0  0  0  0
   17.9698   19.2823    7.1644 H   0  0  0  0  0  0  0  0  0  0  0  0
   17.8898   17.1791    8.7650 H   0  0  0  0  0  0  0  0  0  0  0  0
   18.0310   16.9742    6.9655 H   0  0  0  0  0  0  0  0  0  0  0  0
   20.1420   15.5243    6.1034 H   0  0  0  0  0  0  0  0  0  0  0  0
   24.5550   14.6266    5.2805 H   0  0  0  0  0  0  0  0  0  0  0  0
   27.7312   16.6155    7.2470 H   0  0  0  0  0  0  0  0  0  0  0  0
   27.1494   17.0594   10.1832 H   0  0  0  0  0  0  0  0  0  0  0  0
   23.1666   14.9043   11.8637 H   0  0  0  0  0  0  0  0  0  0  0  0
   22.4903   15.2163   14.2367 H   0  0  0  0  0  0  0  0  0  0  0  0
   23.6961   16.8379   15.6798 H   0  0  0  0  0  0  0  0  0  0  0  0
   26.2410   16.8981   16.3669 H   0  0  0  0  0  0  0  0  0  0  0  0
   27.6462   17.8429   15.7320 H   0  0  0  0  0  0  0  0  0  0  0  0
   25.5157   18.8047   17.6879 H   0  0  0  0  0  0  0  0  0  0  0  0
   27.2451   18.4775   18.0395 H   0  0  0  0  0  0  0  0  0  0  0  0
   27.0195   21.3909   15.1775 H   0  0  0  0  0  0  0  0  0  0  0  0
   26.2821   17.8492   12.3777 H   0  0  0  0  0  0  0  0  0  0  0  0
   22.2651   15.5611    9.8521 H   0  0  0  0  0  0  0  0  0  0  0  0
  1  2  1  0
  2  3  1  0
  3  4  2  0
  4  5  1  0
  5  6  1  0
  6  7  2  0
  6  8  2  0
  6  9  1  0
  9 10  2  0
 10 11  1  0
 11 12  2  0
 12 13  1  0
 13 14  1  0
 14 15  2  0
 15 16  1  0
 16 17  2  0
 17 18  1  0
 18 19  2  0
 19 20  1  0
 20 21  1  0
 21 22  1  0
 22 23  1  0
 23 24  1  0
 24 25  2  0
 24 26  1  0
 26 27  1  0
 27 28  2  0
 20 29  2  0
 15 30  1  0
 30 31  1  0
  5 32  1  0
 32 33  2  0
 33  3  1  0
 31  9  1  0
 31 13  2  0
 29 16  1  0
 27 21  1  0
  1 34  1  0
  1 35  1  0
  1 36  1  0
  2 37  1  0
  2 38  1  0
  4 39  1  0
 10 40  1  0
 12 41  1  0
 14 42  1  0
 17 43  1  0
 18 44  1  0
 19 45  1  0
 22 46  1  0
 22 47  1  0
 23 48  1  0
 23 49  1  0
 26 50  1  0
 29 51  1  0
 32 52  1  0
M  END
>  <meeko>  (771) 
{"is_sidechain": [true], "free_energy": -10.51, "intermolecular_energy": 0.0, "internal_energy": -10.51, "cluster_size": 13, "cluster_id": 1, "rank_in_cluster": 1}

>  <_RMSD_MCS_to_ref>  (771) 
0.5335545895220087

$$$$
ligand
     RDKit          3D

 57 61  0  0  0  0  0  0  0  0999 V2000
   18.9090   19.1540    7.5370 C   0  0  0  0  0  0  0  0  0  0  0  0
   18.7730   17.6460    7.6780 C   0  0  0  0  0  0  0  0  0  0  0  0
   20.0720   16.9460    7.4890 C   0  0  0  0  0  0  0  0  0  0  0  0
   20.8800   16.3440    8.4340 C   0  0  0  0  0  0  0  0  0  0  0  0
   21.9220   15.8390    7.7080 N   0  0  0  0  0  0  0  0  0  0  0  0
   23.3270   15.1810    8.3500 S   0  0  0  0  0  6  0  0  0  0  0  0
   23.2390   13.7380    8.2380 O   0  0  0  0  0  0  0  0  0  0  0  0
   24.4000   15.9130    7.6980 O   0  0  0  0  0  0  0  0  0  0  0  0
   23.3600   15.6110   10.0730 C   0  0  0  0  0  0  0  0  0  0  0  0
   24.2690   16.6030   10.4920 C   0  0  0  0  0  0  0  0  0  0  0  0
   24.3640   16.8750   11.8460 C   0  0  0  0  0  0  0  0  0  0  0  0
   23.5810   16.1730   12.7600 C   0  0  0  0  0  0  0  0  0  0  0  0
   22.6850   15.1930   12.3850 C   0  0  0  0  0  0  0  0  0  0  0  0
   22.5850   14.9030   11.0160 C   0  0  0  0  0  0  0  0  0  0  0  0
   21.5920   13.8990   10.5980 C   0  0  0  0  0  0  0  0  0  0  0  0
   20.5050   14.3030   10.2060 O   0  0  0  0  0  0  0  0  0  0  0  0
   21.9530   12.5800   10.6980 N   0  0  0  0  0  0  0  0  0  0  0  0
   23.2780   11.9860   10.5410 C   0  0  0  0  0  0  0  0  0  0  0  0
   22.5490   10.6630   10.2820 C   0  0  0  0  0  0  0  0  0  0  0  0
   21.2830   11.4790   10.0090 C   0  0  0  0  0  0  0  0  0  0  0  0
   23.8880   16.6740   14.1030 C   0  0  0  0  0  0  0  0  0  0  0  0
   23.3370   16.3090   15.1220 O   0  0  0  0  0  0  0  0  0  0  0  0
   24.9010   17.6120   13.9610 N   0  0  0  0  0  0  0  0  0  0  0  0
   25.2680   18.5130   15.0480 C   0  0  1  0  0  0  0  0  0  0  0  0
   26.3340   17.9210   15.9650 C   0  0  0  0  0  0  0  0  0  0  0  0
   26.6010   18.8810   17.1130 C   0  0  0  0  0  0  0  0  0  0  0  0
   26.9890   20.2500   16.6020 C   0  0  0  0  0  0  0  0  0  0  0  0
   27.8180   20.9530   17.1690 O   0  0  0  0  0  0  0  0  0  0  0  0
   26.3510   20.6840   15.4670 N   0  0  0  0  0  0  0  0  0  0  0  0
   25.7580   19.8740   14.5260 C   0  0  0  0  0  0  0  0  0  0  0  0
   25.6590   20.2450   13.3580 O   0  0  0  0  0  0  0  0  0  0  0  0
   25.2140   17.8750   12.5610 C   0  0  0  0  0  0  0  0  0  0  0  0
   21.7660   16.1880    6.4050 C   0  0  0  0  0  0  0  0  0  0  0  0
   20.6410   16.8520    6.2360 N   0  0  0  0  0  0  0  0  0  0  0  0
   18.9504   19.6134    8.5356 H   0  0  0  0  0  0  0  0  0  0  0  0
   19.8320   19.3891    6.9867 H   0  0  0  0  0  0  0  0  0  0  0  0
   18.0430   19.5504    6.9867 H   0  0  0  0  0  0  0  0  0  0  0  0
   18.3899   17.4170    8.6834 H   0  0  0  0  0  0  0  0  0  0  0  0
   18.0823   17.2941    6.8975 H   0  0  0  0  0  0  0  0  0  0  0  0
   20.7212   16.2847    9.5209 H   0  0  0  0  0  0  0  0  0  0  0  0
   24.8868   17.1469    9.7623 H   0  0  0  0  0  0  0  0  0  0  0  0
   22.0741   14.6608   13.1290 H   0  0  0  0  0  0  0  0  0  0  0  0
   23.8589   12.3689    9.6890 H   0  0  0  0  0  0  0  0  0  0  0  0
   24.0612   12.0854   11.3070 H   0  0  0  0  0  0  0  0  0  0  0  0
   22.9233   10.0965    9.4166 H   0  0  0  0  0  0  0  0  0  0  0  0
   22.5593    9.8468   11.0193 H   0  0  0  0  0  0  0  0  0  0  0  0
   21.0698   11.6603    8.9452 H   0  0  0  0  0  0  0  0  0  0  0  0
   20.2826   11.1261   10.2998 H   0  0  0  0  0  0  0  0  0  0  0  0
   24.3461   18.6583   15.6302 H   0  0  0  0  0  0  0  0  0  0  0  0
   25.9810   16.9591   16.3653 H   0  0  0  0  0  0  0  0  0  0  0  0
   27.2616   17.7615   15.3956 H   0  0  0  0  0  0  0  0  0  0  0  0
   25.6911   18.9709   17.7245 H   0  0  0  0  0  0  0  0  0  0  0  0
   27.4336   18.4841   17.7124 H   0  0  0  0  0  0  0  0  0  0  0  0
   26.3129   21.7007   15.3062 H   0  0  0  0  0  0  0  0  0  0  0  0
   24.9412   18.9026   12.2790 H   0  0  0  0  0  0  0  0  0  0  0  0
   26.2852   17.7869   12.3272 H   0  0  0  0  0  0  0  0  0  0  0  0
   22.4796   15.9495    5.6026 H   0  0  0  0  0  0  0  0  0  0  0  0
  1  2  1  0
  2  3  1  0
  3  4  2  0
  4  5  1  0
  5  6  1  0
  6  7  2  0
  6  8  2  0
  6  9  1  0
  9 10  2  0
 10 11  1  0
 11 12  2  0
 12 13  1  0
 13 14  2  0
 14 15  1  0
 15 16  2  0
 15 17  1  0
 17 18  1  0
 18 19  1  0
 19 20  1  0
 12 21  1  0
 21 22  2  0
 21 23  1  0
 23 24  1  0
 24 25  1  0
 25 26  1  0
 26 27  1  0
 27 28  2  0
 27 29  1  0
 29 30  1  0
 30 31  2  0
 23 32  1  0
  5 33  1  0
 33 34  2  0
 34  3  1  0
 14  9  1  0
 20 17  1  0
 30 24  1  0
 32 11  1  0
  1 35  1  0
  1 36  1  0
  1 37  1  0
  2 38  1  0
  2 39  1  0
  4 40  1  0
 10 41  1  0
 13 42  1  0
 18 43  1  0
 18 44  1  0
 19 45  1  0
 19 46  1  0
 20 47  1  0
 20 48  1  0
 24 49  1  1
 25 50  1  0
 25 51  1  0
 26 52  1  0
 26 53  1  0
 29 54  1  0
 32 55  1  0
 32 56  1  0
 33 57  1  0
M  END
>  <meeko>  (772) 
{"is_sidechain": [true], "free_energy": -10.51, "intermolecular_energy": 0.0, "internal_energy": -10.51, "cluster_size": 8, "cluster_id": 2, "rank_in_cluster": 1}

>  <_RMSD_MCS_to_ref>  (772) 
0.959859856668902

$$$$
ligand
     RDKit          3D

 47 50  0  0  0  0  0  0  0  0999 V2000
   18.9090   19.1540    7.5370 C   0  0  0  0  0  0  0  0  0  0  0  0
   18.7730   17.6460    7.6780 C   0  0  0  0  0  0  0  0  0  0  0  0
   20.0520   16.9380    7.3980 C   0  0  0  0  0  0  0  0  0  0  0  0
   20.6840   15.9590    8.1390 C   0  0  0  0  0  0  0  0  0  0  0  0
   21.8010   15.6600    7.4150 N   0  0  0  0  0  0  0  0  0  0  0  0
   23.0800   14.6970    7.9280 S   0  0  0  0  0  6  0  0  0  0  0  0
   24.1640   14.9630    7.0040 O   0  0  0  0  0  0  0  0  0  0  0  0
   22.5300   13.3700    8.1220 O   0  0  0  0  0  0  0  0  0  0  0  0
   23.5010   15.3700    9.5110 C   0  0  0  0  0  0  0  0  0  0  0  0
   24.6700   16.1060    9.6660 C   0  0  0  0  0  0  0  0  0  0  0  0
   24.9760   16.6190   10.9240 C   0  0  0  0  0  0  0  0  0  0  0  0
   24.1180   16.3970   12.0330 C   0  0  0  0  0  0  0  0  0  0  0  0
   24.3380   16.8830   13.3370 C   0  0  0  0  0  0  0  0  0  0  0  0
   25.4860   17.6560   13.6010 N   0  0  0  0  0  0  0  0  0  0  0  0
   25.4410   18.5020   14.8070 C   0  0  1  0  0  0  0  0  0  0  0  0
   26.3330   17.9100   15.8950 C   0  0  0  0  0  0  0  0  0  0  0  0
   26.3540   18.8350   17.1000 C   0  0  0  0  0  0  0  0  0  0  0  0
   26.8230   20.2170   16.7200 C   0  0  0  0  0  0  0  0  0  0  0  0
   27.4030   20.9560   17.5120 O   0  0  0  0  0  0  0  0  0  0  0  0
   26.5210   20.6400   15.4510 N   0  0  0  0  0  0  0  0  0  0  0  0
   25.9600   19.9030   14.4380 C   0  0  0  0  0  0  0  0  0  0  0  0
   25.8570   20.3660   13.3010 O   0  0  0  0  0  0  0  0  0  0  0  0
   23.5060   16.5940   14.3520 N   0  0  0  0  0  0  0  0  0  0  0  0
   22.4340   15.8500   14.0600 C   0  0  0  0  0  0  0  0  0  0  0  0
   22.1120   15.3630   12.8570 N   0  0  0  0  0  0  0  0  0  0  0  0
   22.9540   15.6320   11.8600 C   0  0  0  0  0  0  0  0  0  0  0  0
   22.6610   15.1250   10.6030 C   0  0  0  0  0  0  0  0  0  0  0  0
   21.8510   16.4610    6.3200 C   0  0  0  0  0  0  0  0  0  0  0  0
   20.7940   17.2450    6.2740 N   0  0  0  0  0  0  0  0  0  0  0  0
   18.9504   19.6134    8.5356 H   0  0  0  0  0  0  0  0  0  0  0  0
   19.8320   19.3891    6.9867 H   0  0  0  0  0  0  0  0  0  0  0  0
   18.0430   19.5504    6.9867 H   0  0  0  0  0  0  0  0  0  0  0  0
   18.4568   17.4133    8.7055 H   0  0  0  0  0  0  0  0  0  0  0  0
   18.0294   17.3036    6.9433 H   0  0  0  0  0  0  0  0  0  0  0  0
   20.3607   15.5205    9.0946 H   0  0  0  0  0  0  0  0  0  0  0  0
   25.3404   16.2799    8.8114 H   0  0  0  0  0  0  0  0  0  0  0  0
   25.8967   17.2053   11.0605 H   0  0  0  0  0  0  0  0  0  0  0  0
   26.3112   17.6312   12.9851 H   0  0  0  0  0  0  0  0  0  0  0  0
   24.4082   18.5578   15.1815 H   0  0  0  0  0  0  0  0  0  0  0  0
   25.9402   16.9274   16.1952 H   0  0  0  0  0  0  0  0  0  0  0  0
   27.3554   17.7960   15.5056 H   0  0  0  0  0  0  0  0  0  0  0  0
   25.3386   18.9031   17.5175 H   0  0  0  0  0  0  0  0  0  0  0  0
   27.0526   18.4226   17.8429 H   0  0  0  0  0  0  0  0  0  0  0  0
   26.7401   21.6226   15.2332 H   0  0  0  0  0  0  0  0  0  0  0  0
   21.7509   15.6159   14.8898 H   0  0  0  0  0  0  0  0  0  0  0  0
   21.7531   14.5201   10.4620 H   0  0  0  0  0  0  0  0  0  0  0  0
   22.6609   16.4558    5.5756 H   0  0  0  0  0  0  0  0  0  0  0  0
  1  2  1  0
  2  3  1  0
  3  4  2  0
  4  5  1  0
  5  6  1  0
  6  7  2  0
  6  8  2  0
  6  9  1  0
  9 10  2  0
 10 11  1  0
 11 12  2  0
 12 13  1  0
 13 14  1  0
 14 15  1  0
 15 16  1  0
 16 17  1  0
 17 18  1  0
 18 19  2  0
 18 20  1  0
 20 21  1  0
 21 22  2  0
 13 23  2  0
 23 24  1  0
 24 25  2  0
 25 26  1  0
 26 27  2  0
  5 28  1  0
 28 29  2  0
 29  3  1  0
 27  9  1  0
 26 12  1  0
 21 15  1  0
  1 30  1  0
  1 31  1  0
  1 32  1  0
  2 33  1  0
  2 34  1  0
  4 35  1  0
 10 36  1  0
 11 37  1  0
 14 38  1  0
 15 39  1  1
 16 40  1  0
 16 41  1  0
 17 42  1  0
 17 43  1  0
 20 44  1  0
 24 45  1  0
 27 46  1  0
 28 47  1  0
M  END
>  <meeko>  (773) 
{"is_sidechain": [true], "free_energy": -10.51, "intermolecular_energy": 0.0, "internal_energy": -10.51, "cluster_size": 20, "cluster_id": 1, "rank_in_cluster": 1}

>  <_RMSD_MCS_to_ref>  (773) 
0.6973628897496621

$$$$
ligand
     RDKit          3D

 49 52  0  0  0  0  0  0  0  0999 V2000
   18.9090   19.1540    7.5370 C   0  0  0  0  0  0  0  0  0  0  0  0
   18.7730   17.6460    7.6780 C   0  0  0  0  0  0  0  0  0  0  0  0
   20.0940   16.9620    7.6970 C   0  0  0  0  0  0  0  0  0  0  0  0
   20.9890   16.8310    8.7420 C   0  0  0  0  0  0  0  0  0  0  0  0
   22.0320   16.1340    8.2040 N   0  0  0  0  0  0  0  0  0  0  0  0
   23.3470   15.4800    9.0370 S   0  0  0  0  0  6  0  0  0  0  0  0
   23.5100   14.1690    8.4260 O   0  0  0  0  0  0  0  0  0  0  0  0
   24.4000   16.4700    8.9130 O   0  0  0  0  0  0  0  0  0  0  0  0
   22.8600   15.3040   10.6940 C   0  0  0  0  0  0  0  0  0  0  0  0
   23.5800   15.9430   11.6410 C   0  0  0  0  0  0  0  0  0  0  0  0
   23.2290   15.7820   13.0490 C   0  0  0  0  0  0  0  0  0  0  0  0
   23.9920   16.4560   14.1440 C   0  0  0  0  0  0  0  0  0  0  0  0
   24.4030   15.8460   15.1250 O   0  0  0  0  0  0  0  0  0  0  0  0
   24.1510   17.8090   13.9780 N   0  0  0  0  0  0  0  0  0  0  0  0
   24.7190   18.6380   15.0330 C   0  0  1  0  0  0  0  0  0  0  0  0
   25.8680   17.9440   15.7570 C   0  0  0  0  0  0  0  0  0  0  0  0
   26.4380   18.8780   16.8140 C   0  0  0  0  0  0  0  0  0  0  0  0
   26.8660   20.1940   16.2080 C   0  0  0  0  0  0  0  0  0  0  0  0
   27.8260   20.8330   16.6300 O   0  0  0  0  0  0  0  0  0  0  0  0
   26.1050   20.6710   15.1710 N   0  0  0  0  0  0  0  0  0  0  0  0
   25.2350   19.9350   14.4060 C   0  0  0  0  0  0  0  0  0  0  0  0
   24.8880   20.3150   13.2870 O   0  0  0  0  0  0  0  0  0  0  0  0
   22.2220   14.9640   13.4180 C   0  0  0  0  0  0  0  0  0  0  0  0
   21.4550   14.2910   12.4240 C   0  0  0  0  0  0  0  0  0  0  0  0
   20.3870   13.4220   12.4970 C   0  0  0  0  0  0  0  0  0  0  0  0
   20.0220   13.0970   11.1750 C   0  0  0  0  0  0  0  0  0  0  0  0
   20.8750   13.7740   10.3320 C   0  0  0  0  0  0  0  0  0  0  0  0
   21.7820   14.4950   11.0810 N   0  0  0  0  0  0  0  0  0  0  0  0
   21.7510   15.8430    6.9070 C   0  0  0  0  0  0  0  0  0  0  0  0
   20.5780   16.3350    6.5660 N   0  0  0  0  0  0  0  0  0  0  0  0
   18.9504   19.6134    8.5356 H   0  0  0  0  0  0  0  0  0  0  0  0
   19.8320   19.3891    6.9867 H   0  0  0  0  0  0  0  0  0  0  0  0
   18.0430   19.5504    6.9867 H   0  0  0  0  0  0  0  0  0  0  0  0
   18.2457   17.4242    8.6175 H   0  0  0  0  0  0  0  0  0  0  0  0
   18.2129   17.2745    6.8072 H   0  0  0  0  0  0  0  0  0  0  0  0
   20.8846   17.2033    9.7718 H   0  0  0  0  0  0  0  0  0  0  0  0
   24.4275   16.5822   11.3528 H   0  0  0  0  0  0  0  0  0  0  0  0
   23.8634   18.2466   13.0910 H   0  0  0  0  0  0  0  0  0  0  0  0
   23.9309   18.8364   15.7743 H   0  0  0  0  0  0  0  0  0  0  0  0
   25.4975   17.0272   16.2389 H   0  0  0  0  0  0  0  0  0  0  0  0
   26.6548   17.6850   15.0332 H   0  0  0  0  0  0  0  0  0  0  0  0
   25.6689   19.0679   17.5772 H   0  0  0  0  0  0  0  0  0  0  0  0
   27.3203   18.3983   17.2628 H   0  0  0  0  0  0  0  0  0  0  0  0
   26.1946   21.6721   14.9461 H   0  0  0  0  0  0  0  0  0  0  0  0
   21.9936   14.8169   14.4839 H   0  0  0  0  0  0  0  0  0  0  0  0
   19.9089   13.0514   13.4158 H   0  0  0  0  0  0  0  0  0  0  0  0
   19.2052   12.4254   10.8720 H   0  0  0  0  0  0  0  0  0  0  0  0
   20.8388   13.7445    9.2330 H   0  0  0  0  0  0  0  0  0  0  0  0
   22.4115   15.2753    6.2351 H   0  0  0  0  0  0  0  0  0  0  0  0
  1  2  1  0
  2  3  1  0
  3  4  2  0
  4  5  1  0
  5  6  1  0
  6  7  2  0
  6  8  2  0
  6  9  1  0
  9 10  2  0
 10 11  1  0
 11 12  1  0
 12 13  2  0
 12 14  1  0
 14 15  1  0
 15 16  1  0
 16 17  1  0
 17 18  1  0
 18 19  2  0
 18 20  1  0
 20 21  1  0
 21 22  2  0
 11 23  2  0
 23 24  1  0
 24 25  2  0
 25 26  1  0
 26 27  2  0
 27 28  1  0
  5 29  1  0
 29 30  2  0
 30  3  1  0
 28  9  1  0
 21 15  1  0
 28 24  1  0
  1 31  1  0
  1 32  1  0
  1 33  1  0
  2 34  1  0
  2 35  1  0
  4 36  1  0
 10 37  1  0
 14 38  1  0
 15 39  1  1
 16 40  1  0
 16 41  1  0
 17 42  1  0
 17 43  1  0
 20 44  1  0
 23 45  1  0
 25 46  1  0
 26 47  1  0
 27 48  1  0
 29 49  1  0
M  END
>  <meeko>  (774) 
{"is_sidechain": [true], "free_energy": -10.51, "intermolecular_energy": 0.0, "internal_energy": -10.51, "cluster_size": 20, "cluster_id": 1, "rank_in_cluster": 1}

>  <_RMSD_MCS_to_ref>  (774) 
0.3942002980719321

$$$$
ligand
     RDKit          3D

 48 51  0  0  0  0  0  0  0  0999 V2000
   18.9090   19.1540    7.5370 C   0  0  0  0  0  0  0  0  0  0  0  0
   18.7730   17.6460    7.6780 C   0  0  0  0  0  0  0  0  0  0  0  0
   20.0680   16.9440    7.4720 C   0  0  0  0  0  0  0  0  0  0  0  0
   20.7960   16.1830    8.3660 C   0  0  0  0  0  0  0  0  0  0  0  0
   21.8950   15.7940    7.6550 N   0  0  0  0  0  0  0  0  0  0  0  0
   23.1250   14.7910    8.2240 S   0  0  0  0  0  6  0  0  0  0  0  0
   22.5160   13.4790    8.3660 O   0  0  0  0  0  0  0  0  0  0  0  0
   24.1940   14.9870    7.2550 O   0  0  0  0  0  0  0  0  0  0  0  0
   23.6710   15.3460    9.7740 C   0  0  0  0  0  0  0  0  0  0  0  0
   22.9090   15.0930   10.8590 C   0  0  0  0  0  0  0  0  0  0  0  0
   23.2970   15.5590   12.1820 C   0  0  0  0  0  0  0  0  0  0  0  0
   24.4450   16.2560   12.3340 C   0  0  0  0  0  0  0  0  0  0  0  0
   24.8130   16.7610   13.6870 C   0  0  0  0  0  0  0  0  0  0  0  0
   24.7830   16.0380   14.6740 O   0  0  0  0  0  0  0  0  0  0  0  0
   25.1370   18.0930   13.7420 N   0  0  0  0  0  0  0  0  0  0  0  0
   25.3520   18.7690   15.0150 C   0  0  1  0  0  0  0  0  0  0  0  0
   26.4150   18.0810   15.8640 C   0  0  0  0  0  0  0  0  0  0  0  0
   26.6200   18.8660   17.1520 C   0  0  0  0  0  0  0  0  0  0  0  0
   26.9700   20.3080   16.8660 C   0  0  0  0  0  0  0  0  0  0  0  0
   27.7350   20.9530   17.5770 O   0  0  0  0  0  0  0  0  0  0  0  0
   26.3670   20.8830   15.7760 N   0  0  0  0  0  0  0  0  0  0  0  0
   25.7980   20.2060   14.7270 C   0  0  0  0  0  0  0  0  0  0  0  0
   25.6520   20.7360   13.6250 O   0  0  0  0  0  0  0  0  0  0  0  0
   25.2110   16.5320   11.1920 N   0  0  0  0  0  0  0  0  0  0  0  0
   26.3990   17.2120   11.0520 C   0  0  0  0  0  0  0  0  0  0  0  0
   26.7100   17.1660    9.7150 C   0  0  0  0  0  0  0  0  0  0  0  0
   25.7590   16.4710    9.0200 N   0  0  0  0  0  0  0  0  0  0  0  0
   24.8670   16.0960    9.9100 C   0  0  0  0  0  0  0  0  0  0  0  0
   21.7990   16.2710    6.3870 C   0  0  0  0  0  0  0  0  0  0  0  0
   20.7070   16.9970    6.2500 N   0  0  0  0  0  0  0  0  0  0  0  0
   18.9504   19.6134    8.5356 H   0  0  0  0  0  0  0  0  0  0  0  0
   19.8320   19.3891    6.9867 H   0  0  0  0  0  0  0  0  0  0  0  0
   18.0430   19.5504    6.9867 H   0  0  0  0  0  0  0  0  0  0  0  0
   18.4023   17.4165    8.6879 H   0  0  0  0  0  0  0  0  0  0  0  0
   18.0723   17.2962    6.9056 H   0  0  0  0  0  0  0  0  0  0  0  0
   20.5474   15.9450    9.4108 H   0  0  0  0  0  0  0  0  0  0  0  0
   21.9757   14.5230   10.7408 H   0  0  0  0  0  0  0  0  0  0  0  0
   22.6599   15.3453   13.0529 H   0  0  0  0  0  0  0  0  0  0  0  0
   25.2302   18.6261   12.8656 H   0  0  0  0  0  0  0  0  0  0  0  0
   24.4091   18.7434   15.5809 H   0  0  0  0  0  0  0  0  0  0  0  0
   26.0871   17.0591   16.1053 H   0  0  0  0  0  0  0  0  0  0  0  0
   27.3613   18.0392   15.3048 H   0  0  0  0  0  0  0  0  0  0  0  0
   25.6931   18.8327   17.7434 H   0  0  0  0  0  0  0  0  0  0  0  0
   27.4526   18.4101   17.7078 H   0  0  0  0  0  0  0  0  0  0  0  0
   26.3390   21.9121   15.7423 H   0  0  0  0  0  0  0  0  0  0  0  0
   26.9821   17.6950   11.8500 H   0  0  0  0  0  0  0  0  0  0  0  0
   27.6022   17.6255    9.2646 H   0  0  0  0  0  0  0  0  0  0  0  0
   22.5293   16.0787    5.5872 H   0  0  0  0  0  0  0  0  0  0  0  0
  1  2  1  0
  2  3  1  0
  3  4  2  0
  4  5  1  0
  5  6  1  0
  6  7  2  0
  6  8  2  0
  6  9  1  0
  9 10  2  0
 10 11  1  0
 11 12  2  0
 12 13  1  0
 13 14  2  0
 13 15  1  0
 15 16  1  0
 16 17  1  0
 17 18  1  0
 18 19  1  0
 19 20  2  0
 19 21  1  0
 21 22  1  0
 22 23  2  0
 12 24  1  0
 24 25  1  0
 25 26  2  0
 26 27  1  0
 27 28  2  0
  5 29  1  0
 29 30  2  0
 30  3  1  0
 28  9  1  0
 22 16  1  0
 28 24  1  0
  1 31  1  0
  1 32  1  0
  1 33  1  0
  2 34  1  0
  2 35  1  0
  4 36  1  0
 10 37  1  0
 11 38  1  0
 15 39  1  0
 16 40  1  1
 17 41  1  0
 17 42  1  0
 18 43  1  0
 18 44  1  0
 21 45  1  0
 25 46  1  0
 26 47  1  0
 29 48  1  0
M  END
>  <meeko>  (775) 
{"is_sidechain": [true], "free_energy": -10.51, "intermolecular_energy": 0.0, "internal_energy": -10.51, "cluster_size": 12, "cluster_id": 1, "rank_in_cluster": 1}

>  <_RMSD_MCS_to_ref>  (775) 
0.7720296482504916

$$$$
ligand
     RDKit          3D

 48 51  0  0  0  0  0  0  0  0999 V2000
   18.9090   19.1540    7.5370 C   0  0  0  0  0  0  0  0  0  0  0  0
   18.7730   17.6460    7.6780 C   0  0  0  0  0  0  0  0  0  0  0  0
   20.0650   16.9430    7.4560 C   0  0  0  0  0  0  0  0  0  0  0  0
   20.6170   15.8960    8.1670 C   0  0  0  0  0  0  0  0  0  0  0  0
   21.8000   15.6470    7.5300 N   0  0  0  0  0  0  0  0  0  0  0  0
   22.9250   14.4820    7.9740 S   0  0  0  0  0  6  0  0  0  0  0  0
   22.1320   13.3100    8.2980 O   0  0  0  0  0  0  0  0  0  0  0  0
   23.9340   14.4550    6.9330 O   0  0  0  0  0  0  0  0  0  0  0  0
   23.6770   15.0240    9.4530 C   0  0  0  0  0  0  0  0  0  0  0  0
   23.1880   14.5980   10.7110 C   0  0  0  0  0  0  0  0  0  0  0  0
   23.7610   15.0140   11.9520 C   0  0  0  0  0  0  0  0  0  0  0  0
   24.8680   15.8950   12.0500 C   0  0  0  0  0  0  0  0  0  0  0  0
   25.4660   16.3150   13.3370 C   0  0  0  0  0  0  0  0  0  0  0  0
   25.8040   15.4950   14.1810 O   0  0  0  0  0  0  0  0  0  0  0  0
   25.6350   17.6720   13.5080 N   0  0  0  0  0  0  0  0  0  0  0  0
   26.3470   18.2000   14.6650 C   0  0  2  0  0  0  0  0  0  0  0  0
   25.5460   18.0540   15.9550 C   0  0  0  0  0  0  0  0  0  0  0  0
   26.3280   18.6630   17.1090 C   0  0  0  0  0  0  0  0  0  0  0  0
   26.6870   20.1020   16.8290 C   0  0  0  0  0  0  0  0  0  0  0  0
   26.7490   20.9510   17.7130 O   0  0  0  0  0  0  0  0  0  0  0  0
   26.9750   20.4230   15.5260 N   0  0  0  0  0  0  0  0  0  0  0  0
   26.6310   19.6840   14.4220 C   0  0  0  0  0  0  0  0  0  0  0  0
   26.5700   20.1980   13.3040 O   0  0  0  0  0  0  0  0  0  0  0  0
   25.3350   16.2860   10.7870 C   0  0  0  0  0  0  0  0  0  0  0  0
   26.3780   17.1270   10.5050 C   0  0  0  0  0  0  0  0  0  0  0  0
   26.4330   17.1890    9.1440 N   0  0  0  0  0  0  0  0  0  0  0  0
   25.4860   16.4620    8.5250 N   0  0  0  0  0  0  0  0  0  0  0  0
   24.7810   15.8850    9.5090 C   0  0  0  0  0  0  0  0  0  0  0  0
   21.9470   16.5230    6.5030 C   0  0  0  0  0  0  0  0  0  0  0  0
   20.9000   17.3190    6.4220 N   0  0  0  0  0  0  0  0  0  0  0  0
   18.9504   19.6134    8.5356 H   0  0  0  0  0  0  0  0  0  0  0  0
   19.8320   19.3891    6.9867 H   0  0  0  0  0  0  0  0  0  0  0  0
   18.0430   19.5504    6.9867 H   0  0  0  0  0  0  0  0  0  0  0  0
   18.4139   17.4158    8.6919 H   0  0  0  0  0  0  0  0  0  0  0  0
   18.0628   17.2976    6.9136 H   0  0  0  0  0  0  0  0  0  0  0  0
   20.2001   15.3806    9.0448 H   0  0  0  0  0  0  0  0  0  0  0  0
   22.3264   13.9146   10.7344 H   0  0  0  0  0  0  0  0  0  0  0  0
   23.3190   14.6296   12.8831 H   0  0  0  0  0  0  0  0  0  0  0  0
   25.2523   18.3230   12.8075 H   0  0  0  0  0  0  0  0  0  0  0  0
   27.2771   17.6251   14.7851 H   0  0  0  0  0  0  0  0  0  0  0  0
   24.5828   18.5748   15.8495 H   0  0  0  0  0  0  0  0  0  0  0  0
   25.3661   16.9876   16.1563 H   0  0  0  0  0  0  0  0  0  0  0  0
   25.7146   18.6176   18.0210 H   0  0  0  0  0  0  0  0  0  0  0  0
   27.2591   18.0915   17.2375 H   0  0  0  0  0  0  0  0  0  0  0  0
   27.4958   21.2964   15.3622 H   0  0  0  0  0  0  0  0  0  0  0  0
   27.0322   17.6428   11.2234 H   0  0  0  0  0  0  0  0  0  0  0  0
   27.1368   17.7430    8.6355 H   0  0  0  0  0  0  0  0  0  0  0  0
   22.8181   16.5626    5.8325 H   0  0  0  0  0  0  0  0  0  0  0  0
  1  2  1  0
  2  3  1  0
  3  4  2  0
  4  5  1  0
  5  6  1  0
  6  7  2  0
  6  8  2  0
  6  9  1  0
  9 10  2  0
 10 11  1  0
 11 12  2  0
 12 13  1  0
 13 14  2  0
 13 15  1  0
 15 16  1  0
 16 17  1  0
 17 18  1  0
 18 19  1  0
 19 20  2  0
 19 21  1  0
 21 22  1  0
 22 23  2  0
 12 24  1  0
 24 25  2  0
 25 26  1  0
 26 27  1  0
 27 28  2  0
  5 29  1  0
 29 30  2  0
 30  3  1  0
 28  9  1  0
 22 16  1  0
 28 24  1  0
  1 31  1  0
  1 32  1  0
  1 33  1  0
  2 34  1  0
  2 35  1  0
  4 36  1  0
 10 37  1  0
 11 38  1  0
 15 39  1  0
 16 40  1  1
 17 41  1  0
 17 42  1  0
 18 43  1  0
 18 44  1  0
 21 45  1  0
 25 46  1  0
 26 47  1  0
 29 48  1  0
M  END
>  <meeko>  (776) 
{"is_sidechain": [true], "free_energy": -10.51, "intermolecular_energy": 0.0, "internal_energy": -10.51, "cluster_size": 19, "cluster_id": 1, "rank_in_cluster": 1}

>  <_RMSD_MCS_to_ref>  (776) 
1.1267406780424487

$$$$
ligand
     RDKit          3D

 43 45  0  0  0  0  0  0  0  0999 V2000
   18.9090   19.1540    7.5370 C   0  0  0  0  0  0  0  0  0  0  0  0
   18.7730   17.6460    7.6780 C   0  0  0  0  0  0  0  0  0  0  0  0
   20.0920   16.9570    7.6380 C   0  0  0  0  0  0  0  0  0  0  0  0
   20.8850   16.5340    8.6870 C   0  0  0  0  0  0  0  0  0  0  0  0
   21.9840   15.9960    8.0800 N   0  0  0  0  0  0  0  0  0  0  0  0
   23.1880   15.1100    8.8450 S   0  0  0  0  0  6  0  0  0  0  0  0
   24.4420   15.6920    8.4110 O   0  0  0  0  0  0  0  0  0  0  0  0
   22.8590   13.7160    8.6280 O   0  0  0  0  0  0  0  0  0  0  0  0
   22.9610   15.4730   10.5450 C   0  0  0  0  0  0  0  0  0  0  0  0
   21.8950   14.9100   11.2160 C   0  0  0  0  0  0  0  0  0  0  0  0
   21.6780   15.1600   12.5230 N   0  0  0  0  0  0  0  0  0  0  0  0
   22.5210   16.0000   13.1980 N   0  0  0  0  0  0  0  0  0  0  0  0
   23.5600   16.5780   12.5470 C   0  0  0  0  0  0  0  0  0  0  0  0
   24.4300   17.4870   13.3440 C   0  0  0  0  0  0  0  0  0  0  0  0
   25.5650   17.7560   12.9690 O   0  0  0  0  0  0  0  0  0  0  0  0
   23.8790   17.9750   14.5070 N   0  0  0  0  0  0  0  0  0  0  0  0
   24.6470   18.7620   15.4590 C   0  0  1  0  0  0  0  0  0  0  0  0
   25.7610   17.9460   16.1070 C   0  0  0  0  0  0  0  0  0  0  0  0
   26.5380   18.8270   17.0730 C   0  0  0  0  0  0  0  0  0  0  0  0
   27.0740   20.0590   16.3830 C   0  0  0  0  0  0  0  0  0  0  0  0
   28.1400   20.5800   16.6970 O   0  0  0  0  0  0  0  0  0  0  0  0
   26.2890   20.5990   15.3950 N   0  0  0  0  0  0  0  0  0  0  0  0
   25.2630   19.9650   14.7380 C   0  0  0  0  0  0  0  0  0  0  0  0
   24.8670   20.3680   13.6450 O   0  0  0  0  0  0  0  0  0  0  0  0
   23.8170   16.3420   11.2090 C   0  0  0  0  0  0  0  0  0  0  0  0
   21.8220   16.0550    6.7330 C   0  0  0  0  0  0  0  0  0  0  0  0
   20.6840   16.6400    6.4310 N   0  0  0  0  0  0  0  0  0  0  0  0
   18.9504   19.6134    8.5356 H   0  0  0  0  0  0  0  0  0  0  0  0
   19.8320   19.3891    6.9867 H   0  0  0  0  0  0  0  0  0  0  0  0
   18.0430   19.5504    6.9867 H   0  0  0  0  0  0  0  0  0  0  0  0
   18.2854   17.4224    8.6383 H   0  0  0  0  0  0  0  0  0  0  0  0
   18.1746   17.2799    6.8307 H   0  0  0  0  0  0  0  0  0  0  0  0
   20.6786   16.6125    9.7646 H   0  0  0  0  0  0  0  0  0  0  0  0
   21.2082   14.2436   10.6736 H   0  0  0  0  0  0  0  0  0  0  0  0
   22.8890   17.7761   14.7101 H   0  0  0  0  0  0  0  0  0  0  0  0
   23.9614   19.0918   16.2535 H   0  0  0  0  0  0  0  0  0  0  0  0
   25.3236   17.0982   16.6546 H   0  0  0  0  0  0  0  0  0  0  0  0
   26.4397   17.5682   15.3281 H   0  0  0  0  0  0  0  0  0  0  0  0
   25.8712   19.1363   17.8913 H   0  0  0  0  0  0  0  0  0  0  0  0
   27.3893   18.2489   17.4617 H   0  0  0  0  0  0  0  0  0  0  0  0
   26.4882   21.5715   15.1204 H   0  0  0  0  0  0  0  0  0  0  0  0
   24.6621   16.8214   10.6933 H   0  0  0  0  0  0  0  0  0  0  0  0
   22.5422   15.6675    5.9974 H   0  0  0  0  0  0  0  0  0  0  0  0
  1  2  1  0
  2  3  1  0
  3  4  2  0
  4  5  1  0
  5  6  1  0
  6  7  2  0
  6  8  2  0
  6  9  1  0
  9 10  2  0
 10 11  1  0
 11 12  2  0
 12 13  1  0
 13 14  1  0
 14 15  2  0
 14 16  1  0
 16 17  1  0
 17 18  1  0
 18 19  1  0
 19 20  1  0
 20 21  2  0
 20 22  1  0
 22 23  1  0
 23 24  2  0
 13 25  2  0
  5 26  1  0
 26 27  2  0
 27  3  1  0
 25  9  1  0
 23 17  1  0
  1 28  1  0
  1 29  1  0
  1 30  1  0
  2 31  1  0
  2 32  1  0
  4 33  1  0
 10 34  1  0
 16 35  1  0
 17 36  1  1
 18 37  1  0
 18 38  1  0
 19 39  1  0
 19 40  1  0
 22 41  1  0
 25 42  1  0
 26 43  1  0
M  END
>  <meeko>  (777) 
{"is_sidechain": [true], "free_energy": -10.51, "intermolecular_energy": 0.0, "internal_energy": -10.51, "cluster_size": 19, "cluster_id": 1, "rank_in_cluster": 1}

>  <_RMSD_MCS_to_ref>  (777) 
0.7040429279841146

$$$$
ligand
     RDKit          3D

 55 59  0  0  0  0  0  0  0  0999 V2000
   18.9090   19.1540    7.5370 C   0  0  0  0  0  0  0  0  0  0  0  0
   18.7730   17.6460    7.6780 C   0  0  0  0  0  0  0  0  0  0  0  0
   20.0840   16.9530    7.5650 C   0  0  0  0  0  0  0  0  0  0  0  0
   20.7230   16.1450    8.4860 C   0  0  0  0  0  0  0  0  0  0  0  0
   21.8950   15.8020    7.8730 N   0  0  0  0  0  0  0  0  0  0  0  0
   23.0450   14.7440    8.4840 S   0  0  0  0  0  6  0  0  0  0  0  0
   22.2730   13.9100    9.3890 O   0  0  0  0  0  0  0  0  0  0  0  0
   23.7530   14.1710    7.3570 O   0  0  0  0  0  0  0  0  0  0  0  0
   24.1890   15.6810    9.4820 C   0  0  0  0  0  0  0  0  0  0  0  0
   23.7040   16.0580   10.7500 C   0  0  0  0  0  0  0  0  0  0  0  0
   24.5260   16.8160   11.5570 C   0  0  0  0  0  0  0  0  0  0  0  0
   25.7970   17.2110   11.1660 C   0  0  0  0  0  0  0  0  0  0  0  0
   26.2860   16.8470    9.9240 C   0  0  0  0  0  0  0  0  0  0  0  0
   25.4880   16.0660    9.0470 C   0  0  0  0  0  0  0  0  0  0  0  0
   26.0810   15.6650    7.7650 C   0  0  0  0  0  0  0  0  0  0  0  0
   26.9360   14.5710    7.6410 C   0  0  0  0  0  0  0  0  0  0  0  0
   27.4380   14.2460    6.3840 C   0  0  0  0  0  0  0  0  0  0  0  0
   27.0670   15.0100    5.2850 C   0  0  0  0  0  0  0  0  0  0  0  0
   26.2090   16.0750    5.4930 C   0  0  0  0  0  0  0  0  0  0  0  0
   25.7190   16.4200    6.7060 N   0  0  0  0  0  0  0  0  0  0  0  0
   26.4330   18.0240   12.2440 C   0  0  0  0  0  0  0  0  0  0  0  0
   25.4430   17.9710   13.3100 N   0  0  0  0  0  0  0  0  0  0  0  0
   25.5440   18.8380   14.4800 C   0  0  2  0  0  0  0  0  0  0  0  0
   26.3690   20.1020   14.2450 C   0  0  0  0  0  0  0  0  0  0  0  0
   26.3540   20.9540   15.5050 C   0  0  0  0  0  0  0  0  0  0  0  0
   26.8620   20.1790   16.6980 C   0  0  0  0  0  0  0  0  0  0  0  0
   27.3210   20.7340   17.6920 O   0  0  0  0  0  0  0  0  0  0  0  0
   26.7070   18.8150   16.6600 N   0  0  0  0  0  0  0  0  0  0  0  0
   26.0760   18.0640   15.6960 C   0  0  0  0  0  0  0  0  0  0  0  0
   25.8740   16.8630   15.8760 O   0  0  0  0  0  0  0  0  0  0  0  0
   24.2730   17.3500   12.9000 C   0  0  0  0  0  0  0  0  0  0  0  0
   23.2130   17.2620   13.4860 O   0  0  0  0  0  0  0  0  0  0  0  0
   21.9070   16.3170    6.6170 C   0  0  0  0  0  0  0  0  0  0  0  0
   20.8350   17.0560    6.4100 N   0  0  0  0  0  0  0  0  0  0  0  0
   18.9504   19.6134    8.5356 H   0  0  0  0  0  0  0  0  0  0  0  0
   19.8320   19.3891    6.9867 H   0  0  0  0  0  0  0  0  0  0  0  0
   18.0430   19.5504    6.9867 H   0  0  0  0  0  0  0  0  0  0  0  0
   18.3358   17.4197    8.6617 H   0  0  0  0  0  0  0  0  0  0  0  0
   18.1284   17.2863    6.8625 H   0  0  0  0  0  0  0  0  0  0  0  0
   20.3693   15.8464    9.4839 H   0  0  0  0  0  0  0  0  0  0  0  0
   22.7007   15.7570   11.0858 H   0  0  0  0  0  0  0  0  0  0  0  0
   27.2936   17.1629    9.6158 H   0  0  0  0  0  0  0  0  0  0  0  0
   27.2098   13.9736    8.5231 H   0  0  0  0  0  0  0  0  0  0  0  0
   28.1216   13.3928    6.2623 H   0  0  0  0  0  0  0  0  0  0  0  0
   27.4443   14.7751    4.2788 H   0  0  0  0  0  0  0  0  0  0  0  0
   25.9078   16.6758    4.6222 H   0  0  0  0  0  0  0  0  0  0  0  0
   27.3866   17.5799   12.5657 H   0  0  0  0  0  0  0  0  0  0  0  0
   26.6819   19.0483   11.9295 H   0  0  0  0  0  0  0  0  0  0  0  0
   24.5181   19.1773   14.6858 H   0  0  0  0  0  0  0  0  0  0  0  0
   27.4052   19.8244   14.0015 H   0  0  0  0  0  0  0  0  0  0  0  0
   25.9383   20.6729   13.4092 H   0  0  0  0  0  0  0  0  0  0  0  0
   26.9953   21.8341   15.3500 H   0  0  0  0  0  0  0  0  0  0  0  0
   25.3163   21.2589   15.7055 H   0  0  0  0  0  0  0  0  0  0  0  0
   27.1123   18.2911   17.4488 H   0  0  0  0  0  0  0  0  0  0  0  0
   22.7004   16.1421    5.8755 H   0  0  0  0  0  0  0  0  0  0  0  0
  1  2  1  0
  2  3  1  0
  3  4  2  0
  4  5  1  0
  5  6  1  0
  6  7  2  0
  6  8  2  0
  6  9  1  0
  9 10  2  0
 10 11  1  0
 11 12  2  0
 12 13  1  0
 13 14  2  0
 14 15  1  0
 15 16  2  0
 16 17  1  0
 17 18  2  0
 18 19  1  0
 19 20  2  0
 12 21  1  0
 21 22  1  0
 22 23  1  0
 23 24  1  0
 24 25  1  0
 25 26  1  0
 26 27  2  0
 26 28  1  0
 28 29  1  0
 29 30  2  0
 22 31  1  0
 31 32  2  0
  5 33  1  0
 33 34  2  0
 34  3  1  0
 14  9  1  0
 20 15  1  0
 29 23  1  0
 31 11  1  0
  1 35  1  0
  1 36  1  0
  1 37  1  0
  2 38  1  0
  2 39  1  0
  4 40  1  0
 10 41  1  0
 13 42  1  0
 16 43  1  0
 17 44  1  0
 18 45  1  0
 19 46  1  0
 21 47  1  0
 21 48  1  0
 23 49  1  1
 24 50  1  0
 24 51  1  0
 25 52  1  0
 25 53  1  0
 28 54  1  0
 33 55  1  0
M  END
>  <meeko>  (778) 
{"is_sidechain": [true], "free_energy": -10.51, "intermolecular_energy": 0.0, "internal_energy": -10.51, "cluster_size": 18, "cluster_id": 2, "rank_in_cluster": 1}

>  <_RMSD_MCS_to_ref>  (778) 
1.7775584847387347

$$$$
ligand
     RDKit          3D

 55 59  0  0  0  0  0  0  0  0999 V2000
   18.9090   19.1540    7.5370 C   0  0  0  0  0  0  0  0  0  0  0  0
   18.7730   17.6460    7.6780 C   0  0  0  0  0  0  0  0  0  0  0  0
   20.0900   16.9580    7.6040 C   0  0  0  0  0  0  0  0  0  0  0  0
   20.6590   16.0720    8.4970 C   0  0  0  0  0  0  0  0  0  0  0  0
   21.8570   15.7460    7.9250 N   0  0  0  0  0  0  0  0  0  0  0  0
   22.9800   14.6750    8.5600 S   0  0  0  0  0  6  0  0  0  0  0  0
   23.7020   14.1960    7.3960 O   0  0  0  0  0  0  0  0  0  0  0  0
   22.2680   13.7760    9.4430 O   0  0  0  0  0  0  0  0  0  0  0  0
   24.0990   15.6540    9.5450 C   0  0  0  0  0  0  0  0  0  0  0  0
   23.6310   16.0410   10.8150 C   0  0  0  0  0  0  0  0  0  0  0  0
   24.4720   16.7960   11.6060 C   0  0  0  0  0  0  0  0  0  0  0  0
   25.7360   17.1900   11.1910 C   0  0  0  0  0  0  0  0  0  0  0  0
   26.2040   16.8260    9.9400 C   0  0  0  0  0  0  0  0  0  0  0  0
   25.3870   16.0460    9.0840 C   0  0  0  0  0  0  0  0  0  0  0  0
   25.9410   15.7050    7.7700 C   0  0  0  0  0  0  0  0  0  0  0  0
   25.6620   16.4880    6.6420 C   0  0  0  0  0  0  0  0  0  0  0  0
   26.1910   16.1410    5.4010 C   0  0  0  0  0  0  0  0  0  0  0  0
   26.9730   15.0040    5.3160 C   0  0  0  0  0  0  0  0  0  0  0  0
   27.2450   14.2060    6.3700 N   0  0  0  0  0  0  0  0  0  0  0  0
   26.7240   14.5690    7.5660 C   0  0  0  0  0  0  0  0  0  0  0  0
   26.3830   18.0230   12.2470 C   0  0  0  0  0  0  0  0  0  0  0  0
   25.4190   17.9590   13.3380 N   0  0  0  0  0  0  0  0  0  0  0  0
   25.5370   18.8310   14.5030 C   0  0  2  0  0  0  0  0  0  0  0  0
   26.3530   20.0970   14.2480 C   0  0  0  0  0  0  0  0  0  0  0  0
   26.3550   20.9560   15.5030 C   0  0  0  0  0  0  0  0  0  0  0  0
   26.8900   20.1890   16.6910 C   0  0  0  0  0  0  0  0  0  0  0  0
   27.3700   20.7520   17.6710 O   0  0  0  0  0  0  0  0  0  0  0  0
   26.7380   18.8250   16.6630 N   0  0  0  0  0  0  0  0  0  0  0  0
   26.0970   18.0650   15.7120 C   0  0  0  0  0  0  0  0  0  0  0  0
   25.9080   16.8630   15.8990 O   0  0  0  0  0  0  0  0  0  0  0  0
   24.2450   17.3310   12.9530 C   0  0  0  0  0  0  0  0  0  0  0  0
   23.2020   17.2270   13.5650 O   0  0  0  0  0  0  0  0  0  0  0  0
   22.0040   16.4380    6.7670 C   0  0  0  0  0  0  0  0  0  0  0  0
   20.9320   17.1700    6.5310 N   0  0  0  0  0  0  0  0  0  0  0  0
   18.9504   19.6134    8.5356 H   0  0  0  0  0  0  0  0  0  0  0  0
   19.8320   19.3891    6.9867 H   0  0  0  0  0  0  0  0  0  0  0  0
   18.0430   19.5504    6.9867 H   0  0  0  0  0  0  0  0  0  0  0  0
   18.3088   17.4206    8.6494 H   0  0  0  0  0  0  0  0  0  0  0  0
   18.1523   17.2817    6.8461 H   0  0  0  0  0  0  0  0  0  0  0  0
   20.2438   15.7114    9.4497 H   0  0  0  0  0  0  0  0  0  0  0  0
   22.6291   15.7513   11.1646 H   0  0  0  0  0  0  0  0  0  0  0  0
   27.2056   17.1408    9.6118 H   0  0  0  0  0  0  0  0  0  0  0  0
   25.0237   17.3788    6.7367 H   0  0  0  0  0  0  0  0  0  0  0  0
   25.9916   16.7561    4.5111 H   0  0  0  0  0  0  0  0  0  0  0  0
   27.3962   14.7353    4.3369 H   0  0  0  0  0  0  0  0  0  0  0  0
   26.9320   13.9257    8.4337 H   0  0  0  0  0  0  0  0  0  0  0  0
   27.3524   17.5994   12.5484 H   0  0  0  0  0  0  0  0  0  0  0  0
   26.6052   19.0493   11.9194 H   0  0  0  0  0  0  0  0  0  0  0  0
   24.5131   19.1653   14.7262 H   0  0  0  0  0  0  0  0  0  0  0  0
   27.3862   19.8221   13.9894 H   0  0  0  0  0  0  0  0  0  0  0  0
   25.9064   20.6615   13.4162 H   0  0  0  0  0  0  0  0  0  0  0  0
   26.9878   21.8393   15.3319 H   0  0  0  0  0  0  0  0  0  0  0  0
   25.3194   21.2564   15.7206 H   0  0  0  0  0  0  0  0  0  0  0  0
   27.1547   18.3074   17.4500 H   0  0  0  0  0  0  0  0  0  0  0  0
   22.8907   16.3948    6.1175 H   0  0  0  0  0  0  0  0  0  0  0  0
  1  2  1  0
  2  3  1  0
  3  4  2  0
  4  5  1  0
  5  6  1  0
  6  7  2  0
  6  8  2  0
  6  9  1  0
  9 10  2  0
 10 11  1  0
 11 12  2  0
 12 13  1  0
 13 14  2  0
 14 15  1  0
 15 16  2  0
 16 17  1  0
 17 18  2  0
 18 19  1  0
 19 20  2  0
 12 21  1  0
 21 22  1  0
 22 23  1  0
 23 24  1  0
 24 25  1  0
 25 26  1  0
 26 27  2  0
 26 28  1  0
 28 29  1  0
 29 30  2  0
 22 31  1  0
 31 32  2  0
  5 33  1  0
 33 34  2  0
 34  3  1  0
 14  9  1  0
 20 15  1  0
 29 23  1  0
 31 11  1  0
  1 35  1  0
  1 36  1  0
  1 37  1  0
  2 38  1  0
  2 39  1  0
  4 40  1  0
 10 41  1  0
 13 42  1  0
 16 43  1  0
 17 44  1  0
 18 45  1  0
 20 46  1  0
 21 47  1  0
 21 48  1  0
 23 49  1  1
 24 50  1  0
 24 51  1  0
 25 52  1  0
 25 53  1  0
 28 54  1  0
 33 55  1  0
M  END
>  <meeko>  (779) 
{"is_sidechain": [true], "free_energy": -10.51, "intermolecular_energy": 0.0, "internal_energy": -10.51, "cluster_size": 14, "cluster_id": 2, "rank_in_cluster": 1}

>  <_RMSD_MCS_to_ref>  (779) 
1.7613003718843645

$$$$
ligand
     RDKit          3D

 54 58  0  0  0  0  0  0  0  0999 V2000
   18.9090   19.1540    7.5370 C   0  0  0  0  0  0  0  0  0  0  0  0
   18.7730   17.6460    7.6780 C   0  0  0  0  0  0  0  0  0  0  0  0
   19.6720   16.9110    6.7480 C   0  0  0  0  0  0  0  0  0  0  0  0
   20.3010   15.6940    6.9280 C   0  0  0  0  0  0  0  0  0  0  0  0
   20.9750   15.4910    5.7570 N   0  0  0  0  0  0  0  0  0  0  0  0
   22.0230   14.2220    5.4270 S   0  0  0  0  0  6  0  0  0  0  0  0
   21.2480   13.0120    5.6370 O   0  0  0  0  0  0  0  0  0  0  0  0
   22.6400   14.5340    4.1510 O   0  0  0  0  0  0  0  0  0  0  0  0
   23.2730   14.2920    6.6760 C   0  0  0  0  0  0  0  0  0  0  0  0
   22.9610   14.8200    7.9080 C   0  0  0  0  0  0  0  0  0  0  0  0
   23.9950   14.8390    8.8210 C   0  0  0  0  0  0  0  0  0  0  0  0
   23.8490   15.3680   10.1960 C   0  0  0  0  0  0  0  0  0  0  0  0
   22.7130   15.0680   10.9970 C   0  0  0  0  0  0  0  0  0  0  0  0
   22.5680   15.5710   12.2950 C   0  0  0  0  0  0  0  0  0  0  0  0
   23.5800   16.3700   12.7830 C   0  0  0  0  0  0  0  0  0  0  0  0
   24.7110   16.6830   12.0390 C   0  0  0  0  0  0  0  0  0  0  0  0
   24.8580   16.1900   10.7510 C   0  0  0  0  0  0  0  0  0  0  0  0
   25.6140   17.5720   12.8270 C   0  0  0  0  0  0  0  0  0  0  0  0
   24.9320   17.6550   14.1140 N   0  0  0  0  0  0  0  0  0  0  0  0
   25.2880   18.6150   15.1510 C   0  0  1  0  0  0  0  0  0  0  0  0
   26.1660   18.0010   16.2380 C   0  0  0  0  0  0  0  0  0  0  0  0
   26.4190   19.0340   17.3260 C   0  0  0  0  0  0  0  0  0  0  0  0
   27.0270   20.2930   16.7520 C   0  0  0  0  0  0  0  0  0  0  0  0
   27.8660   20.9520   17.3570 O   0  0  0  0  0  0  0  0  0  0  0  0
   26.5810   20.6790   15.5130 N   0  0  0  0  0  0  0  0  0  0  0  0
   25.9950   19.8550   14.5790 C   0  0  0  0  0  0  0  0  0  0  0  0
   26.0660   20.1250   13.3830 O   0  0  0  0  0  0  0  0  0  0  0  0
   23.6950   17.0260   14.0900 C   0  0  0  0  0  0  0  0  0  0  0  0
   22.8490   17.0020   14.9620 O   0  0  0  0  0  0  0  0  0  0  0  0
   25.2280   14.3760    8.5000 N   0  0  0  0  0  0  0  0  0  0  0  0
   25.4090   13.8800    7.2670 C   0  0  0  0  0  0  0  0  0  0  0  0
   24.4790   13.8110    6.3130 N   0  0  0  0  0  0  0  0  0  0  0  0
   20.7880   16.5620    4.9440 C   0  0  0  0  0  0  0  0  0  0  0  0
   19.9870   17.4400    5.5110 N   0  0  0  0  0  0  0  0  0  0  0  0
   18.9504   19.6134    8.5356 H   0  0  0  0  0  0  0  0  0  0  0  0
   19.8320   19.3891    6.9867 H   0  0  0  0  0  0  0  0  0  0  0  0
   18.0430   19.5504    6.9867 H   0  0  0  0  0  0  0  0  0  0  0  0
   19.0238   17.3628    8.7109 H   0  0  0  0  0  0  0  0  0  0  0  0
   17.7361   17.3758    7.4292 H   0  0  0  0  0  0  0  0  0  0  0  0
   20.2669   15.0391    7.8111 H   0  0  0  0  0  0  0  0  0  0  0  0
   21.9571   15.2004    8.1480 H   0  0  0  0  0  0  0  0  0  0  0  0
   21.9247   14.4213   10.5842 H   0  0  0  0  0  0  0  0  0  0  0  0
   21.6809   15.3379   12.9023 H   0  0  0  0  0  0  0  0  0  0  0  0
   25.7548   16.4369   10.1638 H   0  0  0  0  0  0  0  0  0  0  0  0
   26.6142   17.1272   12.9352 H   0  0  0  0  0  0  0  0  0  0  0  0
   25.7837   18.5519   12.3569 H   0  0  0  0  0  0  0  0  0  0  0  0
   24.3321   18.9229   15.5999 H   0  0  0  0  0  0  0  0  0  0  0  0
   25.6564   17.1281   16.6720 H   0  0  0  0  0  0  0  0  0  0  0  0
   27.1247   17.6848   15.8012 H   0  0  0  0  0  0  0  0  0  0  0  0
   25.4644   19.2853   17.8114 H   0  0  0  0  0  0  0  0  0  0  0  0
   27.1237   18.6073   18.0550 H   0  0  0  0  0  0  0  0  0  0  0  0
   26.6945   21.6710   15.2601 H   0  0  0  0  0  0  0  0  0  0  0  0
   26.4105   13.4971    7.0213 H   0  0  0  0  0  0  0  0  0  0  0  0
   21.2426   16.6800    3.9493 H   0  0  0  0  0  0  0  0  0  0  0  0
  1  2  1  0
  2  3  1  0
  3  4  2  0
  4  5  1  0
  5  6  1  0
  6  7  2  0
  6  8  2  0
  6  9  1  0
  9 10  2  0
 10 11  1  0
 11 12  1  0
 12 13  2  0
 13 14  1  0
 14 15  2  0
 15 16  1  0
 16 17  2  0
 16 18  1  0
 18 19  1  0
 19 20  1  0
 20 21  1  0
 21 22  1  0
 22 23  1  0
 23 24  2  0
 23 25  1  0
 25 26  1  0
 26 27  2  0
 19 28  1  0
 28 29  2  0
 11 30  2  0
 30 31  1  0
 31 32  2  0
  5 33  1  0
 33 34  2  0
 34  3  1  0
 32  9  1  0
 17 12  1  0
 26 20  1  0
 28 15  1  0
  1 35  1  0
  1 36  1  0
  1 37  1  0
  2 38  1  0
  2 39  1  0
  4 40  1  0
 10 41  1  0
 13 42  1  0
 14 43  1  0
 17 44  1  0
 18 45  1  0
 18 46  1  0
 20 47  1  1
 21 48  1  0
 21 49  1  0
 22 50  1  0
 22 51  1  0
 25 52  1  0
 31 53  1  0
 33 54  1  0
M  END
>  <meeko>  (780) 
{"is_sidechain": [true], "free_energy": -10.51, "intermolecular_energy": 0.0, "internal_energy": -10.51, "cluster_size": 16, "cluster_id": 1, "rank_in_cluster": 1}

>  <_RMSD_MCS_to_ref>  (780) 
0.9334457670373784

$$$$
ligand
     RDKit          3D

 53 57  0  0  0  0  0  0  0  0999 V2000
   18.8250   19.0170    7.5350 C   0  0  0  0  0  0  0  0  0  0  0  0
   18.5200   17.5420    7.7330 C   0  0  0  0  0  0  0  0  0  0  0  0
   19.7500   16.7040    7.7520 C   0  0  0  0  0  0  0  0  0  0  0  0
   20.2150   15.8650    8.7470 C   0  0  0  0  0  0  0  0  0  0  0  0
   21.3810   15.3650    8.2440 N   0  0  0  0  0  0  0  0  0  0  0  0
   22.4550   14.3490    9.0330 S   0  0  0  0  0  6  0  0  0  0  0  0
   21.6340   13.2140    9.4170 O   0  0  0  0  0  0  0  0  0  0  0  0
   23.6080   14.1940    8.1700 O   0  0  0  0  0  0  0  0  0  0  0  0
   22.9630   15.1900   10.5180 C   0  0  0  0  0  0  0  0  0  0  0  0
   21.9860   15.2930   11.5440 C   0  0  0  0  0  0  0  0  0  0  0  0
   22.2680   15.9450   12.7430 C   0  0  0  0  0  0  0  0  0  0  0  0
   23.5340   16.4700   12.8910 C   0  0  0  0  0  0  0  0  0  0  0  0
   24.5140   16.3720   11.9030 C   0  0  0  0  0  0  0  0  0  0  0  0
   24.2560   15.7270   10.6900 C   0  0  0  0  0  0  0  0  0  0  0  0
   25.3340   15.6610    9.7080 C   0  0  0  0  0  0  0  0  0  0  0  0
   25.5090   16.4190    8.5660 C   0  0  0  0  0  0  0  0  0  0  0  0
   26.7270   16.1110    7.8950 C   0  0  0  0  0  0  0  0  0  0  0  0
   27.4470   15.1390    8.5510 C   0  0  0  0  0  0  0  0  0  0  0  0
   26.6660   14.6210    9.9810 S   0  0  0  0  0  0  0  0  0  0  0  0
   25.7660   17.0430   12.3780 C   0  0  0  0  0  0  0  0  0  0  0  0
   25.4220   17.4540   13.7320 N   0  0  0  0  0  0  0  0  0  0  0  0
   26.2200   18.3930   14.5120 C   0  0  1  0  0  0  0  0  0  0  0  0
   25.6030   19.7880   14.5590 C   0  0  0  0  0  0  0  0  0  0  0  0
   26.5310   20.7240   15.3190 C   0  0  0  0  0  0  0  0  0  0  0  0
   26.8310   20.1910   16.7000 C   0  0  0  0  0  0  0  0  0  0  0  0
   26.9640   20.9250   17.6740 O   0  0  0  0  0  0  0  0  0  0  0  0
   26.9700   18.8310   16.8160 N   0  0  0  0  0  0  0  0  0  0  0  0
   26.4460   17.8970   15.9510 C   0  0  0  0  0  0  0  0  0  0  0  0
   26.1820   16.7640   16.3440 O   0  0  0  0  0  0  0  0  0  0  0  0
   24.0940   17.2000   14.0320 C   0  0  0  0  0  0  0  0  0  0  0  0
   23.4760   17.5100   15.0310 O   0  0  0  0  0  0  0  0  0  0  0  0
   21.6240   15.9310    7.0330 C   0  0  0  0  0  0  0  0  0  0  0  0
   20.6250   16.7140    6.6810 N   0  0  0  0  0  0  0  0  0  0  0  0
   18.9260   19.5054    8.5155 H   0  0  0  0  0  0  0  0  0  0  0  0
   19.7645   19.1250    6.9731 H   0  0  0  0  0  0  0  0  0  0  0  0
   18.0054   19.4887    6.9731 H   0  0  0  0  0  0  0  0  0  0  0  0
   17.9923   17.4161    8.6899 H   0  0  0  0  0  0  0  0  0  0  0  0
   17.9028   17.2111    6.8847 H   0  0  0  0  0  0  0  0  0  0  0  0
   19.7515   15.6496    9.7211 H   0  0  0  0  0  0  0  0  0  0  0  0
   20.9906   14.8509   11.3896 H   0  0  0  0  0  0  0  0  0  0  0  0
   21.5126   16.0368   13.5373 H   0  0  0  0  0  0  0  0  0  0  0  0
   24.7899   17.1739    8.2152 H   0  0  0  0  0  0  0  0  0  0  0  0
   27.0537   16.5935    6.9620 H   0  0  0  0  0  0  0  0  0  0  0  0
   28.4102   14.7425    8.1975 H   0  0  0  0  0  0  0  0  0  0  0  0
   26.6139   16.3422   12.3806 H   0  0  0  0  0  0  0  0  0  0  0  0
   26.0801   17.8798   11.7369 H   0  0  0  0  0  0  0  0  0  0  0  0
   27.1880   18.4557   13.9933 H   0  0  0  0  0  0  0  0  0  0  0  0
   25.4627   20.1622   13.5342 H   0  0  0  0  0  0  0  0  0  0  0  0
   24.6287   19.7426   15.0677 H   0  0  0  0  0  0  0  0  0  0  0  0
   27.4735   20.8262   14.7611 H   0  0  0  0  0  0  0  0  0  0  0  0
   26.0342   21.7000   15.4221 H   0  0  0  0  0  0  0  0  0  0  0  0
   27.5122   18.4791   17.6180 H   0  0  0  0  0  0  0  0  0  0  0  0
   22.5284   15.7594    6.4308 H   0  0  0  0  0  0  0  0  0  0  0  0
  1  2  1  0
  2  3  1  0
  3  4  2  0
  4  5  1  0
  5  6  1  0
  6  7  2  0
  6  8  2  0
  6  9  1  0
  9 10  2  0
 10 11  1  0
 11 12  2  0
 12 13  1  0
 13 14  2  0
 14 15  1  0
 15 16  2  0
 16 17  1  0
 17 18  2  0
 18 19  1  0
 13 20  1  0
 20 21  1  0
 21 22  1  0
 22 23  1  0
 23 24  1  0
 24 25  1  0
 25 26  2  0
 25 27  1  0
 27 28  1  0
 28 29  2  0
 21 30  1  0
 30 31  2  0
  5 32  1  0
 32 33  2  0
 33  3  1  0
 14  9  1  0
 19 15  1  0
 28 22  1  0
 30 12  1  0
  1 34  1  0
  1 35  1  0
  1 36  1  0
  2 37  1  0
  2 38  1  0
  4 39  1  0
 10 40  1  0
 11 41  1  0
 16 42  1  0
 17 43  1  0
 18 44  1  0
 20 45  1  0
 20 46  1  0
 22 47  1  6
 23 48  1  0
 23 49  1  0
 24 50  1  0
 24 51  1  0
 27 52  1  0
 32 53  1  0
M  END
>  <meeko>  (781) 
{"is_sidechain": [true], "free_energy": -10.5, "intermolecular_energy": 0.0, "internal_energy": -10.5, "cluster_size": 10, "cluster_id": 1, "rank_in_cluster": 1}

>  <_RMSD_MCS_to_ref>  (781) 
1.8231853992394744

$$$$
ligand
     RDKit          3D

 47 50  0  0  0  0  0  0  0  0999 V2000
   18.8250   19.0170    7.5350 C   0  0  0  0  0  0  0  0  0  0  0  0
   18.5200   17.5420    7.7330 C   0  0  0  0  0  0  0  0  0  0  0  0
   19.7210   16.7710    8.1580 C   0  0  0  0  0  0  0  0  0  0  0  0
   19.9200   16.0420    9.3130 C   0  0  0  0  0  0  0  0  0  0  0  0
   21.1800   15.5350    9.1790 N   0  0  0  0  0  0  0  0  0  0  0  0
   22.0770   14.8060   10.3930 S   0  0  0  0  0  6  0  0  0  0  0  0
   21.4640   15.2060   11.6460 O   0  0  0  0  0  0  0  0  0  0  0  0
   22.2100   13.4130   10.0060 O   0  0  0  0  0  0  0  0  0  0  0  0
   23.6900   15.4940   10.3710 C   0  0  0  0  0  0  0  0  0  0  0  0
   24.0650   16.2740   11.3550 N   0  0  0  0  0  0  0  0  0  0  0  0
   25.3480   16.8100   11.2910 C   0  0  0  0  0  0  0  0  0  0  0  0
   25.8070   17.7100   12.4170 C   0  0  0  0  0  0  0  0  0  0  0  0
   26.9160   18.2260   12.4590 O   0  0  0  0  0  0  0  0  0  0  0  0
   24.8510   17.8720   13.3880 N   0  0  0  0  0  0  0  0  0  0  0  0
   25.0970   18.6060   14.6150 C   0  0  1  0  0  0  0  0  0  0  0  0
   26.1050   17.8840   15.5030 C   0  0  0  0  0  0  0  0  0  0  0  0
   26.3490   18.7020   16.7610 C   0  0  0  0  0  0  0  0  0  0  0  0
   26.7990   20.1040   16.4280 C   0  0  0  0  0  0  0  0  0  0  0  0
   27.5570   20.7430   17.1510 O   0  0  0  0  0  0  0  0  0  0  0  0
   26.2830   20.6620   15.2830 N   0  0  0  0  0  0  0  0  0  0  0  0
   25.6260   20.0030   14.2720 C   0  0  0  0  0  0  0  0  0  0  0  0
   25.4580   20.5370   13.1760 O   0  0  0  0  0  0  0  0  0  0  0  0
   26.2220   16.5830   10.2900 C   0  0  0  0  0  0  0  0  0  0  0  0
   25.8160   15.7390    9.2330 C   0  0  0  0  0  0  0  0  0  0  0  0
   26.3510   15.2490    8.0680 C   0  0  0  0  0  0  0  0  0  0  0  0
   25.4460   14.4390    7.4310 N   0  0  0  0  0  0  0  0  0  0  0  0
   24.3740   14.4330    8.1940 C   0  0  0  0  0  0  0  0  0  0  0  0
   24.5440   15.2100    9.3100 N   0  0  0  0  0  0  0  0  0  0  0  0
   21.7190   15.9890    8.0180 C   0  0  0  0  0  0  0  0  0  0  0  0
   20.8520   16.7360    7.3660 N   0  0  0  0  0  0  0  0  0  0  0  0
   18.9260   19.5054    8.5155 H   0  0  0  0  0  0  0  0  0  0  0  0
   19.7645   19.1250    6.9731 H   0  0  0  0  0  0  0  0  0  0  0  0
   18.0054   19.4887    6.9731 H   0  0  0  0  0  0  0  0  0  0  0  0
   17.7431   17.4415    8.5052 H   0  0  0  0  0  0  0  0  0  0  0  0
   18.1814   17.1350    6.7688 H   0  0  0  0  0  0  0  0  0  0  0  0
   19.2216   15.9015   10.1512 H   0  0  0  0  0  0  0  0  0  0  0  0
   23.9207   17.4555   13.2397 H   0  0  0  0  0  0  0  0  0  0  0  0
   24.1488   18.6829   15.1673 H   0  0  0  0  0  0  0  0  0  0  0  0
   25.7086   16.8958   15.7793 H   0  0  0  0  0  0  0  0  0  0  0  0
   27.0518   17.7596   14.9570 H   0  0  0  0  0  0  0  0  0  0  0  0
   25.4156   18.7540   17.3407 H   0  0  0  0  0  0  0  0  0  0  0  0
   27.1436   18.2126   17.3434 H   0  0  0  0  0  0  0  0  0  0  0  0
   26.4009   21.6791   15.1712 H   0  0  0  0  0  0  0  0  0  0  0  0
   27.2218   17.0416   10.2963 H   0  0  0  0  0  0  0  0  0  0  0  0
   27.3621   15.4740    7.6977 H   0  0  0  0  0  0  0  0  0  0  0  0
   23.4551   13.8736    7.9645 H   0  0  0  0  0  0  0  0  0  0  0  0
   22.7381   15.7641    7.6705 H   0  0  0  0  0  0  0  0  0  0  0  0
  1  2  1  0
  2  3  1  0
  3  4  2  0
  4  5  1  0
  5  6  1  0
  6  7  2  0
  6  8  2  0
  6  9  1  0
  9 10  2  0
 10 11  1  0
 11 12  1  0
 12 13  2  0
 12 14  1  0
 14 15  1  0
 15 16  1  0
 16 17  1  0
 17 18  1  0
 18 19  2  0
 18 20  1  0
 20 21  1  0
 21 22  2  0
 11 23  2  0
 23 24  1  0
 24 25  2  0
 25 26  1  0
 26 27  2  0
 27 28  1  0
  5 29  1  0
 29 30  2  0
 30  3  1  0
 28  9  1  0
 21 15  1  0
 28 24  1  0
  1 31  1  0
  1 32  1  0
  1 33  1  0
  2 34  1  0
  2 35  1  0
  4 36  1  0
 14 37  1  0
 15 38  1  1
 16 39  1  0
 16 40  1  0
 17 41  1  0
 17 42  1  0
 20 43  1  0
 23 44  1  0
 25 45  1  0
 27 46  1  0
 29 47  1  0
M  END
>  <meeko>  (782) 
{"is_sidechain": [true], "free_energy": -10.5, "intermolecular_energy": 0.0, "internal_energy": -10.5, "cluster_size": 6, "cluster_id": 1, "rank_in_cluster": 1}

>  <_RMSD_MCS_to_ref>  (782) 
0.5019641421456315

$$$$
ligand
     RDKit          3D

 55 59  0  0  0  0  0  0  0  0999 V2000
   18.8250   19.0170    7.5350 C   0  0  0  0  0  0  0  0  0  0  0  0
   18.5200   17.5420    7.7330 C   0  0  0  0  0  0  0  0  0  0  0  0
   19.7550   16.7130    7.7750 C   0  0  0  0  0  0  0  0  0  0  0  0
   20.3330   16.0730    8.8540 C   0  0  0  0  0  0  0  0  0  0  0  0
   21.4500   15.4850    8.3330 N   0  0  0  0  0  0  0  0  0  0  0  0
   22.5060   14.4640    9.1450 S   0  0  0  0  0  6  0  0  0  0  0  0
   21.7530   13.2820    9.5190 O   0  0  0  0  0  0  0  0  0  0  0  0
   23.6620   14.3820    8.2700 O   0  0  0  0  0  0  0  0  0  0  0  0
   22.9940   15.3010   10.6380 C   0  0  0  0  0  0  0  0  0  0  0  0
   22.0180   15.4170   11.6600 C   0  0  0  0  0  0  0  0  0  0  0  0
   22.3200   16.0480   12.8670 C   0  0  0  0  0  0  0  0  0  0  0  0
   23.5980   16.5410   13.0180 C   0  0  0  0  0  0  0  0  0  0  0  0
   24.5690   16.4440   12.0180 C   0  0  0  0  0  0  0  0  0  0  0  0
   24.2900   15.8410   10.7900 C   0  0  0  0  0  0  0  0  0  0  0  0
   25.3360   15.7810    9.7740 C   0  0  0  0  0  0  0  0  0  0  0  0
   26.5080   15.0520    9.9380 C   0  0  0  0  0  0  0  0  0  0  0  0
   27.4390   15.0470    8.9020 C   0  0  0  0  0  0  0  0  0  0  0  0
   27.1690   15.7560    7.7380 C   0  0  0  0  0  0  0  0  0  0  0  0
   25.9710   16.4450    7.6560 C   0  0  0  0  0  0  0  0  0  0  0  0
   25.0500   16.4660    8.6450 N   0  0  0  0  0  0  0  0  0  0  0  0
   25.8430   17.0710   12.4930 C   0  0  0  0  0  0  0  0  0  0  0  0
   25.5160   17.4670   13.8580 N   0  0  0  0  0  0  0  0  0  0  0  0
   26.3510   18.3580   14.6550 C   0  0  1  0  0  0  0  0  0  0  0  0
   25.8560   19.8010   14.6310 C   0  0  0  0  0  0  0  0  0  0  0  0
   26.8220   20.6790   15.4130 C   0  0  0  0  0  0  0  0  0  0  0  0
   27.0040   20.1660   16.8230 C   0  0  0  0  0  0  0  0  0  0  0  0
   27.1500   20.9180   17.7820 O   0  0  0  0  0  0  0  0  0  0  0  0
   27.0150   18.8040   16.9840 N   0  0  0  0  0  0  0  0  0  0  0  0
   26.4610   17.8910   16.1170 C   0  0  0  0  0  0  0  0  0  0  0  0
   26.0830   16.7960   16.5260 O   0  0  0  0  0  0  0  0  0  0  0  0
   24.1870   17.2360   14.1680 C   0  0  0  0  0  0  0  0  0  0  0  0
   23.5860   17.5390   15.1800 O   0  0  0  0  0  0  0  0  0  0  0  0
   21.4920   15.7160    6.9950 C   0  0  0  0  0  0  0  0  0  0  0  0
   20.4860   16.4820    6.6260 N   0  0  0  0  0  0  0  0  0  0  0  0
   18.9260   19.5054    8.5155 H   0  0  0  0  0  0  0  0  0  0  0  0
   19.7645   19.1250    6.9731 H   0  0  0  0  0  0  0  0  0  0  0  0
   18.0054   19.4887    6.9731 H   0  0  0  0  0  0  0  0  0  0  0  0
   17.9770   17.4168    8.6814 H   0  0  0  0  0  0  0  0  0  0  0  0
   17.9158   17.2045    6.8780 H   0  0  0  0  0  0  0  0  0  0  0  0
   19.9757   16.0437    9.8939 H   0  0  0  0  0  0  0  0  0  0  0  0
   21.0110   15.0046   11.4993 H   0  0  0  0  0  0  0  0  0  0  0  0
   21.5694   16.1479   13.6649 H   0  0  0  0  0  0  0  0  0  0  0  0
   26.6961   14.4914   10.8655 H   0  0  0  0  0  0  0  0  0  0  0  0
   28.3799   14.4865    9.0045 H   0  0  0  0  0  0  0  0  0  0  0  0
   27.8871   15.7695    6.9048 H   0  0  0  0  0  0  0  0  0  0  0  0
   25.7568   17.0066    6.7347 H   0  0  0  0  0  0  0  0  0  0  0  0
   26.6711   16.3472   12.4776 H   0  0  0  0  0  0  0  0  0  0  0  0
   26.1782   17.9088   11.8639 H   0  0  0  0  0  0  0  0  0  0  0  0
   27.3460   18.3203   14.1875 H   0  0  0  0  0  0  0  0  0  0  0  0
   25.8004   20.1528   13.5903 H   0  0  0  0  0  0  0  0  0  0  0  0
   24.8572   19.8548   15.0888 H   0  0  0  0  0  0  0  0  0  0  0  0
   27.7969   20.6829   14.9035 H   0  0  0  0  0  0  0  0  0  0  0  0
   26.4075   21.6967   15.4623 H   0  0  0  0  0  0  0  0  0  0  0  0
   27.4777   18.4331   17.8262 H   0  0  0  0  0  0  0  0  0  0  0  0
   22.2594   15.3186    6.3144 H   0  0  0  0  0  0  0  0  0  0  0  0
  1  2  1  0
  2  3  1  0
  3  4  2  0
  4  5  1  0
  5  6  1  0
  6  7  2  0
  6  8  2  0
  6  9  1  0
  9 10  2  0
 10 11  1  0
 11 12  2  0
 12 13  1  0
 13 14  2  0
 14 15  1  0
 15 16  2  0
 16 17  1  0
 17 18  2  0
 18 19  1  0
 19 20  2  0
 13 21  1  0
 21 22  1  0
 22 23  1  0
 23 24  1  0
 24 25  1  0
 25 26  1  0
 26 27  2  0
 26 28  1  0
 28 29  1  0
 29 30  2  0
 22 31  1  0
 31 32  2  0
  5 33  1  0
 33 34  2  0
 34  3  1  0
 14  9  1  0
 20 15  1  0
 29 23  1  0
 31 12  1  0
  1 35  1  0
  1 36  1  0
  1 37  1  0
  2 38  1  0
  2 39  1  0
  4 40  1  0
 10 41  1  0
 11 42  1  0
 16 43  1  0
 17 44  1  0
 18 45  1  0
 19 46  1  0
 21 47  1  0
 21 48  1  0
 23 49  1  6
 24 50  1  0
 24 51  1  0
 25 52  1  0
 25 53  1  0
 28 54  1  0
 33 55  1  0
M  END
>  <meeko>  (783) 
{"is_sidechain": [true], "free_energy": -10.5, "intermolecular_energy": 0.0, "internal_energy": -10.5, "cluster_size": 18, "cluster_id": 1, "rank_in_cluster": 1}

>  <_RMSD_MCS_to_ref>  (783) 
1.8824988121583976

$$$$
ligand
     RDKit          3D

 55 59  0  0  0  0  0  0  0  0999 V2000
   18.8250   19.0180    7.5350 C   0  0  0  0  0  0  0  0  0  0  0  0
   18.5200   17.5410    7.7330 C   0  0  0  0  0  0  0  0  0  0  0  0
   19.7550   16.7120    7.7290 C   0  0  0  0  0  0  0  0  0  0  0  0
   20.3210   15.9880    8.7610 C   0  0  0  0  0  0  0  0  0  0  0  0
   21.4550   15.4610    8.2120 N   0  0  0  0  0  0  0  0  0  0  0  0
   22.5380   14.4450    8.9880 S   0  0  0  0  0  6  0  0  0  0  0  0
   21.7350   13.2980    9.3660 O   0  0  0  0  0  0  0  0  0  0  0  0
   23.6970   14.3150    8.1270 O   0  0  0  0  0  0  0  0  0  0  0  0
   23.0450   15.2890   10.4780 C   0  0  0  0  0  0  0  0  0  0  0  0
   22.0430   15.4520   11.4700 C   0  0  0  0  0  0  0  0  0  0  0  0
   22.3200   16.0970   12.6740 C   0  0  0  0  0  0  0  0  0  0  0  0
   23.6080   16.5520   12.8590 C   0  0  0  0  0  0  0  0  0  0  0  0
   24.6130   16.3970   11.9010 C   0  0  0  0  0  0  0  0  0  0  0  0
   24.3650   15.7620   10.6770 C   0  0  0  0  0  0  0  0  0  0  0  0
   25.4680   15.6190    9.7220 C   0  0  0  0  0  0  0  0  0  0  0  0
   25.5600   16.4190    8.5780 C   0  0  0  0  0  0  0  0  0  0  0  0
   26.6050   16.2310    7.6750 C   0  0  0  0  0  0  0  0  0  0  0  0
   27.5210   15.2260    7.9300 C   0  0  0  0  0  0  0  0  0  0  0  0
   27.4540   14.4130    9.0030 N   0  0  0  0  0  0  0  0  0  0  0  0
   26.4440   14.6320    9.8740 C   0  0  0  0  0  0  0  0  0  0  0  0
   25.8850   17.0000   12.4230 C   0  0  0  0  0  0  0  0  0  0  0  0
   25.5180   17.4310   13.7650 N   0  0  0  0  0  0  0  0  0  0  0  0
   26.3310   18.3430   14.5610 C   0  0  1  0  0  0  0  0  0  0  0  0
   25.8070   19.7750   14.5300 C   0  0  0  0  0  0  0  0  0  0  0  0
   26.7510   20.6740   15.3130 C   0  0  0  0  0  0  0  0  0  0  0  0
   26.9420   20.1710   16.7260 C   0  0  0  0  0  0  0  0  0  0  0  0
   27.0870   20.9300   17.6790 O   0  0  0  0  0  0  0  0  0  0  0  0
   26.9640   18.8100   16.8950 N   0  0  0  0  0  0  0  0  0  0  0  0
   26.4400   17.8820   16.0250 C   0  0  0  0  0  0  0  0  0  0  0  0
   26.0870   16.7770   16.4310 O   0  0  0  0  0  0  0  0  0  0  0  0
   24.1680   17.2520   14.0190 C   0  0  0  0  0  0  0  0  0  0  0  0
   23.5350   17.6000   14.9950 O   0  0  0  0  0  0  0  0  0  0  0  0
   21.5220   15.8050    6.9010 C   0  0  0  0  0  0  0  0  0  0  0  0
   20.5080   16.5800    6.5790 N   0  0  0  0  0  0  0  0  0  0  0  0
   18.9258   19.5062    8.5155 H   0  0  0  0  0  0  0  0  0  0  0  0
   19.7645   19.1263    6.9731 H   0  0  0  0  0  0  0  0  0  0  0  0
   18.0053   19.4896    6.9731 H   0  0  0  0  0  0  0  0  0  0  0  0
   18.0076   17.4103    8.6975 H   0  0  0  0  0  0  0  0  0  0  0  0
   17.8856   17.2099    6.8976 H   0  0  0  0  0  0  0  0  0  0  0  0
   19.9451   15.8647    9.7874 H   0  0  0  0  0  0  0  0  0  0  0  0
   21.0309   15.0627   11.2854 H   0  0  0  0  0  0  0  0  0  0  0  0
   21.5454   16.2368   13.4424 H   0  0  0  0  0  0  0  0  0  0  0  0
   24.8062   17.1979    8.3908 H   0  0  0  0  0  0  0  0  0  0  0  0
   26.6991   16.8660    6.7817 H   0  0  0  0  0  0  0  0  0  0  0  0
   28.3481   15.0828    7.2191 H   0  0  0  0  0  0  0  0  0  0  0  0
   26.3869   13.9882   10.7641 H   0  0  0  0  0  0  0  0  0  0  0  0
   26.6923   16.2535   12.4547 H   0  0  0  0  0  0  0  0  0  0  0  0
   26.2661   17.8183   11.7944 H   0  0  0  0  0  0  0  0  0  0  0  0
   27.3287   18.3263   14.0981 H   0  0  0  0  0  0  0  0  0  0  0  0
   25.7490   20.1223   13.4879 H   0  0  0  0  0  0  0  0  0  0  0  0
   24.8052   19.8101   14.9829 H   0  0  0  0  0  0  0  0  0  0  0  0
   27.7268   20.6973   14.8059 H   0  0  0  0  0  0  0  0  0  0  0  0
   26.3126   21.6818   15.3592 H   0  0  0  0  0  0  0  0  0  0  0  0
   27.4129   18.4507   17.7496 H   0  0  0  0  0  0  0  0  0  0  0  0
   22.3114   15.4821    6.2063 H   0  0  0  0  0  0  0  0  0  0  0  0
  1  2  1  0
  2  3  1  0
  3  4  2  0
  4  5  1  0
  5  6  1  0
  6  7  2  0
  6  8  2  0
  6  9  1  0
  9 10  2  0
 10 11  1  0
 11 12  2  0
 12 13  1  0
 13 14  2  0
 14 15  1  0
 15 16  2  0
 16 17  1  0
 17 18  2  0
 18 19  1  0
 19 20  2  0
 13 21  1  0
 21 22  1  0
 22 23  1  0
 23 24  1  0
 24 25  1  0
 25 26  1  0
 26 27  2  0
 26 28  1  0
 28 29  1  0
 29 30  2  0
 22 31  1  0
 31 32  2  0
  5 33  1  0
 33 34  2  0
 34  3  1  0
 14  9  1  0
 20 15  1  0
 29 23  1  0
 31 12  1  0
  1 35  1  0
  1 36  1  0
  1 37  1  0
  2 38  1  0
  2 39  1  0
  4 40  1  0
 10 41  1  0
 11 42  1  0
 16 43  1  0
 17 44  1  0
 18 45  1  0
 20 46  1  0
 21 47  1  0
 21 48  1  0
 23 49  1  6
 24 50  1  0
 24 51  1  0
 25 52  1  0
 25 53  1  0
 28 54  1  0
 33 55  1  0
M  END
>  <meeko>  (784) 
{"is_sidechain": [true], "free_energy": -10.5, "intermolecular_energy": 0.0, "internal_energy": -10.5, "cluster_size": 13, "cluster_id": 1, "rank_in_cluster": 1}

>  <_RMSD_MCS_to_ref>  (784) 
1.8486817525529435

$$$$
ligand
     RDKit          3D

 48 51  0  0  0  0  0  0  0  0999 V2000
   18.7970   18.8170    7.7190 C   0  0  0  0  0  0  0  0  0  0  0  0
   18.5280   17.3290    7.8810 C   0  0  0  0  0  0  0  0  0  0  0  0
   19.7810   16.5260    7.8750 C   0  0  0  0  0  0  0  0  0  0  0  0
   20.4800   16.0010    8.9430 C   0  0  0  0  0  0  0  0  0  0  0  0
   21.5520   15.3800    8.3700 N   0  0  0  0  0  0  0  0  0  0  0  0
   22.6610   14.3860    9.1480 S   0  0  0  0  0  6  0  0  0  0  0  0
   22.6010   13.1230    8.4360 O   0  0  0  0  0  0  0  0  0  0  0  0
   23.8880   15.1490    9.2600 O   0  0  0  0  0  0  0  0  0  0  0  0
   21.9720   14.1650   10.7630 C   0  0  0  0  0  0  0  0  0  0  0  0
   20.9630   13.1980   10.9450 C   0  0  0  0  0  0  0  0  0  0  0  0
   20.3790   13.0000   12.1980 C   0  0  0  0  0  0  0  0  0  0  0  0
   20.7830   13.7500   13.3060 C   0  0  0  0  0  0  0  0  0  0  0  0
   21.7940   14.6850   13.0960 C   0  0  0  0  0  0  0  0  0  0  0  0
   22.3160   15.4930   14.0580 O   0  0  0  0  0  0  0  0  0  0  0  0
   23.2870   16.2550   13.4660 C   0  0  0  0  0  0  0  0  0  0  0  0
   24.0180   17.2180   14.2600 C   0  0  0  0  0  0  0  0  0  0  0  0
   23.4810   18.0390   14.9980 O   0  0  0  0  0  0  0  0  0  0  0  0
   25.3850   17.1350   14.1320 N   0  0  0  0  0  0  0  0  0  0  0  0
   26.2930   17.9060   14.9630 C   0  0  2  0  0  0  0  0  0  0  0  0
   25.9470   17.8000   16.4440 C   0  0  0  0  0  0  0  0  0  0  0  0
   26.9120   18.6510   17.2540 C   0  0  0  0  0  0  0  0  0  0  0  0
   26.9100   20.0850   16.7780 C   0  0  0  0  0  0  0  0  0  0  0  0
   27.0810   21.0320   17.5400 O   0  0  0  0  0  0  0  0  0  0  0  0
   26.7380   20.2850   15.4320 N   0  0  0  0  0  0  0  0  0  0  0  0
   26.2220   19.3770   14.5400 C   0  0  0  0  0  0  0  0  0  0  0  0
   25.7510   19.7430   13.4630 O   0  0  0  0  0  0  0  0  0  0  0  0
   23.3780   15.9280   12.1260 C   0  0  0  0  0  0  0  0  0  0  0  0
   22.4100   14.9190   11.8710 C   0  0  0  0  0  0  0  0  0  0  0  0
   21.4690   15.5060    7.0200 C   0  0  0  0  0  0  0  0  0  0  0  0
   20.4030   16.2030    6.6860 N   0  0  0  0  0  0  0  0  0  0  0  0
   18.8815   19.2845    8.7111 H   0  0  0  0  0  0  0  0  0  0  0  0
   19.7359   18.9616    7.1643 H   0  0  0  0  0  0  0  0  0  0  0  0
   17.9682   19.2812    7.1643 H   0  0  0  0  0  0  0  0  0  0  0  0
   18.0072   17.1653    8.8360 H   0  0  0  0  0  0  0  0  0  0  0  0
   17.9143   17.0026    7.0285 H   0  0  0  0  0  0  0  0  0  0  0  0
   20.2302   16.0678   10.0122 H   0  0  0  0  0  0  0  0  0  0  0  0
   20.6313   12.5916   10.0893 H   0  0  0  0  0  0  0  0  0  0  0  0
   19.5896   12.2428   12.3146 H   0  0  0  0  0  0  0  0  0  0  0  0
   20.3248   13.6088   14.2960 H   0  0  0  0  0  0  0  0  0  0  0  0
   25.7792   16.5029   13.4207 H   0  0  0  0  0  0  0  0  0  0  0  0
   27.3060   17.5005   14.8241 H   0  0  0  0  0  0  0  0  0  0  0  0
   24.9191   18.1565   16.6065 H   0  0  0  0  0  0  0  0  0  0  0  0
   26.0271   16.7507   16.7642 H   0  0  0  0  0  0  0  0  0  0  0  0
   26.6125   18.6240   18.3121 H   0  0  0  0  0  0  0  0  0  0  0  0
   27.9259   18.2438   17.1266 H   0  0  0  0  0  0  0  0  0  0  0  0
   27.0220   21.2006   15.0554 H   0  0  0  0  0  0  0  0  0  0  0  0
   24.0709   16.3671   11.3931 H   0  0  0  0  0  0  0  0  0  0  0  0
   22.1915   15.0846    6.3056 H   0  0  0  0  0  0  0  0  0  0  0  0
  1  2  1  0
  2  3  1  0
  3  4  2  0
  4  5  1  0
  5  6  1  0
  6  7  2  0
  6  8  2  0
  6  9  1  0
  9 10  2  0
 10 11  1  0
 11 12  2  0
 12 13  1  0
 13 14  1  0
 14 15  1  0
 15 16  1  0
 16 17  2  0
 16 18  1  0
 18 19  1  0
 19 20  1  0
 20 21  1  0
 21 22  1  0
 22 23  2  0
 22 24  1  0
 24 25  1  0
 25 26  2  0
 15 27  2  0
 27 28  1  0
  5 29  1  0
 29 30  2  0
 30  3  1  0
 28  9  1  0
 28 13  2  0
 25 19  1  0
  1 31  1  0
  1 32  1  0
  1 33  1  0
  2 34  1  0
  2 35  1  0
  4 36  1  0
 10 37  1  0
 11 38  1  0
 12 39  1  0
 18 40  1  0
 19 41  1  1
 20 42  1  0
 20 43  1  0
 21 44  1  0
 21 45  1  0
 24 46  1  0
 27 47  1  0
 29 48  1  0
M  END
>  <meeko>  (785) 
{"is_sidechain": [true], "free_energy": -10.5, "intermolecular_energy": 0.0, "internal_energy": -10.5, "cluster_size": 14, "cluster_id": 1, "rank_in_cluster": 1}

>  <_RMSD_MCS_to_ref>  (785) 
0.7646684103438416

$$$$
ligand
     RDKit          3D

 47 50  0  0  0  0  0  0  0  0999 V2000
   18.7970   18.8170    7.7190 C   0  0  0  0  0  0  0  0  0  0  0  0
   18.5280   17.3290    7.8810 C   0  0  0  0  0  0  0  0  0  0  0  0
   19.7750   16.5580    8.1370 C   0  0  0  0  0  0  0  0  0  0  0  0
   20.0070   15.5660    9.0690 C   0  0  0  0  0  0  0  0  0  0  0  0
   21.3170   15.2320    8.8830 N   0  0  0  0  0  0  0  0  0  0  0  0
   22.0940   13.9100    9.5800 S   0  0  0  0  0  6  0  0  0  0  0  0
   21.0420   13.1260   10.1970 O   0  0  0  0  0  0  0  0  0  0  0  0
   22.9210   13.3680    8.5190 O   0  0  0  0  0  0  0  0  0  0  0  0
   23.0510   14.5220   10.7600 O   0  0  0  0  0  0  0  0  0  0  0  0
   24.1810   15.2030   10.4180 C   0  0  0  0  0  0  0  0  0  0  0  0
   24.7550   15.1340    9.1460 C   0  0  0  0  0  0  0  0  0  0  0  0
   25.9240   15.8640    8.8510 C   0  0  0  0  0  0  0  0  0  0  0  0
   26.5360   16.6640    9.8230 C   0  0  0  0  0  0  0  0  0  0  0  0
   25.9660   16.7040   11.0850 C   0  0  0  0  0  0  0  0  0  0  0  0
   24.8210   15.9710   11.3670 C   0  0  0  0  0  0  0  0  0  0  0  0
   24.3270   16.2130   13.0090 S   0  0  0  0  0  6  0  0  0  0  0  0
   23.0800   16.9380   13.0200 O   0  0  0  0  0  0  0  0  0  0  0  0
   24.5320   14.9880   13.7440 O   0  0  0  0  0  0  0  0  0  0  0  0
   25.6040   17.2490   13.3500 N   0  0  0  0  0  0  0  0  0  0  0  0
   25.5170   18.0680   14.5640 C   0  0  1  0  0  0  0  0  0  0  0  0
   26.5340   17.5910   15.5970 C   0  0  0  0  0  0  0  0  0  0  0  0
   26.4630   18.4790   16.8290 C   0  0  0  0  0  0  0  0  0  0  0  0
   26.6800   19.9300   16.4710 C   0  0  0  0  0  0  0  0  0  0  0  0
   27.1530   20.7380   17.2650 O   0  0  0  0  0  0  0  0  0  0  0  0
   26.2590   20.3230   15.2250 N   0  0  0  0  0  0  0  0  0  0  0  0
   25.7490   19.5370   14.2190 C   0  0  0  0  0  0  0  0  0  0  0  0
   25.4700   20.0270   13.1250 O   0  0  0  0  0  0  0  0  0  0  0  0
   26.4410   17.4960   12.2350 C   0  0  0  0  0  0  0  0  0  0  0  0
   27.4000   18.2430   12.2270 O   0  0  0  0  0  0  0  0  0  0  0  0
   21.8110   15.9350    7.8310 C   0  0  0  0  0  0  0  0  0  0  0  0
   20.9060   16.7740    7.3730 N   0  0  0  0  0  0  0  0  0  0  0  0
   18.8815   19.2845    8.7111 H   0  0  0  0  0  0  0  0  0  0  0  0
   19.7359   18.9616    7.1643 H   0  0  0  0  0  0  0  0  0  0  0  0
   17.9682   19.2812    7.1643 H   0  0  0  0  0  0  0  0  0  0  0  0
   17.8410   17.1831    8.7276 H   0  0  0  0  0  0  0  0  0  0  0  0
   18.0893   16.9605    6.9420 H   0  0  0  0  0  0  0  0  0  0  0  0
   19.2980   15.1419    9.7953 H   0  0  0  0  0  0  0  0  0  0  0  0
   24.2919   14.5064    8.3704 H   0  0  0  0  0  0  0  0  0  0  0  0
   26.3613   15.8043    7.8434 H   0  0  0  0  0  0  0  0  0  0  0  0
   27.4420   17.2433    9.5918 H   0  0  0  0  0  0  0  0  0  0  0  0
   24.5107   17.9633   14.9958 H   0  0  0  0  0  0  0  0  0  0  0  0
   26.3084   16.5524   15.8806 H   0  0  0  0  0  0  0  0  0  0  0  0
   27.5448   17.6433   15.1663 H   0  0  0  0  0  0  0  0  0  0  0  0
   25.4722   18.3687   17.2939 H   0  0  0  0  0  0  0  0  0  0  0  0
   27.2558   18.1705   17.5263 H   0  0  0  0  0  0  0  0  0  0  0  0
   26.3344   21.3293   15.0186 H   0  0  0  0  0  0  0  0  0  0  0  0
   22.8246   15.8195    7.4197 H   0  0  0  0  0  0  0  0  0  0  0  0
  1  2  1  0
  2  3  1  0
  3  4  2  0
  4  5  1  0
  5  6  1  0
  6  7  2  0
  6  8  2  0
  6  9  1  0
  9 10  1  0
 10 11  2  0
 11 12  1  0
 12 13  2  0
 13 14  1  0
 14 15  2  0
 15 16  1  0
 16 17  2  0
 16 18  2  0
 16 19  1  0
 19 20  1  0
 20 21  1  0
 21 22  1  0
 22 23  1  0
 23 24  2  0
 23 25  1  0
 25 26  1  0
 26 27  2  0
 19 28  1  0
 28 29  2  0
  5 30  1  0
 30 31  2  0
 31  3  1  0
 15 10  1  0
 26 20  1  0
 28 14  1  0
  1 32  1  0
  1 33  1  0
  1 34  1  0
  2 35  1  0
  2 36  1  0
  4 37  1  0
 11 38  1  0
 12 39  1  0
 13 40  1  0
 20 41  1  1
 21 42  1  0
 21 43  1  0
 22 44  1  0
 22 45  1  0
 25 46  1  0
 30 47  1  0
M  END
>  <meeko>  (786) 
{"is_sidechain": [true], "free_energy": -10.5, "intermolecular_energy": 0.0, "internal_energy": -10.5, "cluster_size": 13, "cluster_id": 1, "rank_in_cluster": 1}

>  <_RMSD_MCS_to_ref>  (786) 
0.5685860630644323

$$$$
ligand
     RDKit          3D

 54 58  0  0  0  0  0  0  0  0999 V2000
   18.7980   18.8170    7.7190 C   0  0  0  0  0  0  0  0  0  0  0  0
   18.5270   17.3290    7.8810 C   0  0  0  0  0  0  0  0  0  0  0  0
   19.7810   16.5530    8.0770 C   0  0  0  0  0  0  0  0  0  0  0  0
   20.7060   16.1410    7.1380 C   0  0  0  0  0  0  0  0  0  0  0  0
   21.6620   15.5010    7.8730 N   0  0  0  0  0  0  0  0  0  0  0  0
   23.0610   14.8010    7.2690 S   0  0  0  0  0  6  0  0  0  0  0  0
   24.1110   15.7190    7.6690 O   0  0  0  0  0  0  0  0  0  0  0  0
   22.8130   14.4920    5.8750 O   0  0  0  0  0  0  0  0  0  0  0  0
   23.2870   13.3070    8.1360 C   0  0  0  0  0  0  0  0  0  0  0  0
   22.7680   12.1500    7.5970 C   0  0  0  0  0  0  0  0  0  0  0  0
   22.9230   10.9350    8.1600 N   0  0  0  0  0  0  0  0  0  0  0  0
   23.6220   10.9040    9.2990 C   0  0  0  0  0  0  0  0  0  0  0  0
   24.1650   11.9690    9.9050 N   0  0  0  0  0  0  0  0  0  0  0  0
   23.9800   13.1800    9.3230 C   0  0  0  0  0  0  0  0  0  0  0  0
   24.5860   14.2800   10.0860 C   0  0  0  0  0  0  0  0  0  0  0  0
   25.8100   14.8500    9.6480 C   0  0  0  0  0  0  0  0  0  0  0  0
   26.4160   15.9010   10.3410 C   0  0  0  0  0  0  0  0  0  0  0  0
   25.7830   16.3580   11.4770 C   0  0  0  0  0  0  0  0  0  0  0  0
   24.5930   15.8070   11.9480 C   0  0  0  0  0  0  0  0  0  0  0  0
   23.9890   14.7600   11.2690 C   0  0  0  0  0  0  0  0  0  0  0  0
   24.1750   16.4930   13.2060 C   0  0  0  0  0  0  0  0  0  0  0  0
   25.1800   17.5390   13.3460 N   0  0  0  0  0  0  0  0  0  0  0  0
   25.3490   18.3360   14.5550 C   0  0  1  0  0  0  0  0  0  0  0  0
   26.3470   17.7170   15.5280 C   0  0  0  0  0  0  0  0  0  0  0  0
   26.3990   18.5520   16.7980 C   0  0  0  0  0  0  0  0  0  0  0  0
   26.7310   19.9940   16.4880 C   0  0  0  0  0  0  0  0  0  0  0  0
   27.4260   20.6810   17.2300 O   0  0  0  0  0  0  0  0  0  0  0  0
   26.1990   20.5110   15.3350 N   0  0  0  0  0  0  0  0  0  0  0  0
   25.7840   19.7790   14.2460 C   0  0  0  0  0  0  0  0  0  0  0  0
   25.7890   20.2810   13.1240 O   0  0  0  0  0  0  0  0  0  0  0  0
   26.1850   17.4280   12.3950 C   0  0  0  0  0  0  0  0  0  0  0  0
   27.2130   18.0730   12.3130 O   0  0  0  0  0  0  0  0  0  0  0  0
   21.2910   15.4870    9.1780 C   0  0  0  0  0  0  0  0  0  0  0  0
   20.1580   16.1370    9.3390 N   0  0  0  0  0  0  0  0  0  0  0  0
   18.8831   19.2843    8.7111 H   0  0  0  0  0  0  0  0  0  0  0  0
   19.7370   18.9604    7.1644 H   0  0  0  0  0  0  0  0  0  0  0  0
   17.9698   19.2823    7.1644 H   0  0  0  0  0  0  0  0  0  0  0  0
   17.8764   17.1795    8.7553 H   0  0  0  0  0  0  0  0  0  0  0  0
   18.0446   16.9690    6.9603 H   0  0  0  0  0  0  0  0  0  0  0  0
   20.6788   16.2934    6.0489 H   0  0  0  0  0  0  0  0  0  0  0  0
   22.1978   12.2214    6.6590 H   0  0  0  0  0  0  0  0  0  0  0  0
   23.7631    9.9240    9.7782 H   0  0  0  0  0  0  0  0  0  0  0  0
   26.2927   14.4551    8.7419 H   0  0  0  0  0  0  0  0  0  0  0  0
   27.3603   16.3459    9.9940 H   0  0  0  0  0  0  0  0  0  0  0  0
   23.0588   14.3111   11.6475 H   0  0  0  0  0  0  0  0  0  0  0  0
   23.1666   16.9215   13.1085 H   0  0  0  0  0  0  0  0  0  0  0  0
   24.1200   15.8198   14.0742 H   0  0  0  0  0  0  0  0  0  0  0  0
   24.3565   18.3537   15.0289 H   0  0  0  0  0  0  0  0  0  0  0  0
   26.0315   16.6926   15.7750 H   0  0  0  0  0  0  0  0  0  0  0  0
   27.3442   17.6910   15.0644 H   0  0  0  0  0  0  0  0  0  0  0  0
   25.4198   18.5081   17.2972 H   0  0  0  0  0  0  0  0  0  0  0  0
   27.1847   18.1453   17.4516 H   0  0  0  0  0  0  0  0  0  0  0  0
   26.1016   21.5349   15.2790 H   0  0  0  0  0  0  0  0  0  0  0  0
   21.8569   15.0013    9.9867 H   0  0  0  0  0  0  0  0  0  0  0  0
  1  2  1  0
  2  3  1  0
  3  4  2  0
  4  5  1  0
  5  6  1  0
  6  7  2  0
  6  8  2  0
  6  9  1  0
  9 10  2  0
 10 11  1  0
 11 12  2  0
 12 13  1  0
 13 14  2  0
 14 15  1  0
 15 16  2  0
 16 17  1  0
 17 18  2  0
 18 19  1  0
 19 20  2  0
 19 21  1  0
 21 22  1  0
 22 23  1  0
 23 24  1  0
 24 25  1  0
 25 26  1  0
 26 27  2  0
 26 28  1  0
 28 29  1  0
 29 30  2  0
 22 31  1  0
 31 32  2  0
  5 33  1  0
 33 34  2  0
 34  3  1  0
 14  9  1  0
 20 15  1  0
 29 23  1  0
 31 18  1  0
  1 35  1  0
  1 36  1  0
  1 37  1  0
  2 38  1  0
  2 39  1  0
  4 40  1  0
 10 41  1  0
 12 42  1  0
 16 43  1  0
 17 44  1  0
 20 45  1  0
 21 46  1  0
 21 47  1  0
 23 48  1  1
 24 49  1  0
 24 50  1  0
 25 51  1  0
 25 52  1  0
 28 53  1  0
 33 54  1  0
M  END
>  <meeko>  (787) 
{"is_sidechain": [true], "free_energy": -10.5, "intermolecular_energy": 0.0, "internal_energy": -10.5, "cluster_size": 20, "cluster_id": 1, "rank_in_cluster": 1}

>  <_RMSD_MCS_to_ref>  (787) 
1.994983249720826

$$$$
ligand
     RDKit          3D

 54 58  0  0  0  0  0  0  0  0999 V2000
   18.7970   18.8170    7.7190 C   0  0  0  0  0  0  0  0  0  0  0  0
   18.5280   17.3290    7.8810 C   0  0  0  0  0  0  0  0  0  0  0  0
   19.4180   16.5020    7.0220 C   0  0  0  0  0  0  0  0  0  0  0  0
   20.7560   16.6840    6.7340 C   0  0  0  0  0  0  0  0  0  0  0  0
   21.0660   15.6420    5.9070 N   0  0  0  0  0  0  0  0  0  0  0  0
   22.6080   15.2110    5.3940 S   0  0  0  0  0  6  0  0  0  0  0  0
   22.4080   14.2750    4.3030 O   0  0  0  0  0  0  0  0  0  0  0  0
   23.3270   16.4600    5.2230 O   0  0  0  0  0  0  0  0  0  0  0  0
   23.3130   14.3440    6.7470 C   0  0  0  0  0  0  0  0  0  0  0  0
   23.7850   13.0650    6.5660 C   0  0  0  0  0  0  0  0  0  0  0  0
   24.3220   12.3740    7.5960 N   0  0  0  0  0  0  0  0  0  0  0  0
   24.3610   13.0270    8.7920 C   0  0  0  0  0  0  0  0  0  0  0  0
   23.8920   14.3310    8.9770 C   0  0  0  0  0  0  0  0  0  0  0  0
   23.9310   15.0610   10.2630 C   0  0  0  0  0  0  0  0  0  0  0  0
   22.7480   15.3890   10.9790 C   0  0  0  0  0  0  0  0  0  0  0  0
   22.7880   16.0780   12.1980 C   0  0  0  0  0  0  0  0  0  0  0  0
   24.0270   16.4270   12.6920 C   0  0  0  0  0  0  0  0  0  0  0  0
   25.2090   16.1220   12.0280 C   0  0  0  0  0  0  0  0  0  0  0  0
   25.1750   15.4410   10.8220 C   0  0  0  0  0  0  0  0  0  0  0  0
   26.3750   16.6490   12.7930 C   0  0  0  0  0  0  0  0  0  0  0  0
   25.7530   17.1740   14.0010 N   0  0  0  0  0  0  0  0  0  0  0  0
   26.5070   17.9890   14.9470 C   0  0  2  0  0  0  0  0  0  0  0  0
   26.0270   17.8560   16.3920 C   0  0  0  0  0  0  0  0  0  0  0  0
   26.9170   18.6930   17.2970 C   0  0  0  0  0  0  0  0  0  0  0  0
   26.9380   20.1390   16.8590 C   0  0  0  0  0  0  0  0  0  0  0  0
   27.2110   21.0530   17.6310 O   0  0  0  0  0  0  0  0  0  0  0  0
   26.7180   20.3820   15.5260 N   0  0  0  0  0  0  0  0  0  0  0  0
   26.5240   19.4640   14.5180 C   0  0  0  0  0  0  0  0  0  0  0  0
   26.4740   19.8320   13.3460 O   0  0  0  0  0  0  0  0  0  0  0  0
   24.3680   17.1440   13.9250 C   0  0  0  0  0  0  0  0  0  0  0  0
   23.5550   17.6200   14.6930 O   0  0  0  0  0  0  0  0  0  0  0  0
   23.3480   15.0060    7.9310 N   0  0  0  0  0  0  0  0  0  0  0  0
   19.9630   14.8650    5.7390 C   0  0  0  0  0  0  0  0  0  0  0  0
   18.9380   15.3650    6.3990 N   0  0  0  0  0  0  0  0  0  0  0  0
   18.8815   19.2845    8.7111 H   0  0  0  0  0  0  0  0  0  0  0  0
   19.7359   18.9616    7.1643 H   0  0  0  0  0  0  0  0  0  0  0  0
   17.9682   19.2812    7.1643 H   0  0  0  0  0  0  0  0  0  0  0  0
   18.6923   17.0514    8.9326 H   0  0  0  0  0  0  0  0  0  0  0  0
   17.4889   17.1376    7.5750 H   0  0  0  0  0  0  0  0  0  0  0  0
   21.4206   17.4852    7.0894 H   0  0  0  0  0  0  0  0  0  0  0  0
   23.7248   12.5990    5.5714 H   0  0  0  0  0  0  0  0  0  0  0  0
   24.7847   12.4990    9.6590 H   0  0  0  0  0  0  0  0  0  0  0  0
   21.7731   15.0934   10.5641 H   0  0  0  0  0  0  0  0  0  0  0  0
   21.8654   16.3311   12.7408 H   0  0  0  0  0  0  0  0  0  0  0  0
   26.1119   15.1962   10.3002 H   0  0  0  0  0  0  0  0  0  0  0  0
   27.0890   15.8467   13.0308 H   0  0  0  0  0  0  0  0  0  0  0  0
   26.9574   17.4003   12.2394 H   0  0  0  0  0  0  0  0  0  0  0  0
   27.5339   17.5952   14.9249 H   0  0  0  0  0  0  0  0  0  0  0  0
   24.9885   18.2106   16.4682 H   0  0  0  0  0  0  0  0  0  0  0  0
   26.0761   16.8013   16.7006 H   0  0  0  0  0  0  0  0  0  0  0  0
   26.5357   18.6359   18.3272 H   0  0  0  0  0  0  0  0  0  0  0  0
   27.9417   18.2973   17.2396 H   0  0  0  0  0  0  0  0  0  0  0  0
   26.6952   21.3727   15.2452 H   0  0  0  0  0  0  0  0  0  0  0  0
   19.9308   13.9459    5.1355 H   0  0  0  0  0  0  0  0  0  0  0  0
  1  2  1  0
  2  3  1  0
  3  4  2  0
  4  5  1  0
  5  6  1  0
  6  7  2  0
  6  8  2  0
  6  9  1  0
  9 10  2  0
 10 11  1  0
 11 12  2  0
 12 13  1  0
 13 14  1  0
 14 15  2  0
 15 16  1  0
 16 17  2  0
 17 18  1  0
 18 19  2  0
 18 20  1  0
 20 21  1  0
 21 22  1  0
 22 23  1  0
 23 24  1  0
 24 25  1  0
 25 26  2  0
 25 27  1  0
 27 28  1  0
 28 29  2  0
 21 30  1  0
 30 31  2  0
 13 32  2  0
  5 33  1  0
 33 34  2  0
 34  3  1  0
 32  9  1  0
 19 14  1  0
 28 22  1  0
 30 17  1  0
  1 35  1  0
  1 36  1  0
  1 37  1  0
  2 38  1  0
  2 39  1  0
  4 40  1  0
 10 41  1  0
 12 42  1  0
 15 43  1  0
 16 44  1  0
 19 45  1  0
 20 46  1  0
 20 47  1  0
 22 48  1  1
 23 49  1  0
 23 50  1  0
 24 51  1  0
 24 52  1  0
 27 53  1  0
 33 54  1  0
M  END
>  <meeko>  (788) 
{"is_sidechain": [true], "free_energy": -10.5, "intermolecular_energy": 0.0, "internal_energy": -10.5, "cluster_size": 12, "cluster_id": 1, "rank_in_cluster": 1}

>  <_RMSD_MCS_to_ref>  (788) 
0.9152809526163113

$$$$
ligand
     RDKit          3D

 48 51  0  0  0  0  0  0  0  0999 V2000
   18.9090   19.1530    7.5370 C   0  0  0  0  0  0  0  0  0  0  0  0
   18.7730   17.6470    7.6780 C   0  0  0  0  0  0  0  0  0  0  0  0
   20.0870   16.9780    7.8750 C   0  0  0  0  0  0  0  0  0  0  0  0
   20.6260   16.4470    9.0310 C   0  0  0  0  0  0  0  0  0  0  0  0
   21.8530   15.9900    8.6470 N   0  0  0  0  0  0  0  0  0  0  0  0
   22.9620   15.1630    9.5960 S   0  0  0  0  0  6  0  0  0  0  0  0
   23.9390   16.1370   10.0430 O   0  0  0  0  0  0  0  0  0  0  0  0
   23.3320   14.0070    8.8010 O   0  0  0  0  0  0  0  0  0  0  0  0
   22.0600   14.6020   10.9980 C   0  0  0  0  0  0  0  0  0  0  0  0
   21.1420   13.5490   10.8470 C   0  0  0  0  0  0  0  0  0  0  0  0
   20.4120   13.0690   11.9360 C   0  0  0  0  0  0  0  0  0  0  0  0
   20.5810   13.6190   13.2140 C   0  0  0  0  0  0  0  0  0  0  0  0
   21.5040   14.6670   13.3850 C   0  0  0  0  0  0  0  0  0  0  0  0
   21.9530   15.4400   14.4860 C   0  0  0  0  0  0  0  0  0  0  0  0
   22.8960   16.3230   14.0000 C   0  0  0  0  0  0  0  0  0  0  0  0
   23.6930   17.3180   14.6870 C   0  0  0  0  0  0  0  0  0  0  0  0
   23.2860   17.9650   15.6490 O   0  0  0  0  0  0  0  0  0  0  0  0
   24.9640   17.4760   14.1860 N   0  0  0  0  0  0  0  0  0  0  0  0
   25.9790   18.2560   14.8750 C   0  0  2  0  0  0  0  0  0  0  0  0
   26.0050   18.0010   16.3800 C   0  0  0  0  0  0  0  0  0  0  0  0
   27.0610   18.8820   17.0270 C   0  0  0  0  0  0  0  0  0  0  0  0
   26.8280   20.3400   16.7100 C   0  0  0  0  0  0  0  0  0  0  0  0
   27.0870   21.2380   17.5050 O   0  0  0  0  0  0  0  0  0  0  0  0
   26.3320   20.6250   15.4630 N   0  0  0  0  0  0  0  0  0  0  0  0
   25.6970   19.7410   14.6270 C   0  0  0  0  0  0  0  0  0  0  0  0
   24.9570   20.1380   13.7280 O   0  0  0  0  0  0  0  0  0  0  0  0
   23.0460   16.1410   12.6500 O   0  0  0  0  0  0  0  0  0  0  0  0
   22.2100   15.1290   12.2790 C   0  0  0  0  0  0  0  0  0  0  0  0
   22.0240   16.2260    7.3210 C   0  0  0  0  0  0  0  0  0  0  0  0
   20.9630   16.8220    6.8180 N   0  0  0  0  0  0  0  0  0  0  0  0
   18.9505   19.6125    8.5356 H   0  0  0  0  0  0  0  0  0  0  0  0
   19.8320   19.3879    6.9867 H   0  0  0  0  0  0  0  0  0  0  0  0
   18.0430   19.5494    6.9867 H   0  0  0  0  0  0  0  0  0  0  0  0
   18.1316   17.4292    8.5447 H   0  0  0  0  0  0  0  0  0  0  0  0
   18.3343   17.2598    6.7465 H   0  0  0  0  0  0  0  0  0  0  0  0
   20.1705   16.4028   10.0313 H   0  0  0  0  0  0  0  0  0  0  0  0
   20.9962   13.0958    9.8554 H   0  0  0  0  0  0  0  0  0  0  0  0
   19.6946   12.2482   11.7890 H   0  0  0  0  0  0  0  0  0  0  0  0
   20.0022   13.2380   14.0683 H   0  0  0  0  0  0  0  0  0  0  0  0
   21.6142   15.3525   15.5289 H   0  0  0  0  0  0  0  0  0  0  0  0
   25.2052   17.0260   13.2914 H   0  0  0  0  0  0  0  0  0  0  0  0
   26.9597   17.9546   14.4784 H   0  0  0  0  0  0  0  0  0  0  0  0
   25.0194   18.2358   16.8084 H   0  0  0  0  0  0  0  0  0  0  0  0
   26.2452   16.9441   16.5679 H   0  0  0  0  0  0  0  0  0  0  0  0
   27.0253   18.7422   18.1175 H   0  0  0  0  0  0  0  0  0  0  0  0
   28.0453   18.5932   16.6298 H   0  0  0  0  0  0  0  0  0  0  0  0
   26.4467   21.5906   15.1232 H   0  0  0  0  0  0  0  0  0  0  0  0
   22.9231   15.9570    6.7471 H   0  0  0  0  0  0  0  0  0  0  0  0
  1  2  1  0
  2  3  1  0
  3  4  2  0
  4  5  1  0
  5  6  1  0
  6  7  2  0
  6  8  2  0
  6  9  1  0
  9 10  2  0
 10 11  1  0
 11 12  2  0
 12 13  1  0
 13 14  1  0
 14 15  2  0
 15 16  1  0
 16 17  2  0
 16 18  1  0
 18 19  1  0
 19 20  1  0
 20 21  1  0
 21 22  1  0
 22 23  2  0
 22 24  1  0
 24 25  1  0
 25 26  2  0
 15 27  1  0
 27 28  1  0
  5 29  1  0
 29 30  2  0
 30  3  1  0
 28  9  1  0
 28 13  2  0
 25 19  1  0
  1 31  1  0
  1 32  1  0
  1 33  1  0
  2 34  1  0
  2 35  1  0
  4 36  1  0
 10 37  1  0
 11 38  1  0
 12 39  1  0
 14 40  1  0
 18 41  1  0
 19 42  1  6
 20 43  1  0
 20 44  1  0
 21 45  1  0
 21 46  1  0
 24 47  1  0
 29 48  1  0
M  END
>  <meeko>  (789) 
{"is_sidechain": [true], "free_energy": -10.5, "intermolecular_energy": 0.0, "internal_energy": -10.5, "cluster_size": 17, "cluster_id": 1, "rank_in_cluster": 1}

>  <_RMSD_MCS_to_ref>  (789) 
0.7218261563562238

$$$$
ligand
     RDKit          3D

 48 51  0  0  0  0  0  0  0  0999 V2000
   18.9090   19.1540    7.5370 C   0  0  0  0  0  0  0  0  0  0  0  0
   18.7730   17.6460    7.6780 C   0  0  0  0  0  0  0  0  0  0  0  0
   20.0940   16.9610    7.6920 C   0  0  0  0  0  0  0  0  0  0  0  0
   20.8830   16.6170    8.7720 C   0  0  0  0  0  0  0  0  0  0  0  0
   21.9650   16.0000    8.2120 N   0  0  0  0  0  0  0  0  0  0  0  0
   23.3690   15.5590    9.0220 S   0  0  0  0  0  6  0  0  0  0  0  0
   23.7610   14.2770    8.4710 O   0  0  0  0  0  0  0  0  0  0  0  0
   24.2370   16.7190    8.9790 O   0  0  0  0  0  0  0  0  0  0  0  0
   22.8290   15.3150   10.6930 C   0  0  0  0  0  0  0  0  0  0  0  0
   23.5120   15.9490   11.7350 C   0  0  0  0  0  0  0  0  0  0  0  0
   23.1110   15.7620   13.0720 C   0  0  0  0  0  0  0  0  0  0  0  0
   23.8710   16.4640   14.1300 C   0  0  0  0  0  0  0  0  0  0  0  0
   24.2370   15.8500   15.1270 O   0  0  0  0  0  0  0  0  0  0  0  0
   24.0780   17.8120   13.9560 N   0  0  0  0  0  0  0  0  0  0  0  0
   24.6530   18.6290   15.0170 C   0  0  1  0  0  0  0  0  0  0  0  0
   25.7730   17.9090   15.7620 C   0  0  0  0  0  0  0  0  0  0  0  0
   26.3550   18.8350   16.8190 C   0  0  0  0  0  0  0  0  0  0  0  0
   26.8290   20.1330   16.2100 C   0  0  0  0  0  0  0  0  0  0  0  0
   27.8110   20.7380   16.6280 O   0  0  0  0  0  0  0  0  0  0  0  0
   26.0850   20.6300   15.1690 N   0  0  0  0  0  0  0  0  0  0  0  0
   25.2170   19.9070   14.3890 C   0  0  0  0  0  0  0  0  0  0  0  0
   24.9130   20.2810   13.2560 O   0  0  0  0  0  0  0  0  0  0  0  0
   21.9940   14.9430   13.3470 C   0  0  0  0  0  0  0  0  0  0  0  0
   21.2430   14.5450   14.4920 C   0  0  0  0  0  0  0  0  0  0  0  0
   20.2480   13.7090   14.0430 C   0  0  0  0  0  0  0  0  0  0  0  0
   20.3150   13.5710   12.6960 O   0  0  0  0  0  0  0  0  0  0  0  0
   21.3630   14.3260   12.2690 C   0  0  0  0  0  0  0  0  0  0  0  0
   21.7430   14.4670   10.9350 C   0  0  0  0  0  0  0  0  0  0  0  0
   21.8430   16.0250    6.8610 C   0  0  0  0  0  0  0  0  0  0  0  0
   20.7070   16.5930    6.5110 N   0  0  0  0  0  0  0  0  0  0  0  0
   18.9504   19.6134    8.5356 H   0  0  0  0  0  0  0  0  0  0  0  0
   19.8320   19.3891    6.9867 H   0  0  0  0  0  0  0  0  0  0  0  0
   18.0430   19.5504    6.9867 H   0  0  0  0  0  0  0  0  0  0  0  0
   18.2490   17.4241    8.6194 H   0  0  0  0  0  0  0  0  0  0  0  0
   18.2097   17.2752    6.8090 H   0  0  0  0  0  0  0  0  0  0  0  0
   20.6852   16.7984    9.8388 H   0  0  0  0  0  0  0  0  0  0  0  0
   24.3698   16.5994   11.5087 H   0  0  0  0  0  0  0  0  0  0  0  0
   23.8223   18.2520   13.0605 H   0  0  0  0  0  0  0  0  0  0  0  0
   23.8594   18.8511   15.7456 H   0  0  0  0  0  0  0  0  0  0  0  0
   25.3707   17.0069   16.2460 H   0  0  0  0  0  0  0  0  0  0  0  0
   26.5617   17.6224   15.0508 H   0  0  0  0  0  0  0  0  0  0  0  0
   25.5812   19.0529   17.5698 H   0  0  0  0  0  0  0  0  0  0  0  0
   27.2172   18.3338   17.2831 H   0  0  0  0  0  0  0  0  0  0  0  0
   26.1868   21.6323   14.9545 H   0  0  0  0  0  0  0  0  0  0  0  0
   21.4247   14.8483   15.5336 H   0  0  0  0  0  0  0  0  0  0  0  0
   19.5018   13.2204   14.6868 H   0  0  0  0  0  0  0  0  0  0  0  0
   21.2202   13.9428   10.1215 H   0  0  0  0  0  0  0  0  0  0  0  0
   22.5882   15.6268    6.1566 H   0  0  0  0  0  0  0  0  0  0  0  0
  1  2  1  0
  2  3  1  0
  3  4  2  0
  4  5  1  0
  5  6  1  0
  6  7  2  0
  6  8  2  0
  6  9  1  0
  9 10  2  0
 10 11  1  0
 11 12  1  0
 12 13  2  0
 12 14  1  0
 14 15  1  0
 15 16  1  0
 16 17  1  0
 17 18  1  0
 18 19  2  0
 18 20  1  0
 20 21  1  0
 21 22  2  0
 11 23  2  0
 23 24  1  0
 24 25  2  0
 25 26  1  0
 26 27  1  0
 27 28  2  0
  5 29  1  0
 29 30  2  0
 30  3  1  0
 28  9  1  0
 21 15  1  0
 27 23  1  0
  1 31  1  0
  1 32  1  0
  1 33  1  0
  2 34  1  0
  2 35  1  0
  4 36  1  0
 10 37  1  0
 14 38  1  0
 15 39  1  1
 16 40  1  0
 16 41  1  0
 17 42  1  0
 17 43  1  0
 20 44  1  0
 24 45  1  0
 25 46  1  0
 28 47  1  0
 29 48  1  0
M  END
>  <meeko>  (790) 
{"is_sidechain": [true], "free_energy": -10.5, "intermolecular_energy": 0.0, "internal_energy": -10.5, "cluster_size": 20, "cluster_id": 1, "rank_in_cluster": 1}

>  <_RMSD_MCS_to_ref>  (790) 
0.4421066990369335

$$$$
ligand
     RDKit          3D

 48 51  0  0  0  0  0  0  0  0999 V2000
   18.9090   19.1540    7.5370 C   0  0  0  0  0  0  0  0  0  0  0  0
   18.7730   17.6460    7.6780 C   0  0  0  0  0  0  0  0  0  0  0  0
   20.0940   16.9610    7.6960 C   0  0  0  0  0  0  0  0  0  0  0  0
   20.9200   16.6940    8.7700 C   0  0  0  0  0  0  0  0  0  0  0  0
   21.9820   16.0360    8.2200 N   0  0  0  0  0  0  0  0  0  0  0  0
   23.4080   15.6400    9.0150 S   0  0  0  0  0  6  0  0  0  0  0  0
   24.2360   16.8290    8.9780 O   0  0  0  0  0  0  0  0  0  0  0  0
   23.8370   14.3760    8.4490 O   0  0  0  0  0  0  0  0  0  0  0  0
   22.8930   15.3610   10.6910 C   0  0  0  0  0  0  0  0  0  0  0  0
   23.5710   16.0080   11.7270 C   0  0  0  0  0  0  0  0  0  0  0  0
   23.1930   15.7910   13.0650 C   0  0  0  0  0  0  0  0  0  0  0  0
   23.9370   16.5030   14.1270 C   0  0  0  0  0  0  0  0  0  0  0  0
   24.3000   15.8950   15.1260 O   0  0  0  0  0  0  0  0  0  0  0  0
   24.1340   17.8520   13.9460 N   0  0  0  0  0  0  0  0  0  0  0  0
   24.7010   18.6740   15.0070 C   0  0  1  0  0  0  0  0  0  0  0  0
   25.8340   17.9650   15.7410 C   0  0  0  0  0  0  0  0  0  0  0  0
   26.4070   18.8910   16.8030 C   0  0  0  0  0  0  0  0  0  0  0  0
   26.8610   20.2000   16.2020 C   0  0  0  0  0  0  0  0  0  0  0  0
   27.8260   20.8240   16.6330 O   0  0  0  0  0  0  0  0  0  0  0  0
   26.1180   20.6860   15.1560 N   0  0  0  0  0  0  0  0  0  0  0  0
   25.2410   19.9640   14.3850 C   0  0  0  0  0  0  0  0  0  0  0  0
   24.9080   20.3520   13.2650 O   0  0  0  0  0  0  0  0  0  0  0  0
   22.1070   14.9360   13.3420 C   0  0  0  0  0  0  0  0  0  0  0  0
   21.3860   14.5080   14.4820 C   0  0  0  0  0  0  0  0  0  0  0  0
   20.4080   13.6490   14.1870 N   0  0  0  0  0  0  0  0  0  0  0  0
   20.4820   13.5310   12.8530 N   0  0  0  0  0  0  0  0  0  0  0  0
   21.4670   14.2950   12.2800 C   0  0  0  0  0  0  0  0  0  0  0  0
   21.8360   14.4730   10.9410 C   0  0  0  0  0  0  0  0  0  0  0  0
   21.8150   15.9650    6.8750 C   0  0  0  0  0  0  0  0  0  0  0  0
   20.6680   16.5090    6.5250 N   0  0  0  0  0  0  0  0  0  0  0  0
   18.9504   19.6134    8.5356 H   0  0  0  0  0  0  0  0  0  0  0  0
   19.8320   19.3891    6.9867 H   0  0  0  0  0  0  0  0  0  0  0  0
   18.0430   19.5504    6.9867 H   0  0  0  0  0  0  0  0  0  0  0  0
   18.2463   17.4243    8.6179 H   0  0  0  0  0  0  0  0  0  0  0  0
   18.2124   17.2749    6.8074 H   0  0  0  0  0  0  0  0  0  0  0  0
   20.7590   16.9525    9.8270 H   0  0  0  0  0  0  0  0  0  0  0  0
   24.4031   16.6894   11.4961 H   0  0  0  0  0  0  0  0  0  0  0  0
   23.8773   18.2871   13.0484 H   0  0  0  0  0  0  0  0  0  0  0  0
   23.9080   18.8831   15.7401 H   0  0  0  0  0  0  0  0  0  0  0  0
   25.4471   17.0532   16.2195 H   0  0  0  0  0  0  0  0  0  0  0  0
   26.6237   17.6957   15.0242 H   0  0  0  0  0  0  0  0  0  0  0  0
   25.6330   19.0927   17.5581 H   0  0  0  0  0  0  0  0  0  0  0  0
   27.2776   18.3983   17.2604 H   0  0  0  0  0  0  0  0  0  0  0  0
   26.2283   21.6844   14.9282 H   0  0  0  0  0  0  0  0  0  0  0  0
   21.6083   14.8477   15.5043 H   0  0  0  0  0  0  0  0  0  0  0  0
   19.8557   12.9216   12.3078 H   0  0  0  0  0  0  0  0  0  0  0  0
   21.3225   13.9428   10.1254 H   0  0  0  0  0  0  0  0  0  0  0  0
   22.5361   15.5163    6.1759 H   0  0  0  0  0  0  0  0  0  0  0  0
  1  2  1  0
  2  3  1  0
  3  4  2  0
  4  5  1  0
  5  6  1  0
  6  7  2  0
  6  8  2  0
  6  9  1  0
  9 10  2  0
 10 11  1  0
 11 12  1  0
 12 13  2  0
 12 14  1  0
 14 15  1  0
 15 16  1  0
 16 17  1  0
 17 18  1  0
 18 19  2  0
 18 20  1  0
 20 21  1  0
 21 22  2  0
 11 23  2  0
 23 24  1  0
 24 25  2  0
 25 26  1  0
 26 27  1  0
 27 28  2  0
  5 29  1  0
 29 30  2  0
 30  3  1  0
 28  9  1  0
 21 15  1  0
 27 23  1  0
  1 31  1  0
  1 32  1  0
  1 33  1  0
  2 34  1  0
  2 35  1  0
  4 36  1  0
 10 37  1  0
 14 38  1  0
 15 39  1  1
 16 40  1  0
 16 41  1  0
 17 42  1  0
 17 43  1  0
 20 44  1  0
 24 45  1  0
 26 46  1  0
 28 47  1  0
 29 48  1  0
M  END
>  <meeko>  (791) 
{"is_sidechain": [true], "free_energy": -10.5, "intermolecular_energy": 0.0, "internal_energy": -10.5, "cluster_size": 20, "cluster_id": 1, "rank_in_cluster": 1}

>  <_RMSD_MCS_to_ref>  (791) 
0.46020949335903294

$$$$
ligand
     RDKit          3D

 47 50  0  0  0  0  0  0  0  0999 V2000
   18.9090   19.1540    7.5370 C   0  0  0  0  0  0  0  0  0  0  0  0
   18.7730   17.6460    7.6780 C   0  0  0  0  0  0  0  0  0  0  0  0
   19.8950   16.9160    7.0270 C   0  0  0  0  0  0  0  0  0  0  0  0
   20.9690   16.2760    7.6120 C   0  0  0  0  0  0  0  0  0  0  0  0
   21.6660   15.7600    6.5560 N   0  0  0  0  0  0  0  0  0  0  0  0
   23.1500   14.9910    6.6310 S   0  0  0  0  0  6  0  0  0  0  0  0
   24.0980   15.8500    5.9510 O   0  0  0  0  0  0  0  0  0  0  0  0
   22.9230   13.6070    6.2590 O   0  0  0  0  0  0  0  0  0  0  0  0
   23.6880   14.9360    8.2730 C   0  0  0  0  0  0  0  0  0  0  0  0
   23.7970   16.0180    9.1220 C   0  0  0  0  0  0  0  0  0  0  0  0
   24.2460   15.5050   10.3040 N   0  0  0  0  0  0  0  0  0  0  0  0
   24.4970   16.2320   11.4270 N   0  0  0  0  0  0  0  0  0  0  0  0
   24.9160   15.4980   12.4190 C   0  0  0  0  0  0  0  0  0  0  0  0
   25.2350   16.1980   13.7460 C   0  0  0  0  0  0  0  0  0  0  0  0
   25.4370   15.5540   14.7620 O   0  0  0  0  0  0  0  0  0  0  0  0
   25.2500   17.5680   13.6570 N   0  0  0  0  0  0  0  0  0  0  0  0
   25.3480   18.4210   14.8280 C   0  0  1  0  0  0  0  0  0  0  0  0
   26.3200   17.8640   15.8630 C   0  0  0  0  0  0  0  0  0  0  0  0
   26.4000   18.8150   17.0480 C   0  0  0  0  0  0  0  0  0  0  0  0
   26.7850   20.2070   16.6090 C   0  0  0  0  0  0  0  0  0  0  0  0
   27.4610   20.9550   17.3100 O   0  0  0  0  0  0  0  0  0  0  0  0
   26.3120   20.6200   15.3900 N   0  0  0  0  0  0  0  0  0  0  0  0
   25.8200   19.8130   14.3930 C   0  0  0  0  0  0  0  0  0  0  0  0
   25.7530   20.2090   13.2320 O   0  0  0  0  0  0  0  0  0  0  0  0
   25.1180   14.0210   12.3870 C   0  0  0  0  0  0  0  0  0  0  0  0
   24.8470   13.3900   11.2380 C   0  0  0  0  0  0  0  0  0  0  0  0
   24.3900   14.1370   10.1300 C   0  0  0  0  0  0  0  0  0  0  0  0
   24.0590   13.7670    8.9110 N   0  0  0  0  0  0  0  0  0  0  0  0
   21.0630   16.1370    5.3990 C   0  0  0  0  0  0  0  0  0  0  0  0
   19.9660   16.8220    5.6510 N   0  0  0  0  0  0  0  0  0  0  0  0
   18.9504   19.6134    8.5356 H   0  0  0  0  0  0  0  0  0  0  0  0
   19.8320   19.3891    6.9867 H   0  0  0  0  0  0  0  0  0  0  0  0
   18.0430   19.5504    6.9867 H   0  0  0  0  0  0  0  0  0  0  0  0
   18.7577   17.3904    8.7478 H   0  0  0  0  0  0  0  0  0  0  0  0
   17.8399   17.3435    7.1802 H   0  0  0  0  0  0  0  0  0  0  0  0
   21.2088   16.1990    8.6828 H   0  0  0  0  0  0  0  0  0  0  0  0
   23.5703   17.0701    8.8945 H   0  0  0  0  0  0  0  0  0  0  0  0
   25.1896   18.0062   12.7268 H   0  0  0  0  0  0  0  0  0  0  0  0
   24.3531   18.4715   15.2946 H   0  0  0  0  0  0  0  0  0  0  0  0
   25.9666   16.8803   16.2057 H   0  0  0  0  0  0  0  0  0  0  0  0
   27.3168   17.7584   15.4100 H   0  0  0  0  0  0  0  0  0  0  0  0
   25.4185   18.8540   17.5431 H   0  0  0  0  0  0  0  0  0  0  0  0
   27.1703   18.4436   17.7399 H   0  0  0  0  0  0  0  0  0  0  0  0
   26.3270   21.6329   15.2039 H   0  0  0  0  0  0  0  0  0  0  0  0
   25.4750   13.4725   13.2712 H   0  0  0  0  0  0  0  0  0  0  0  0
   24.9789   12.3009   11.1576 H   0  0  0  0  0  0  0  0  0  0  0  0
   21.4382   15.9031    4.3918 H   0  0  0  0  0  0  0  0  0  0  0  0
  1  2  1  0
  2  3  1  0
  3  4  2  0
  4  5  1  0
  5  6  1  0
  6  7  2  0
  6  8  2  0
  6  9  1  0
  9 10  2  0
 10 11  1  0
 11 12  1  0
 12 13  2  0
 13 14  1  0
 14 15  2  0
 14 16  1  0
 16 17  1  0
 17 18  1  0
 18 19  1  0
 19 20  1  0
 20 21  2  0
 20 22  1  0
 22 23  1  0
 23 24  2  0
 13 25  1  0
 25 26  2  0
 26 27  1  0
 27 28  2  0
  5 29  1  0
 29 30  2  0
 30  3  1  0
 28  9  1  0
 27 11  1  0
 23 17  1  0
  1 31  1  0
  1 32  1  0
  1 33  1  0
  2 34  1  0
  2 35  1  0
  4 36  1  0
 10 37  1  0
 16 38  1  0
 17 39  1  1
 18 40  1  0
 18 41  1  0
 19 42  1  0
 19 43  1  0
 22 44  1  0
 25 45  1  0
 26 46  1  0
 29 47  1  0
M  END
>  <meeko>  (792) 
{"is_sidechain": [true], "free_energy": -10.5, "intermolecular_energy": 0.0, "internal_energy": -10.5, "cluster_size": 15, "cluster_id": 1, "rank_in_cluster": 1}

>  <_RMSD_MCS_to_ref>  (792) 
0.5800703022527143

$$$$
ligand
     RDKit          3D

 47 50  0  0  0  0  0  0  0  0999 V2000
   18.9090   19.1540    7.5370 C   0  0  0  0  0  0  0  0  0  0  0  0
   18.7730   17.6460    7.6780 C   0  0  0  0  0  0  0  0  0  0  0  0
   20.0140   16.9300    7.2780 C   0  0  0  0  0  0  0  0  0  0  0  0
   21.0640   16.5050    8.0670 C   0  0  0  0  0  0  0  0  0  0  0  0
   21.9270   15.9190    7.1870 N   0  0  0  0  0  0  0  0  0  0  0  0
   23.3240   15.0850    7.5830 S   0  0  0  0  0  6  0  0  0  0  0  0
   23.0250   13.6770    7.3890 O   0  0  0  0  0  0  0  0  0  0  0  0
   24.4060   15.7450    6.8720 O   0  0  0  0  0  0  0  0  0  0  0  0
   23.6680   15.2880    9.3160 C   0  0  0  0  0  0  0  0  0  0  0  0
   24.8600   16.1170    9.6620 C   0  0  0  0  0  0  0  0  0  0  0  0
   25.1340   16.2820   10.9610 C   0  0  0  0  0  0  0  0  0  0  0  0
   24.2900   15.6710   11.9180 C   0  0  0  0  0  0  0  0  0  0  0  0
   24.2390   15.6090   13.3010 C   0  0  0  0  0  0  0  0  0  0  0  0
   25.1660   16.2340   14.2310 C   0  0  0  0  0  0  0  0  0  0  0  0
   25.9070   15.5830   14.9600 O   0  0  0  0  0  0  0  0  0  0  0  0
   25.1670   17.6090   14.2320 N   0  0  0  0  0  0  0  0  0  0  0  0
   26.1410   18.3640   15.0080 C   0  0  2  0  0  0  0  0  0  0  0  0
   26.0120   18.1100   16.5060 C   0  0  0  0  0  0  0  0  0  0  0  0
   27.0260   18.9630   17.2540 C   0  0  0  0  0  0  0  0  0  0  0  0
   26.8700   20.4270   16.9140 C   0  0  0  0  0  0  0  0  0  0  0  0
   27.0820   21.3180   17.7300 O   0  0  0  0  0  0  0  0  0  0  0  0
   26.5040   20.7230   15.6250 N   0  0  0  0  0  0  0  0  0  0  0  0
   25.9210   19.8560   14.7370 C   0  0  0  0  0  0  0  0  0  0  0  0
   25.2680   20.2630   13.7760 O   0  0  0  0  0  0  0  0  0  0  0  0
   23.1030   14.8000   13.5460 C   0  0  0  0  0  0  0  0  0  0  0  0
   22.4920   14.3990   12.4300 N   0  0  0  0  0  0  0  0  0  0  0  0
   23.2260   14.9330   11.4490 N   0  0  0  0  0  0  0  0  0  0  0  0
   22.8740   14.7120   10.1680 N   0  0  0  0  0  0  0  0  0  0  0  0
   21.3850   15.9480    5.9430 C   0  0  0  0  0  0  0  0  0  0  0  0
   20.2310   16.5840    5.9580 N   0  0  0  0  0  0  0  0  0  0  0  0
   18.9504   19.6134    8.5356 H   0  0  0  0  0  0  0  0  0  0  0  0
   19.8320   19.3891    6.9867 H   0  0  0  0  0  0  0  0  0  0  0  0
   18.0430   19.5504    6.9867 H   0  0  0  0  0  0  0  0  0  0  0  0
   18.5491   17.4072    8.7282 H   0  0  0  0  0  0  0  0  0  0  0  0
   17.9629   17.3162    7.0109 H   0  0  0  0  0  0  0  0  0  0  0  0
   21.1788   16.6137    9.1556 H   0  0  0  0  0  0  0  0  0  0  0  0
   25.4869   16.5731    8.8816 H   0  0  0  0  0  0  0  0  0  0  0  0
   25.9996   16.8817   11.2791 H   0  0  0  0  0  0  0  0  0  0  0  0
   24.4652   18.1149   13.6730 H   0  0  0  0  0  0  0  0  0  0  0  0
   27.1468   18.0403   14.7022 H   0  0  0  0  0  0  0  0  0  0  0  0
   24.9964   18.3733   16.8365 H   0  0  0  0  0  0  0  0  0  0  0  0
   26.2015   17.0469   16.7154 H   0  0  0  0  0  0  0  0  0  0  0  0
   26.8784   18.8288   18.3358 H   0  0  0  0  0  0  0  0  0  0  0  0
   28.0354   18.6433   16.9560 H   0  0  0  0  0  0  0  0  0  0  0  0
   26.6832   21.6821   15.2951 H   0  0  0  0  0  0  0  0  0  0  0  0
   22.7589   14.5294   14.5551 H   0  0  0  0  0  0  0  0  0  0  0  0
   21.8445   15.5031    5.0480 H   0  0  0  0  0  0  0  0  0  0  0  0
  1  2  1  0
  2  3  1  0
  3  4  2  0
  4  5  1  0
  5  6  1  0
  6  7  2  0
  6  8  2  0
  6  9  1  0
  9 10  1  0
 10 11  2  0
 11 12  1  0
 12 13  2  0
 13 14  1  0
 14 15  2  0
 14 16  1  0
 16 17  1  0
 17 18  1  0
 18 19  1  0
 19 20  1  0
 20 21  2  0
 20 22  1  0
 22 23  1  0
 23 24  2  0
 13 25  1  0
 25 26  2  0
 26 27  1  0
 27 28  1  0
  5 29  1  0
 29 30  2  0
 30  3  1  0
 28  9  2  0
 27 12  1  0
 23 17  1  0
  1 31  1  0
  1 32  1  0
  1 33  1  0
  2 34  1  0
  2 35  1  0
  4 36  1  0
 10 37  1  0
 11 38  1  0
 16 39  1  0
 17 40  1  6
 18 41  1  0
 18 42  1  0
 19 43  1  0
 19 44  1  0
 22 45  1  0
 25 46  1  0
 29 47  1  0
M  END
>  <meeko>  (793) 
{"is_sidechain": [true], "free_energy": -10.5, "intermolecular_energy": 0.0, "internal_energy": -10.5, "cluster_size": 15, "cluster_id": 1, "rank_in_cluster": 1}

>  <_RMSD_MCS_to_ref>  (793) 
0.8992410997922391

$$$$
ligand
     RDKit          3D

 41 43  0  0  0  0  0  0  0  0999 V2000
   18.9090   19.1540    7.5370 C   0  0  0  0  0  0  0  0  0  0  0  0
   18.7730   17.6460    7.6780 C   0  0  0  0  0  0  0  0  0  0  0  0
   20.0950   16.9640    7.7090 C   0  0  0  0  0  0  0  0  0  0  0  0
   20.8030   16.4930    8.7970 C   0  0  0  0  0  0  0  0  0  0  0  0
   21.9440   15.9730    8.2560 N   0  0  0  0  0  0  0  0  0  0  0  0
   23.2990   15.4860    9.1090 S   0  0  0  0  0  6  0  0  0  0  0  0
   24.3400   16.4560    8.8330 O   0  0  0  0  0  0  0  0  0  0  0  0
   23.4540   14.0640    8.8780 O   0  0  0  0  0  0  0  0  0  0  0  0
   22.9790   15.6360   10.7910 C   0  0  0  0  0  0  0  0  0  0  0  0
   22.0380   14.9240   11.4910 C   0  0  0  0  0  0  0  0  0  0  0  0
   22.0880   15.3300   12.7910 O   0  0  0  0  0  0  0  0  0  0  0  0
   23.0720   16.2850   12.8120 C   0  0  0  0  0  0  0  0  0  0  0  0
   23.4090   16.9660   14.0560 C   0  0  0  0  0  0  0  0  0  0  0  0
   22.8300   16.7990   15.1270 O   0  0  0  0  0  0  0  0  0  0  0  0
   24.4580   17.8580   13.9310 N   0  0  0  0  0  0  0  0  0  0  0  0
   24.8480   18.7560   15.0050 C   0  0  1  0  0  0  0  0  0  0  0  0
   25.7450   18.0680   16.0280 C   0  0  0  0  0  0  0  0  0  0  0  0
   26.1470   19.0650   17.1030 C   0  0  0  0  0  0  0  0  0  0  0  0
   26.8110   20.2820   16.5030 C   0  0  0  0  0  0  0  0  0  0  0  0
   27.6970   20.9020   17.0840 O   0  0  0  0  0  0  0  0  0  0  0  0
   26.3510   20.6910   15.2780 N   0  0  0  0  0  0  0  0  0  0  0  0
   25.5980   19.9480   14.4020 C   0  0  0  0  0  0  0  0  0  0  0  0
   25.5260   20.2500   13.2110 O   0  0  0  0  0  0  0  0  0  0  0  0
   23.6420   16.5070   11.6350 N   0  0  0  0  0  0  0  0  0  0  0  0
   21.9290   16.1730    6.9120 C   0  0  0  0  0  0  0  0  0  0  0  0
   20.8060   16.7530    6.5440 N   0  0  0  0  0  0  0  0  0  0  0  0
   18.9504   19.6134    8.5356 H   0  0  0  0  0  0  0  0  0  0  0  0
   19.8320   19.3891    6.9867 H   0  0  0  0  0  0  0  0  0  0  0  0
   18.0430   19.5504    6.9867 H   0  0  0  0  0  0  0  0  0  0  0  0
   18.2378   17.4243    8.6131 H   0  0  0  0  0  0  0  0  0  0  0  0
   18.2205   17.2730    6.8030 H   0  0  0  0  0  0  0  0  0  0  0  0
   20.5138   16.5286    9.8577 H   0  0  0  0  0  0  0  0  0  0  0  0
   21.3629   14.1608   11.0765 H   0  0  0  0  0  0  0  0  0  0  0  0
   24.9820   17.8871   13.0447 H   0  0  0  0  0  0  0  0  0  0  0  0
   23.9359   19.0840   15.5251 H   0  0  0  0  0  0  0  0  0  0  0  0
   25.1999   17.2314   16.4895 H   0  0  0  0  0  0  0  0  0  0  0  0
   26.6468   17.6867   15.5266 H   0  0  0  0  0  0  0  0  0  0  0  0
   25.2480   19.3816   17.6522 H   0  0  0  0  0  0  0  0  0  0  0  0
   26.8642   18.5762   17.7788 H   0  0  0  0  0  0  0  0  0  0  0  0
   26.5937   21.6485   14.9862 H   0  0  0  0  0  0  0  0  0  0  0  0
   22.7418   15.8898    6.2271 H   0  0  0  0  0  0  0  0  0  0  0  0
  1  2  1  0
  2  3  1  0
  3  4  2  0
  4  5  1  0
  5  6  1  0
  6  7  2  0
  6  8  2  0
  6  9  1  0
  9 10  2  0
 10 11  1  0
 11 12  1  0
 12 13  1  0
 13 14  2  0
 13 15  1  0
 15 16  1  0
 16 17  1  0
 17 18  1  0
 18 19  1  0
 19 20  2  0
 19 21  1  0
 21 22  1  0
 22 23  2  0
 12 24  2  0
  5 25  1  0
 25 26  2  0
 26  3  1  0
 24  9  1  0
 22 16  1  0
  1 27  1  0
  1 28  1  0
  1 29  1  0
  2 30  1  0
  2 31  1  0
  4 32  1  0
 10 33  1  0
 15 34  1  0
 16 35  1  1
 17 36  1  0
 17 37  1  0
 18 38  1  0
 18 39  1  0
 21 40  1  0
 25 41  1  0
M  END
>  <meeko>  (794) 
{"is_sidechain": [true], "free_energy": -10.5, "intermolecular_energy": 0.0, "internal_energy": -10.5, "cluster_size": 20, "cluster_id": 1, "rank_in_cluster": 1}

>  <_RMSD_MCS_to_ref>  (794) 
0.5528715944955032

$$$$
ligand
     RDKit          3D

 54 57  0  0  0  0  0  0  0  0999 V2000
   18.9090   19.1540    7.5370 C   0  0  0  0  0  0  0  0  0  0  0  0
   18.7730   17.6460    7.6780 C   0  0  0  0  0  0  0  0  0  0  0  0
   20.0900   16.9570    7.6150 C   0  0  0  0  0  0  0  0  0  0  0  0
   20.9780   16.6850    8.6370 C   0  0  0  0  0  0  0  0  0  0  0  0
   22.0130   16.0400    8.0210 N   0  0  0  0  0  0  0  0  0  0  0  0
   23.5070   15.6870    8.7060 S   0  0  0  0  0  6  0  0  0  0  0  0
   23.8140   14.3350    8.2810 O   0  0  0  0  0  0  0  0  0  0  0  0
   24.3410   16.8250    8.3740 O   0  0  0  0  0  0  0  0  0  0  0  0
   23.2940   15.6570   10.4790 C   0  0  0  0  0  0  0  0  0  0  0  0
   24.0750   16.4850   11.3000 C   0  0  0  0  0  0  0  0  0  0  0  0
   23.9200   16.4430   12.6900 C   0  0  0  0  0  0  0  0  0  0  0  0
   24.7390   17.2960   13.5930 C   0  0  0  0  0  0  0  0  0  0  0  0
   25.9620   17.2330   13.5690 O   0  0  0  0  0  0  0  0  0  0  0  0
   24.0440   18.1190   14.4520 N   0  0  0  0  0  0  0  0  0  0  0  0
   24.7370   18.9110   15.4590 C   0  0  1  0  0  0  0  0  0  0  0  0
   25.7310   18.0780   16.2600 C   0  0  0  0  0  0  0  0  0  0  0  0
   26.4560   18.9710   17.2550 C   0  0  0  0  0  0  0  0  0  0  0  0
   27.1260   20.1340   16.5620 C   0  0  0  0  0  0  0  0  0  0  0  0
   28.1840   20.6150   16.9530 O   0  0  0  0  0  0  0  0  0  0  0  0
   26.4730   20.6620   15.4760 N   0  0  0  0  0  0  0  0  0  0  0  0
   25.4870   20.0420   14.7500 C   0  0  0  0  0  0  0  0  0  0  0  0
   25.2230   20.3940   13.6000 O   0  0  0  0  0  0  0  0  0  0  0  0
   23.0050   15.5560   13.2610 C   0  0  0  0  0  0  0  0  0  0  0  0
   22.2150   14.7210   12.4540 C   0  0  0  0  0  0  0  0  0  0  0  0
   22.3370   14.7840   11.0470 C   0  0  0  0  0  0  0  0  0  0  0  0
   21.4780   13.8620   10.2030 C   0  0  0  0  0  0  0  0  0  0  0  0
   20.3100   13.2410   10.9810 C   0  0  0  0  0  0  0  0  0  0  0  0
   20.7510   12.7120   12.2720 N   0  0  0  0  0  0  0  0  0  0  0  0
   21.2030   13.8140   13.1230 C   0  0  0  0  0  0  0  0  0  0  0  0
   21.7510   15.9480    6.6900 C   0  0  0  0  0  0  0  0  0  0  0  0
   20.5940   16.5090    6.4100 N   0  0  0  0  0  0  0  0  0  0  0  0
   18.9504   19.6134    8.5356 H   0  0  0  0  0  0  0  0  0  0  0  0
   19.8320   19.3891    6.9867 H   0  0  0  0  0  0  0  0  0  0  0  0
   18.0430   19.5504    6.9867 H   0  0  0  0  0  0  0  0  0  0  0  0
   18.3011   17.4214    8.6459 H   0  0  0  0  0  0  0  0  0  0  0  0
   18.1596   17.2815    6.8408 H   0  0  0  0  0  0  0  0  0  0  0  0
   20.8754   16.9315    9.7041 H   0  0  0  0  0  0  0  0  0  0  0  0
   24.8103   17.1682   10.8500 H   0  0  0  0  0  0  0  0  0  0  0  0
   23.0180   18.1751   14.3809 H   0  0  0  0  0  0  0  0  0  0  0  0
   23.9902   19.3051   16.1640 H   0  0  0  0  0  0  0  0  0  0  0  0
   25.1929   17.2865   16.8022 H   0  0  0  0  0  0  0  0  0  0  0  0
   26.4622   17.6224   15.5761 H   0  0  0  0  0  0  0  0  0  0  0  0
   25.7294   19.3587   17.9842 H   0  0  0  0  0  0  0  0  0  0  0  0
   27.2307   18.3733   17.7576 H   0  0  0  0  0  0  0  0  0  0  0  0
   26.7479   21.6092   15.1792 H   0  0  0  0  0  0  0  0  0  0  0  0
   22.9018   15.5108   14.3552 H   0  0  0  0  0  0  0  0  0  0  0  0
   21.0690   14.4394    9.3608 H   0  0  0  0  0  0  0  0  0  0  0  0
   22.1208   13.0358    9.8651 H   0  0  0  0  0  0  0  0  0  0  0  0
   19.5441   14.0117   11.1526 H   0  0  0  0  0  0  0  0  0  0  0  0
   19.9009   12.4101   10.3874 H   0  0  0  0  0  0  0  0  0  0  0  0
   19.9671   12.2246   12.7291 H   0  0  0  0  0  0  0  0  0  0  0  0
   20.3276   14.4176   13.4045 H   0  0  0  0  0  0  0  0  0  0  0  0
   21.6996   13.3649   13.9957 H   0  0  0  0  0  0  0  0  0  0  0  0
   22.4127   15.4719    5.9515 H   0  0  0  0  0  0  0  0  0  0  0  0
  1  2  1  0
  2  3  1  0
  3  4  2  0
  4  5  1  0
  5  6  1  0
  6  7  2  0
  6  8  2  0
  6  9  1  0
  9 10  2  0
 10 11  1  0
 11 12  1  0
 12 13  2  0
 12 14  1  0
 14 15  1  0
 15 16  1  0
 16 17  1  0
 17 18  1  0
 18 19  2  0
 18 20  1  0
 20 21  1  0
 21 22  2  0
 11 23  2  0
 23 24  1  0
 24 25  2  0
 25 26  1  0
 26 27  1  0
 27 28  1  0
 28 29  1  0
  5 30  1  0
 30 31  2  0
 31  3  1  0
 25  9  1  0
 21 15  1  0
 29 24  1  0
  1 32  1  0
  1 33  1  0
  1 34  1  0
  2 35  1  0
  2 36  1  0
  4 37  1  0
 10 38  1  0
 14 39  1  0
 15 40  1  1
 16 41  1  0
 16 42  1  0
 17 43  1  0
 17 44  1  0
 20 45  1  0
 23 46  1  0
 26 47  1  0
 26 48  1  0
 27 49  1  0
 27 50  1  0
 28 51  1  0
 29 52  1  0
 29 53  1  0
 30 54  1  0
M  END
>  <meeko>  (795) 
{"is_sidechain": [true], "free_energy": -10.5, "intermolecular_energy": 0.0, "internal_energy": -10.5, "cluster_size": 20, "cluster_id": 1, "rank_in_cluster": 1}

>  <_RMSD_MCS_to_ref>  (795) 
0.7785621362486107

$$$$
ligand
     RDKit          3D

 43 45  0  0  0  0  0  0  0  0999 V2000
   18.9090   19.1540    7.5370 C   0  0  0  0  0  0  0  0  0  0  0  0
   18.7730   17.6460    7.6780 C   0  0  0  0  0  0  0  0  0  0  0  0
   20.0950   16.9610    7.6840 C   0  0  0  0  0  0  0  0  0  0  0  0
   20.7680   16.3820    8.7410 C   0  0  0  0  0  0  0  0  0  0  0  0
   21.9270   15.9210    8.1880 N   0  0  0  0  0  0  0  0  0  0  0  0
   23.0410   14.9090    8.9350 S   0  0  0  0  0  6  0  0  0  0  0  0
   22.6480   13.5620    8.5690 O   0  0  0  0  0  0  0  0  0  0  0  0
   24.3480   15.4510    8.6310 O   0  0  0  0  0  0  0  0  0  0  0  0
   22.7430   15.1330   10.6470 C   0  0  0  0  0  0  0  0  0  0  0  0
   21.5090   14.8040   11.1700 C   0  0  0  0  0  0  0  0  0  0  0  0
   21.2370   14.9590   12.4810 N   0  0  0  0  0  0  0  0  0  0  0  0
   22.2070   15.4400   13.3190 N   0  0  0  0  0  0  0  0  0  0  0  0
   23.4300   15.7480   12.8250 C   0  0  0  0  0  0  0  0  0  0  0  0
   24.4370   16.2630   13.7950 C   0  0  0  0  0  0  0  0  0  0  0  0
   24.9870   15.5060   14.5870 O   0  0  0  0  0  0  0  0  0  0  0  0
   24.7030   17.6120   13.7240 N   0  0  0  0  0  0  0  0  0  0  0  0
   25.7540   18.2390   14.5100 C   0  0  2  0  0  0  0  0  0  0  0  0
   25.6040   17.9490   15.9990 C   0  0  0  0  0  0  0  0  0  0  0  0
   26.7170   18.6450   16.7660 C   0  0  0  0  0  0  0  0  0  0  0  0
   26.7340   20.1290   16.4830 C   0  0  0  0  0  0  0  0  0  0  0  0
   27.0670   20.9560   17.3260 O   0  0  0  0  0  0  0  0  0  0  0  0
   26.3880   20.5150   15.2130 N   0  0  0  0  0  0  0  0  0  0  0  0
   25.7130   19.7550   14.2900 C   0  0  0  0  0  0  0  0  0  0  0  0
   25.1320   20.2790   13.3410 O   0  0  0  0  0  0  0  0  0  0  0  0
   23.7450   15.6060   11.4870 C   0  0  0  0  0  0  0  0  0  0  0  0
   21.9200   16.1840    6.8550 C   0  0  0  0  0  0  0  0  0  0  0  0
   20.8200   16.8210    6.5170 N   0  0  0  0  0  0  0  0  0  0  0  0
   18.9504   19.6134    8.5356 H   0  0  0  0  0  0  0  0  0  0  0  0
   19.8320   19.3891    6.9867 H   0  0  0  0  0  0  0  0  0  0  0  0
   18.0430   19.5504    6.9867 H   0  0  0  0  0  0  0  0  0  0  0  0
   18.2544   17.4237    8.6222 H   0  0  0  0  0  0  0  0  0  0  0  0
   18.2042   17.2755    6.8125 H   0  0  0  0  0  0  0  0  0  0  0  0
   20.4439   16.3089    9.7896 H   0  0  0  0  0  0  0  0  0  0  0  0
   20.7304   14.4066   10.5023 H   0  0  0  0  0  0  0  0  0  0  0  0
   24.1381   18.1975   13.0923 H   0  0  0  0  0  0  0  0  0  0  0  0
   26.7159   17.8215   14.1777 H   0  0  0  0  0  0  0  0  0  0  0  0
   24.6297   18.3211   16.3486 H   0  0  0  0  0  0  0  0  0  0  0  0
   25.6648   16.8639   16.1690 H   0  0  0  0  0  0  0  0  0  0  0  0
   26.5623   18.4875   17.8436 H   0  0  0  0  0  0  0  0  0  0  0  0
   27.6790   18.2192   16.4445 H   0  0  0  0  0  0  0  0  0  0  0  0
   26.6605   21.4654   14.9243 H   0  0  0  0  0  0  0  0  0  0  0  0
   24.7450   15.8563   11.1031 H   0  0  0  0  0  0  0  0  0  0  0  0
   22.7220   15.9035    6.1563 H   0  0  0  0  0  0  0  0  0  0  0  0
  1  2  1  0
  2  3  1  0
  3  4  2  0
  4  5  1  0
  5  6  1  0
  6  7  2  0
  6  8  2  0
  6  9  1  0
  9 10  2  0
 10 11  1  0
 11 12  2  0
 12 13  1  0
 13 14  1  0
 14 15  2  0
 14 16  1  0
 16 17  1  0
 17 18  1  0
 18 19  1  0
 19 20  1  0
 20 21  2  0
 20 22  1  0
 22 23  1  0
 23 24  2  0
 13 25  2  0
  5 26  1  0
 26 27  2  0
 27  3  1  0
 25  9  1  0
 23 17  1  0
  1 28  1  0
  1 29  1  0
  1 30  1  0
  2 31  1  0
  2 32  1  0
  4 33  1  0
 10 34  1  0
 16 35  1  0
 17 36  1  6
 18 37  1  0
 18 38  1  0
 19 39  1  0
 19 40  1  0
 22 41  1  0
 25 42  1  0
 26 43  1  0
M  END
>  <meeko>  (796) 
{"is_sidechain": [true], "free_energy": -10.5, "intermolecular_energy": 0.0, "internal_energy": -10.5, "cluster_size": 20, "cluster_id": 1, "rank_in_cluster": 1}

>  <_RMSD_MCS_to_ref>  (796) 
0.5195859462644813

$$$$
ligand
     RDKit          3D

 43 45  0  0  0  0  0  0  0  0999 V2000
   18.9090   19.1540    7.5370 C   0  0  0  0  0  0  0  0  0  0  0  0
   18.7730   17.6460    7.6780 C   0  0  0  0  0  0  0  0  0  0  0  0
   20.0740   16.9450    7.5050 C   0  0  0  0  0  0  0  0  0  0  0  0
   20.6920   16.0400    8.3460 C   0  0  0  0  0  0  0  0  0  0  0  0
   21.8450   15.7110    7.6920 N   0  0  0  0  0  0  0  0  0  0  0  0
   23.0740   14.7340    8.2830 S   0  0  0  0  0  6  0  0  0  0  0  0
   24.2460   15.0540    7.4890 O   0  0  0  0  0  0  0  0  0  0  0  0
   22.5210   13.3930    8.3360 O   0  0  0  0  0  0  0  0  0  0  0  0
   23.3760   15.2650    9.9330 C   0  0  0  0  0  0  0  0  0  0  0  0
   22.8340   14.5840   11.0090 C   0  0  0  0  0  0  0  0  0  0  0  0
   23.1220   15.0660   12.2810 C   0  0  0  0  0  0  0  0  0  0  0  0
   23.9280   16.1930   12.3890 C   0  0  0  0  0  0  0  0  0  0  0  0
   24.2720   16.7630   13.7220 C   0  0  0  0  0  0  0  0  0  0  0  0
   23.9820   16.1700   14.7560 O   0  0  0  0  0  0  0  0  0  0  0  0
   24.9160   17.9800   13.7040 N   0  0  0  0  0  0  0  0  0  0  0  0
   25.1980   18.7270   14.9180 C   0  0  1  0  0  0  0  0  0  0  0  0
   26.2230   18.0200   15.7990 C   0  0  0  0  0  0  0  0  0  0  0  0
   26.4920   18.8580   17.0390 C   0  0  0  0  0  0  0  0  0  0  0  0
   26.9360   20.2550   16.6720 C   0  0  0  0  0  0  0  0  0  0  0  0
   27.7300   20.8930   17.3560 O   0  0  0  0  0  0  0  0  0  0  0  0
   26.3760   20.8000   15.5440 N   0  0  0  0  0  0  0  0  0  0  0  0
   25.7330   20.1140   14.5440 C   0  0  0  0  0  0  0  0  0  0  0  0
   25.5880   20.6100   13.4270 O   0  0  0  0  0  0  0  0  0  0  0  0
   24.4380   16.8300   11.3020 N   0  0  0  0  0  0  0  0  0  0  0  0
   24.1580   16.3590   10.0520 N   0  0  0  0  0  0  0  0  0  0  0  0
   21.9220   16.4200    6.5360 C   0  0  0  0  0  0  0  0  0  0  0  0
   20.8500   17.1710    6.3840 N   0  0  0  0  0  0  0  0  0  0  0  0
   18.9504   19.6134    8.5356 H   0  0  0  0  0  0  0  0  0  0  0  0
   19.8320   19.3891    6.9867 H   0  0  0  0  0  0  0  0  0  0  0  0
   18.0430   19.5504    6.9867 H   0  0  0  0  0  0  0  0  0  0  0  0
   18.3784   17.4181    8.6792 H   0  0  0  0  0  0  0  0  0  0  0  0
   18.0923   17.2934    6.8891 H   0  0  0  0  0  0  0  0  0  0  0  0
   20.3370   15.6694    9.3190 H   0  0  0  0  0  0  0  0  0  0  0  0
   22.2005   13.6966   10.8637 H   0  0  0  0  0  0  0  0  0  0  0  0
   22.7228   14.5689   13.1774 H   0  0  0  0  0  0  0  0  0  0  0  0
   25.2080   18.3745   12.7985 H   0  0  0  0  0  0  0  0  0  0  0  0
   24.2603   18.8095   15.4871 H   0  0  0  0  0  0  0  0  0  0  0  0
   25.8320   17.0366   16.0991 H   0  0  0  0  0  0  0  0  0  0  0  0
   27.1592   17.8872   15.2369 H   0  0  0  0  0  0  0  0  0  0  0  0
   25.5704   18.9203   17.6362 H   0  0  0  0  0  0  0  0  0  0  0  0
   27.2971   18.3778   17.6146 H   0  0  0  0  0  0  0  0  0  0  0  0
   26.4448   21.8222   15.4375 H   0  0  0  0  0  0  0  0  0  0  0  0
   22.7613   16.3737    5.8265 H   0  0  0  0  0  0  0  0  0  0  0  0
  1  2  1  0
  2  3  1  0
  3  4  2  0
  4  5  1  0
  5  6  1  0
  6  7  2  0
  6  8  2  0
  6  9  1  0
  9 10  2  0
 10 11  1  0
 11 12  2  0
 12 13  1  0
 13 14  2  0
 13 15  1  0
 15 16  1  0
 16 17  1  0
 17 18  1  0
 18 19  1  0
 19 20  2  0
 19 21  1  0
 21 22  1  0
 22 23  2  0
 12 24  1  0
 24 25  2  0
  5 26  1  0
 26 27  2  0
 27  3  1  0
 25  9  1  0
 22 16  1  0
  1 28  1  0
  1 29  1  0
  1 30  1  0
  2 31  1  0
  2 32  1  0
  4 33  1  0
 10 34  1  0
 11 35  1  0
 15 36  1  0
 16 37  1  1
 17 38  1  0
 17 39  1  0
 18 40  1  0
 18 41  1  0
 21 42  1  0
 26 43  1  0
M  END
>  <meeko>  (797) 
{"is_sidechain": [true], "free_energy": -10.5, "intermolecular_energy": 0.0, "internal_energy": -10.5, "cluster_size": 19, "cluster_id": 1, "rank_in_cluster": 1}

>  <_RMSD_MCS_to_ref>  (797) 
0.6131710836118893

$$$$
ligand
     RDKit          3D

 54 58  0  0  0  0  0  0  0  0999 V2000
   18.9090   19.1540    7.5370 C   0  0  0  0  0  0  0  0  0  0  0  0
   18.7730   17.6460    7.6780 C   0  0  0  0  0  0  0  0  0  0  0  0
   20.0910   16.9750    7.8320 C   0  0  0  0  0  0  0  0  0  0  0  0
   21.1140   16.8480    6.9120 C   0  0  0  0  0  0  0  0  0  0  0  0
   22.0700   16.1300    7.5710 N   0  0  0  0  0  0  0  0  0  0  0  0
   23.6060   15.7740    6.9860 S   0  0  0  0  0  6  0  0  0  0  0  0
   23.4180   14.9150    5.8340 O   0  0  0  0  0  0  0  0  0  0  0  0
   24.2690   17.0630    6.8900 O   0  0  0  0  0  0  0  0  0  0  0  0
   24.3940   14.8340    8.2640 C   0  0  0  0  0  0  0  0  0  0  0  0
   25.1480   13.7130    7.9130 C   0  0  0  0  0  0  0  0  0  0  0  0
   25.7810   12.9470    8.8960 C   0  0  0  0  0  0  0  0  0  0  0  0
   25.6240   13.3400   10.2300 C   0  0  0  0  0  0  0  0  0  0  0  0
   26.1240   12.7780   11.3830 N   0  0  0  0  0  0  0  0  0  0  0  0
   25.7180   13.4940   12.4780 C   0  0  0  0  0  0  0  0  0  0  0  0
   24.9310   14.5420   12.0410 C   0  0  0  0  0  0  0  0  0  0  0  0
   24.3140   15.5130   12.9350 C   0  0  0  0  0  0  0  0  0  0  0  0
   22.9390   15.5010   13.1770 C   0  0  0  0  0  0  0  0  0  0  0  0
   22.3810   16.4120   14.0710 C   0  0  0  0  0  0  0  0  0  0  0  0
   23.1940   17.3320   14.7410 C   0  0  0  0  0  0  0  0  0  0  0  0
   24.5800   17.3630   14.5280 C   0  0  0  0  0  0  0  0  0  0  0  0
   25.4310   18.2830   15.2290 N   0  0  0  0  0  0  0  0  0  0  0  0
   26.3510   17.7830   16.2440 C   0  0  0  0  0  0  0  0  0  0  0  0
   26.4940   18.7760   17.3780 C   0  0  0  0  0  0  0  0  0  0  0  0
   26.8870   20.1080   16.8180 C   0  0  0  0  0  0  0  0  0  0  0  0
   27.4750   20.9550   17.4860 O   0  0  0  0  0  0  0  0  0  0  0  0
   26.4710   20.3610   15.5410 N   0  0  0  0  0  0  0  0  0  0  0  0
   25.5980   19.6050   14.7940 C   0  0  0  0  0  0  0  0  0  0  0  0
   25.0590   20.1320   13.8240 O   0  0  0  0  0  0  0  0  0  0  0  0
   25.1130   16.4610   13.5950 C   0  0  0  0  0  0  0  0  0  0  0  0
   24.8690   14.4510   10.6110 C   0  0  0  0  0  0  0  0  0  0  0  0
   24.2420   15.2150    9.6020 C   0  0  0  0  0  0  0  0  0  0  0  0
   21.6490   15.8840    8.8390 C   0  0  0  0  0  0  0  0  0  0  0  0
   20.4390   16.3740    9.0260 N   0  0  0  0  0  0  0  0  0  0  0  0
   18.9504   19.6134    8.5356 H   0  0  0  0  0  0  0  0  0  0  0  0
   19.8320   19.3891    6.9867 H   0  0  0  0  0  0  0  0  0  0  0  0
   18.0430   19.5504    6.9867 H   0  0  0  0  0  0  0  0  0  0  0  0
   18.1584   17.4270    8.5636 H   0  0  0  0  0  0  0  0  0  0  0  0
   18.3038   17.2620    6.7602 H   0  0  0  0  0  0  0  0  0  0  0  0
   21.1499   17.2366    5.8836 H   0  0  0  0  0  0  0  0  0  0  0  0
   25.2448   13.4302    6.8544 H   0  0  0  0  0  0  0  0  0  0  0  0
   26.3822   12.0651    8.6301 H   0  0  0  0  0  0  0  0  0  0  0  0
   26.7191   11.9380   11.4174 H   0  0  0  0  0  0  0  0  0  0  0  0
   25.9744   13.2727   13.5246 H   0  0  0  0  0  0  0  0  0  0  0  0
   22.2962   14.7721   12.6617 H   0  0  0  0  0  0  0  0  0  0  0  0
   21.2958   16.4078   14.2509 H   0  0  0  0  0  0  0  0  0  0  0  0
   22.7390   18.0428   15.4465 H   0  0  0  0  0  0  0  0  0  0  0  0
   25.9656   16.8332   16.6432 H   0  0  0  0  0  0  0  0  0  0  0  0
   27.3376   17.6326   15.7814 H   0  0  0  0  0  0  0  0  0  0  0  0
   25.5353   18.8684   17.9094 H   0  0  0  0  0  0  0  0  0  0  0  0
   27.2658   18.4274   18.0800 H   0  0  0  0  0  0  0  0  0  0  0  0
   26.8509   21.2060   15.0910 H   0  0  0  0  0  0  0  0  0  0  0  0
   26.1899   16.4973   13.3735 H   0  0  0  0  0  0  0  0  0  0  0  0
   23.6417   16.0985    9.8646 H   0  0  0  0  0  0  0  0  0  0  0  0
   22.2349   15.3511    9.6023 H   0  0  0  0  0  0  0  0  0  0  0  0
  1  2  1  0
  2  3  1  0
  3  4  2  0
  4  5  1  0
  5  6  1  0
  6  7  2  0
  6  8  2  0
  6  9  1  0
  9 10  2  0
 10 11  1  0
 11 12  2  0
 12 13  1  0
 13 14  1  0
 14 15  2  0
 15 16  1  0
 16 17  2  0
 17 18  1  0
 18 19  2  0
 19 20  1  0
 20 21  1  0
 21 22  1  0
 22 23  1  0
 23 24  1  0
 24 25  2  0
 24 26  1  0
 26 27  1  0
 27 28  2  0
 20 29  2  0
 15 30  1  0
 30 31  2  0
  5 32  1  0
 32 33  2  0
 33  3  1  0
 31  9  1  0
 30 12  1  0
 29 16  1  0
 27 21  1  0
  1 34  1  0
  1 35  1  0
  1 36  1  0
  2 37  1  0
  2 38  1  0
  4 39  1  0
 10 40  1  0
 11 41  1  0
 13 42  1  0
 14 43  1  0
 17 44  1  0
 18 45  1  0
 19 46  1  0
 22 47  1  0
 22 48  1  0
 23 49  1  0
 23 50  1  0
 26 51  1  0
 29 52  1  0
 31 53  1  0
 32 54  1  0
M  END
>  <meeko>  (798) 
{"is_sidechain": [true], "free_energy": -10.5, "intermolecular_energy": 0.0, "internal_energy": -10.5, "cluster_size": 18, "cluster_id": 1, "rank_in_cluster": 1}

>  <_RMSD_MCS_to_ref>  (798) 
0.6119745705501166

$$$$
ligand
     RDKit          3D

 59 63  0  0  0  0  0  0  0  0999 V2000
   18.8250   19.0170    7.5350 C   0  0  0  0  0  0  0  0  0  0  0  0
   18.5200   17.5420    7.7330 C   0  0  0  0  0  0  0  0  0  0  0  0
   19.7450   16.7000    7.6640 C   0  0  0  0  0  0  0  0  0  0  0  0
   20.4110   16.0500    8.6850 C   0  0  0  0  0  0  0  0  0  0  0  0
   21.4460   15.4130    8.0580 N   0  0  0  0  0  0  0  0  0  0  0  0
   22.7120   14.6020    8.8090 S   0  0  0  0  0  6  0  0  0  0  0  0
   22.1760   13.2940    9.1350 O   0  0  0  0  0  0  0  0  0  0  0  0
   23.8370   14.7950    7.9140 O   0  0  0  0  0  0  0  0  0  0  0  0
   23.0600   15.4540   10.3370 C   0  0  0  0  0  0  0  0  0  0  0  0
   22.0270   15.6910   11.2750 C   0  0  0  0  0  0  0  0  0  0  0  0
   22.2940   16.3500   12.4780 C   0  0  0  0  0  0  0  0  0  0  0  0
   23.5950   16.7450   12.7140 C   0  0  0  0  0  0  0  0  0  0  0  0
   24.6280   16.5220   11.8060 C   0  0  0  0  0  0  0  0  0  0  0  0
   24.3860   15.8800   10.5920 C   0  0  0  0  0  0  0  0  0  0  0  0
   25.5210   15.6510    9.6870 C   0  0  0  0  0  0  0  0  0  0  0  0
   26.1670   14.4710    9.7180 C   0  0  0  0  0  0  0  0  0  0  0  0
   27.3580   14.2170    8.8340 C   0  0  0  0  0  0  0  0  0  0  0  0
   27.5660   15.3160    7.7800 C   0  0  0  0  0  0  0  0  0  0  0  0
   27.3580   16.6550    8.3460 N   0  0  0  0  0  0  0  0  0  0  0  0
   25.9680   16.7950    8.8040 C   0  0  0  0  0  0  0  0  0  0  0  0
   25.9090   17.0650   12.3630 C   0  0  0  0  0  0  0  0  0  0  0  0
   25.5110   17.5350   13.6840 N   0  0  0  0  0  0  0  0  0  0  0  0
   26.3470   18.4030   14.5060 C   0  0  1  0  0  0  0  0  0  0  0  0
   25.8700   19.8520   14.5020 C   0  0  0  0  0  0  0  0  0  0  0  0
   26.8380   20.7040   15.3090 C   0  0  0  0  0  0  0  0  0  0  0  0
   27.0000   20.1670   16.7120 C   0  0  0  0  0  0  0  0  0  0  0  0
   27.1750   20.9020   17.6800 O   0  0  0  0  0  0  0  0  0  0  0  0
   26.9660   18.8040   16.8570 N   0  0  0  0  0  0  0  0  0  0  0  0
   26.4340   17.9060   15.9600 C   0  0  0  0  0  0  0  0  0  0  0  0
   26.0630   16.7960   16.3370 O   0  0  0  0  0  0  0  0  0  0  0  0
   24.1450   17.4320   13.8860 C   0  0  0  0  0  0  0  0  0  0  0  0
   23.4920   17.8240   14.8320 O   0  0  0  0  0  0  0  0  0  0  0  0
   21.4060   15.7000    6.7300 C   0  0  0  0  0  0  0  0  0  0  0  0
   20.3870   16.4870    6.4600 N   0  0  0  0  0  0  0  0  0  0  0  0
   18.9260   19.5054    8.5155 H   0  0  0  0  0  0  0  0  0  0  0  0
   19.7645   19.1250    6.9731 H   0  0  0  0  0  0  0  0  0  0  0  0
   18.0054   19.4887    6.9731 H   0  0  0  0  0  0  0  0  0  0  0  0
   18.0521   17.4064    8.7193 H   0  0  0  0  0  0  0  0  0  0  0  0
   17.8465   17.2250    6.9231 H   0  0  0  0  0  0  0  0  0  0  0  0
   20.1650   16.0458    9.7571 H   0  0  0  0  0  0  0  0  0  0  0  0
   21.0036   15.3530   11.0548 H   0  0  0  0  0  0  0  0  0  0  0  0
   21.4966   16.5466   13.2098 H   0  0  0  0  0  0  0  0  0  0  0  0
   25.8194   13.6806   10.3995 H   0  0  0  0  0  0  0  0  0  0  0  0
   28.2575   14.1608    9.4646 H   0  0  0  0  0  0  0  0  0  0  0  0
   27.1751   13.2748    8.2966 H   0  0  0  0  0  0  0  0  0  0  0  0
   28.5930   15.2483    7.3917 H   0  0  0  0  0  0  0  0  0  0  0  0
   26.8308   15.1647    6.9759 H   0  0  0  0  0  0  0  0  0  0  0  0
   27.9956   16.7914    9.1434 H   0  0  0  0  0  0  0  0  0  0  0  0
   25.8784   17.7326    9.3722 H   0  0  0  0  0  0  0  0  0  0  0  0
   25.3248   16.7940    7.9117 H   0  0  0  0  0  0  0  0  0  0  0  0
   26.6746   16.2785   12.4360 H   0  0  0  0  0  0  0  0  0  0  0  0
   26.3584   17.8505   11.7376 H   0  0  0  0  0  0  0  0  0  0  0  0
   27.3470   18.3645   14.0494 H   0  0  0  0  0  0  0  0  0  0  0  0
   25.8298   20.2224   13.4670 H   0  0  0  0  0  0  0  0  0  0  0  0
   24.8671   19.9103   14.9502 H   0  0  0  0  0  0  0  0  0  0  0  0
   27.8181   20.7042   14.8095 H   0  0  0  0  0  0  0  0  0  0  0  0
   26.4342   21.7253   15.3715 H   0  0  0  0  0  0  0  0  0  0  0  0
   27.3771   18.4158   17.7179 H   0  0  0  0  0  0  0  0  0  0  0  0
   22.1247   15.3267    5.9856 H   0  0  0  0  0  0  0  0  0  0  0  0
  1  2  1  0
  2  3  1  0
  3  4  2  0
  4  5  1  0
  5  6  1  0
  6  7  2  0
  6  8  2  0
  6  9  1  0
  9 10  2  0
 10 11  1  0
 11 12  2  0
 12 13  1  0
 13 14  2  0
 14 15  1  0
 15 16  2  0
 16 17  1  0
 17 18  1  0
 18 19  1  0
 19 20  1  0
 13 21  1  0
 21 22  1  0
 22 23  1  0
 23 24  1  0
 24 25  1  0
 25 26  1  0
 26 27  2  0
 26 28  1  0
 28 29  1  0
 29 30  2  0
 22 31  1  0
 31 32  2  0
  5 33  1  0
 33 34  2  0
 34  3  1  0
 14  9  1  0
 20 15  1  0
 29 23  1  0
 31 12  1  0
  1 35  1  0
  1 36  1  0
  1 37  1  0
  2 38  1  0
  2 39  1  0
  4 40  1  0
 10 41  1  0
 11 42  1  0
 16 43  1  0
 17 44  1  0
 17 45  1  0
 18 46  1  0
 18 47  1  0
 19 48  1  0
 20 49  1  0
 20 50  1  0
 21 51  1  0
 21 52  1  0
 23 53  1  6
 24 54  1  0
 24 55  1  0
 25 56  1  0
 25 57  1  0
 28 58  1  0
 33 59  1  0
M  END
>  <meeko>  (799) 
{"is_sidechain": [true], "free_energy": -10.49, "intermolecular_energy": 0.0, "internal_energy": -10.49, "cluster_size": 6, "cluster_id": 1, "rank_in_cluster": 1}

>  <_RMSD_MCS_to_ref>  (799) 
1.853561646608437

$$$$
ligand
     RDKit          3D

 56 60  0  0  0  0  0  0  0  0999 V2000
   18.8250   19.0170    7.5350 C   0  0  0  0  0  0  0  0  0  0  0  0
   18.5200   17.5420    7.7330 C   0  0  0  0  0  0  0  0  0  0  0  0
   19.7030   16.6810    7.4620 C   0  0  0  0  0  0  0  0  0  0  0  0
   20.9910   16.7960    7.9470 C   0  0  0  0  0  0  0  0  0  0  0  0
   21.6570   15.7460    7.3810 N   0  0  0  0  0  0  0  0  0  0  0  0
   23.2820   15.3870    7.5990 S   0  0  0  0  0  6  0  0  0  0  0  0
   23.8430   15.5010    6.2650 O   0  0  0  0  0  0  0  0  0  0  0  0
   23.7580   16.2070    8.6950 O   0  0  0  0  0  0  0  0  0  0  0  0
   23.3450   13.6750    8.0880 C   0  0  0  0  0  0  0  0  0  0  0  0
   23.5240   12.7300    7.0610 C   0  0  0  0  0  0  0  0  0  0  0  0
   23.5670   11.3690    7.3530 C   0  0  0  0  0  0  0  0  0  0  0  0
   23.4370   10.9410    8.6690 C   0  0  0  0  0  0  0  0  0  0  0  0
   23.2710   11.8760    9.6930 C   0  0  0  0  0  0  0  0  0  0  0  0
   23.2260   13.2610    9.4290 C   0  0  0  0  0  0  0  0  0  0  0  0
   23.0710   14.1660   10.5750 C   0  0  0  0  0  0  0  0  0  0  0  0
   21.7980   14.3600   11.1670 C   0  0  0  0  0  0  0  0  0  0  0  0
   21.6270   15.2120   12.2610 C   0  0  0  0  0  0  0  0  0  0  0  0
   22.7490   15.8540   12.7450 C   0  0  0  0  0  0  0  0  0  0  0  0
   24.0100   15.6940   12.1770 C   0  0  0  0  0  0  0  0  0  0  0  0
   24.1820   14.8700   11.0770 C   0  0  0  0  0  0  0  0  0  0  0  0
   25.0170   16.4930   12.9340 C   0  0  0  0  0  0  0  0  0  0  0  0
   24.2200   17.0690   14.0090 N   0  0  0  0  0  0  0  0  0  0  0  0
   24.7100   18.1060   14.9080 C   0  0  1  0  0  0  0  0  0  0  0  0
   25.7090   17.5690   15.9270 C   0  0  0  0  0  0  0  0  0  0  0  0
   26.1050   18.6850   16.8820 C   0  0  0  0  0  0  0  0  0  0  0  0
   26.6480   19.8780   16.1310 C   0  0  0  0  0  0  0  0  0  0  0  0
   27.5650   20.5690   16.5680 O   0  0  0  0  0  0  0  0  0  0  0  0
   26.0550   20.1690   14.9300 N   0  0  0  0  0  0  0  0  0  0  0  0
   25.3510   19.2800   14.1480 C   0  0  0  0  0  0  0  0  0  0  0  0
   25.2760   19.4490   12.9330 O   0  0  0  0  0  0  0  0  0  0  0  0
   22.8730   16.7720   13.8810 C   0  0  0  0  0  0  0  0  0  0  0  0
   21.9470   17.1740   14.5610 O   0  0  0  0  0  0  0  0  0  0  0  0
   20.7900   15.0220    6.6280 C   0  0  0  0  0  0  0  0  0  0  0  0
   19.5970   15.5850    6.6290 N   0  0  0  0  0  0  0  0  0  0  0  0
   18.9260   19.5054    8.5155 H   0  0  0  0  0  0  0  0  0  0  0  0
   19.7645   19.1250    6.9731 H   0  0  0  0  0  0  0  0  0  0  0  0
   18.0054   19.4887    6.9731 H   0  0  0  0  0  0  0  0  0  0  0  0
   18.1975   17.3836    8.7727 H   0  0  0  0  0  0  0  0  0  0  0  0
   17.7294   17.2626    7.0211 H   0  0  0  0  0  0  0  0  0  0  0  0
   21.3895   17.5586    8.6323 H   0  0  0  0  0  0  0  0  0  0  0  0
   23.6308   13.0687    6.0199 H   0  0  0  0  0  0  0  0  0  0  0  0
   23.7034   10.6352    6.5449 H   0  0  0  0  0  0  0  0  0  0  0  0
   23.4648    9.8667    8.9037 H   0  0  0  0  0  0  0  0  0  0  0  0
   23.1730   11.5239   10.7305 H   0  0  0  0  0  0  0  0  0  0  0  0
   20.9266   13.8288   10.7566 H   0  0  0  0  0  0  0  0  0  0  0  0
   20.6382   15.3650   12.7181 H   0  0  0  0  0  0  0  0  0  0  0  0
   25.1697   14.7675   10.6038 H   0  0  0  0  0  0  0  0  0  0  0  0
   25.8162   15.8505   13.3322 H   0  0  0  0  0  0  0  0  0  0  0  0
   25.5318   17.2455   12.3186 H   0  0  0  0  0  0  0  0  0  0  0  0
   23.8204   18.4696   15.4432 H   0  0  0  0  0  0  0  0  0  0  0  0
   25.2487   16.7466   16.4942 H   0  0  0  0  0  0  0  0  0  0  0  0
   26.6030   17.1974   15.4049 H   0  0  0  0  0  0  0  0  0  0  0  0
   25.2207   18.9954   17.4579 H   0  0  0  0  0  0  0  0  0  0  0  0
   26.8910   18.3077   17.5527 H   0  0  0  0  0  0  0  0  0  0  0  0
   26.1433   21.1346   14.5827 H   0  0  0  0  0  0  0  0  0  0  0  0
   21.0462   14.0960    6.0923 H   0  0  0  0  0  0  0  0  0  0  0  0
  1  2  1  0
  2  3  1  0
  3  4  2  0
  4  5  1  0
  5  6  1  0
  6  7  2  0
  6  8  2  0
  6  9  1  0
  9 10  2  0
 10 11  1  0
 11 12  2  0
 12 13  1  0
 13 14  2  0
 14 15  1  0
 15 16  2  0
 16 17  1  0
 17 18  2  0
 18 19  1  0
 19 20  2  0
 19 21  1  0
 21 22  1  0
 22 23  1  0
 23 24  1  0
 24 25  1  0
 25 26  1  0
 26 27  2  0
 26 28  1  0
 28 29  1  0
 29 30  2  0
 22 31  1  0
 31 32  2  0
  5 33  1  0
 33 34  2  0
 34  3  1  0
 14  9  1  0
 20 15  1  0
 29 23  1  0
 31 18  1  0
  1 35  1  0
  1 36  1  0
  1 37  1  0
  2 38  1  0
  2 39  1  0
  4 40  1  0
 10 41  1  0
 11 42  1  0
 12 43  1  0
 13 44  1  0
 16 45  1  0
 17 46  1  0
 20 47  1  0
 21 48  1  0
 21 49  1  0
 23 50  1  1
 24 51  1  0
 24 52  1  0
 25 53  1  0
 25 54  1  0
 28 55  1  0
 33 56  1  0
M  END
>  <meeko>  (800) 
{"is_sidechain": [true], "free_energy": -10.49, "intermolecular_energy": 0.0, "internal_energy": -10.49, "cluster_size": 20, "cluster_id": 1, "rank_in_cluster": 1}

>  <_RMSD_MCS_to_ref>  (800) 
0.6623359335630893

$$$$
ligand
     RDKit          3D

 49 52  0  0  0  0  0  0  0  0999 V2000
   18.7970   18.8170    7.7190 C   0  0  0  0  0  0  0  0  0  0  0  0
   18.5280   17.3290    7.8810 C   0  0  0  0  0  0  0  0  0  0  0  0
   19.7750   16.5210    7.7980 C   0  0  0  0  0  0  0  0  0  0  0  0
   20.5120   15.9560    8.8200 C   0  0  0  0  0  0  0  0  0  0  0  0
   21.5470   15.3350    8.1810 N   0  0  0  0  0  0  0  0  0  0  0  0
   22.8580   14.5960    8.9280 S   0  0  0  0  0  6  0  0  0  0  0  0
   23.8690   15.6220    9.0960 O   0  0  0  0  0  0  0  0  0  0  0  0
   23.0980   13.3960    8.1480 O   0  0  0  0  0  0  0  0  0  0  0  0
   22.2360   14.1340   10.5210 C   0  0  0  0  0  0  0  0  0  0  0  0
   21.0600   13.3650   10.5840 C   0  0  0  0  0  0  0  0  0  0  0  0
   20.5140   13.0050   11.8140 C   0  0  0  0  0  0  0  0  0  0  0  0
   21.1210   13.3970   13.0090 C   0  0  0  0  0  0  0  0  0  0  0  0
   22.2990   14.1480   12.9290 C   0  0  0  0  0  0  0  0  0  0  0  0
   23.0900   14.6480   13.9350 N   0  0  0  0  0  0  0  0  0  0  0  0
   24.1780   15.3200   13.4250 C   0  0  0  0  0  0  0  0  0  0  0  0
   25.1520   15.9330   14.2980 C   0  0  0  0  0  0  0  0  0  0  0  0
   25.9090   15.2700   15.0000 O   0  0  0  0  0  0  0  0  0  0  0  0
   25.1790   17.3050   14.2840 N   0  0  0  0  0  0  0  0  0  0  0  0
   26.1900   18.0590   15.0090 C   0  0  2  0  0  0  0  0  0  0  0  0
   26.1000   17.8480   16.5170 C   0  0  0  0  0  0  0  0  0  0  0  0
   27.1590   18.6910   17.2100 C   0  0  0  0  0  0  0  0  0  0  0  0
   27.0300   20.1500   16.8370 C   0  0  0  0  0  0  0  0  0  0  0  0
   27.3030   21.0560   17.6190 O   0  0  0  0  0  0  0  0  0  0  0  0
   26.6230   20.4230   15.5560 N   0  0  0  0  0  0  0  0  0  0  0  0
   25.9960   19.5480   14.7040 C   0  0  0  0  0  0  0  0  0  0  0  0
   25.3310   19.9510   13.7500 O   0  0  0  0  0  0  0  0  0  0  0  0
   24.0680   15.2440   12.0460 C   0  0  0  0  0  0  0  0  0  0  0  0
   22.8830   14.5210   11.7170 C   0  0  0  0  0  0  0  0  0  0  0  0
   21.4240   15.5250    6.8430 C   0  0  0  0  0  0  0  0  0  0  0  0
   20.3580   16.2510    6.5750 N   0  0  0  0  0  0  0  0  0  0  0  0
   18.8815   19.2845    8.7111 H   0  0  0  0  0  0  0  0  0  0  0  0
   19.7359   18.9616    7.1643 H   0  0  0  0  0  0  0  0  0  0  0  0
   17.9682   19.2812    7.1643 H   0  0  0  0  0  0  0  0  0  0  0  0
   18.0596   17.1582    8.8615 H   0  0  0  0  0  0  0  0  0  0  0  0
   17.8657   17.0139    7.0612 H   0  0  0  0  0  0  0  0  0  0  0  0
   20.3115   15.9968    9.9008 H   0  0  0  0  0  0  0  0  0  0  0  0
   20.5672   13.0451    9.6540 H   0  0  0  0  0  0  0  0  0  0  0  0
   19.5930   12.4043   11.8443 H   0  0  0  0  0  0  0  0  0  0  0  0
   20.6869   13.1241   13.9822 H   0  0  0  0  0  0  0  0  0  0  0  0
   22.8945   14.5348   14.9399 H   0  0  0  0  0  0  0  0  0  0  0  0
   24.4640   17.8147   13.7456 H   0  0  0  0  0  0  0  0  0  0  0  0
   27.1789   17.7051   14.6820 H   0  0  0  0  0  0  0  0  0  0  0  0
   25.1027   18.1485   16.8706 H   0  0  0  0  0  0  0  0  0  0  0  0
   26.2663   16.7858   16.7496 H   0  0  0  0  0  0  0  0  0  0  0  0
   27.0430   18.5879   18.2990 H   0  0  0  0  0  0  0  0  0  0  0  0
   28.1497   18.3368   16.8890 H   0  0  0  0  0  0  0  0  0  0  0  0
   26.8046   21.3724   15.2003 H   0  0  0  0  0  0  0  0  0  0  0  0
   24.7783   15.6713   11.3229 H   0  0  0  0  0  0  0  0  0  0  0  0
   22.1179   15.1280    6.0874 H   0  0  0  0  0  0  0  0  0  0  0  0
  1  2  1  0
  2  3  1  0
  3  4  2  0
  4  5  1  0
  5  6  1  0
  6  7  2  0
  6  8  2  0
  6  9  1  0
  9 10  2  0
 10 11  1  0
 11 12  2  0
 12 13  1  0
 13 14  1  0
 14 15  1  0
 15 16  1  0
 16 17  2  0
 16 18  1  0
 18 19  1  0
 19 20  1  0
 20 21  1  0
 21 22  1  0
 22 23  2  0
 22 24  1  0
 24 25  1  0
 25 26  2  0
 15 27  2  0
 27 28  1  0
  5 29  1  0
 29 30  2  0
 30  3  1  0
 28  9  1  0
 28 13  2  0
 25 19  1  0
  1 31  1  0
  1 32  1  0
  1 33  1  0
  2 34  1  0
  2 35  1  0
  4 36  1  0
 10 37  1  0
 11 38  1  0
 12 39  1  0
 14 40  1  0
 18 41  1  0
 19 42  1  6
 20 43  1  0
 20 44  1  0
 21 45  1  0
 21 46  1  0
 24 47  1  0
 27 48  1  0
 29 49  1  0
M  END
>  <meeko>  (801) 
{"is_sidechain": [true], "free_energy": -10.49, "intermolecular_energy": 0.0, "internal_energy": -10.49, "cluster_size": 15, "cluster_id": 1, "rank_in_cluster": 1}

>  <_RMSD_MCS_to_ref>  (801) 
0.6820737680046048

$$$$
ligand
     RDKit          3D

 48 51  0  0  0  0  0  0  0  0999 V2000
   18.7970   18.8170    7.7190 C   0  0  0  0  0  0  0  0  0  0  0  0
   18.5280   17.3290    7.8810 C   0  0  0  0  0  0  0  0  0  0  0  0
   19.6400   16.4960    7.3500 C   0  0  0  0  0  0  0  0  0  0  0  0
   20.9890   16.5550    7.6440 C   0  0  0  0  0  0  0  0  0  0  0  0
   21.5460   15.5900    6.8560 N   0  0  0  0  0  0  0  0  0  0  0  0
   23.1260   15.0400    6.9540 S   0  0  0  0  0  6  0  0  0  0  0  0
   23.1820   13.7900    6.2290 O   0  0  0  0  0  0  0  0  0  0  0  0
   23.9800   16.1740    6.6650 O   0  0  0  0  0  0  0  0  0  0  0  0
   23.4820   14.6260    8.6340 C   0  0  0  0  0  0  0  0  0  0  0  0
   23.2460   13.5000    9.4080 C   0  0  0  0  0  0  0  0  0  0  0  0
   23.7550   13.7410   10.7110 C   0  0  0  0  0  0  0  0  0  0  0  0
   23.8210   13.0200   11.9130 C   0  0  0  0  0  0  0  0  0  0  0  0
   24.4290   13.6400   13.0070 C   0  0  0  0  0  0  0  0  0  0  0  0
   24.9330   14.9300   12.8570 C   0  0  0  0  0  0  0  0  0  0  0  0
   25.5910   15.5970   14.0300 C   0  0  0  0  0  0  0  0  0  0  0  0
   25.9540   14.9650   15.0160 O   0  0  0  0  0  0  0  0  0  0  0  0
   25.7610   16.9580   13.8980 N   0  0  0  0  0  0  0  0  0  0  0  0
   26.5350   17.7450   14.8400 C   0  0  2  0  0  0  0  0  0  0  0  0
   25.9700   17.6620   16.2540 C   0  0  0  0  0  0  0  0  0  0  0  0
   26.8080   18.5230   17.1870 C   0  0  0  0  0  0  0  0  0  0  0  0
   26.8830   19.9490   16.6960 C   0  0  0  0  0  0  0  0  0  0  0  0
   26.9430   20.9070   17.4600 O   0  0  0  0  0  0  0  0  0  0  0  0
   26.9140   20.1300   15.3360 N   0  0  0  0  0  0  0  0  0  0  0  0
   26.5370   19.2090   14.3880 C   0  0  0  0  0  0  0  0  0  0  0  0
   26.2400   19.5640   13.2480 O   0  0  0  0  0  0  0  0  0  0  0  0
   24.8930   15.6720   11.7100 N   0  0  0  0  0  0  0  0  0  0  0  0
   24.3000   15.0200   10.6950 C   0  0  0  0  0  0  0  0  0  0  0  0
   24.1380   15.5310    9.4400 N   0  0  0  0  0  0  0  0  0  0  0  0
   20.5620   14.9460    6.1770 C   0  0  0  0  0  0  0  0  0  0  0  0
   19.3900   15.4830    6.4440 N   0  0  0  0  0  0  0  0  0  0  0  0
   18.8815   19.2845    8.7111 H   0  0  0  0  0  0  0  0  0  0  0  0
   19.7359   18.9616    7.1643 H   0  0  0  0  0  0  0  0  0  0  0  0
   17.9682   19.2812    7.1643 H   0  0  0  0  0  0  0  0  0  0  0  0
   18.3984   17.1068    8.9505 H   0  0  0  0  0  0  0  0  0  0  0  0
   17.6207   17.0856    7.3088 H   0  0  0  0  0  0  0  0  0  0  0  0
   21.4976   17.2264    8.3515 H   0  0  0  0  0  0  0  0  0  0  0  0
   22.7496   12.5783    9.0703 H   0  0  0  0  0  0  0  0  0  0  0  0
   23.4088   12.0031   11.9909 H   0  0  0  0  0  0  0  0  0  0  0  0
   24.5086   13.1178   13.9719 H   0  0  0  0  0  0  0  0  0  0  0  0
   25.3211   17.4359   13.0987 H   0  0  0  0  0  0  0  0  0  0  0  0
   27.5571   17.3388   14.8592 H   0  0  0  0  0  0  0  0  0  0  0  0
   24.9312   18.0238   16.2555 H   0  0  0  0  0  0  0  0  0  0  0  0
   25.9953   16.6174   16.5979 H   0  0  0  0  0  0  0  0  0  0  0  0
   26.3544   18.5122   18.1891 H   0  0  0  0  0  0  0  0  0  0  0  0
   27.8277   18.1117   17.2177 H   0  0  0  0  0  0  0  0  0  0  0  0
   27.2513   21.0411   14.9938 H   0  0  0  0  0  0  0  0  0  0  0  0
   24.4604   16.4614    9.1380 H   0  0  0  0  0  0  0  0  0  0  0  0
   20.7218   14.0948    5.4988 H   0  0  0  0  0  0  0  0  0  0  0  0
  1  2  1  0
  2  3  1  0
  3  4  2  0
  4  5  1  0
  5  6  1  0
  6  7  2  0
  6  8  2  0
  6  9  1  0
  9 10  2  0
 10 11  1  0
 11 12  2  0
 12 13  1  0
 13 14  2  0
 14 15  1  0
 15 16  2  0
 15 17  1  0
 17 18  1  0
 18 19  1  0
 19 20  1  0
 20 21  1  0
 21 22  2  0
 21 23  1  0
 23 24  1  0
 24 25  2  0
 14 26  1  0
 26 27  2  0
 27 28  1  0
  5 29  1  0
 29 30  2  0
 30  3  1  0
 28  9  1  0
 27 11  1  0
 24 18  1  0
  1 31  1  0
  1 32  1  0
  1 33  1  0
  2 34  1  0
  2 35  1  0
  4 36  1  0
 10 37  1  0
 12 38  1  0
 13 39  1  0
 17 40  1  0
 18 41  1  1
 19 42  1  0
 19 43  1  0
 20 44  1  0
 20 45  1  0
 23 46  1  0
 28 47  1  0
 29 48  1  0
M  END
>  <meeko>  (802) 
{"is_sidechain": [true], "free_energy": -10.49, "intermolecular_energy": 0.0, "internal_energy": -10.49, "cluster_size": 18, "cluster_id": 1, "rank_in_cluster": 1}

>  <_RMSD_MCS_to_ref>  (802) 
0.9927535220564844

$$$$
ligand
     RDKit          3D

 46 49  0  0  0  0  0  0  0  0999 V2000
   18.7970   18.8170    7.7190 C   0  0  0  0  0  0  0  0  0  0  0  0
   18.5280   17.3290    7.8810 C   0  0  0  0  0  0  0  0  0  0  0  0
   19.7800   16.5490    8.0750 C   0  0  0  0  0  0  0  0  0  0  0  0
   20.1970   15.8480    9.1900 C   0  0  0  0  0  0  0  0  0  0  0  0
   21.4180   15.3540    8.8360 N   0  0  0  0  0  0  0  0  0  0  0  0
   22.5230   14.5680    9.8380 S   0  0  0  0  0  6  0  0  0  0  0  0
   22.8560   13.3300    9.1560 O   0  0  0  0  0  0  0  0  0  0  0  0
   23.5540   15.5730   10.0500 O   0  0  0  0  0  0  0  0  0  0  0  0
   21.7960   14.2060   11.3520 C   0  0  0  0  0  0  0  0  0  0  0  0
   20.8400   13.2630   11.4060 C   0  0  0  0  0  0  0  0  0  0  0  0
   20.2540   13.0390   12.7520 C   0  0  0  0  0  0  0  0  0  0  0  0
   20.5790   13.6660   13.8390 N   0  0  0  0  0  0  0  0  0  0  0  0
   21.5450   14.6220   13.7180 C   0  0  0  0  0  0  0  0  0  0  0  0
   22.0590   15.3980   14.6450 N   0  0  0  0  0  0  0  0  0  0  0  0
   22.9860   16.1600   13.9670 C   0  0  0  0  0  0  0  0  0  0  0  0
   23.8110   17.1810   14.6430 C   0  0  0  0  0  0  0  0  0  0  0  0
   23.3570   18.0590   15.3730 O   0  0  0  0  0  0  0  0  0  0  0  0
   25.1600   17.0540   14.3860 N   0  0  0  0  0  0  0  0  0  0  0  0
   26.1560   17.8590   15.0650 C   0  0  2  0  0  0  0  0  0  0  0  0
   26.0120   17.7880   16.5820 C   0  0  0  0  0  0  0  0  0  0  0  0
   27.0670   18.6680   17.2360 C   0  0  0  0  0  0  0  0  0  0  0  0
   26.9860   20.0880   16.7310 C   0  0  0  0  0  0  0  0  0  0  0  0
   27.2540   21.0550   17.4380 O   0  0  0  0  0  0  0  0  0  0  0  0
   26.6250   20.2540   15.4180 N   0  0  0  0  0  0  0  0  0  0  0  0
   26.0170   19.3180   14.6180 C   0  0  0  0  0  0  0  0  0  0  0  0
   25.4180   19.6520   13.5970 O   0  0  0  0  0  0  0  0  0  0  0  0
   23.0630   15.8850   12.6560 N   0  0  0  0  0  0  0  0  0  0  0  0
   22.1540   14.9060   12.4890 N   0  0  0  0  0  0  0  0  0  0  0  0
   21.7050   15.7410    7.5660 C   0  0  0  0  0  0  0  0  0  0  0  0
   20.7280   16.4700    7.0720 N   0  0  0  0  0  0  0  0  0  0  0  0
   18.8815   19.2845    8.7111 H   0  0  0  0  0  0  0  0  0  0  0  0
   19.7359   18.9616    7.1643 H   0  0  0  0  0  0  0  0  0  0  0  0
   17.9682   19.2812    7.1643 H   0  0  0  0  0  0  0  0  0  0  0  0
   17.8785   17.1797    8.7562 H   0  0  0  0  0  0  0  0  0  0  0  0
   18.0466   16.9707    6.9591 H   0  0  0  0  0  0  0  0  0  0  0  0
   19.6660   15.7180   10.1445 H   0  0  0  0  0  0  0  0  0  0  0  0
   20.5157   12.6990   10.5191 H   0  0  0  0  0  0  0  0  0  0  0  0
   19.4718   12.2699   12.8342 H   0  0  0  0  0  0  0  0  0  0  0  0
   25.4704   16.3635   13.6876 H   0  0  0  0  0  0  0  0  0  0  0  0
   27.1465   17.4612   14.7990 H   0  0  0  0  0  0  0  0  0  0  0  0
   25.0108   18.1398   16.8717 H   0  0  0  0  0  0  0  0  0  0  0  0
   26.1467   16.7479   16.9137 H   0  0  0  0  0  0  0  0  0  0  0  0
   26.9110   18.6654   18.3249 H   0  0  0  0  0  0  0  0  0  0  0  0
   28.0594   18.2659   16.9842 H   0  0  0  0  0  0  0  0  0  0  0  0
   26.8297   21.1687   14.9911 H   0  0  0  0  0  0  0  0  0  0  0  0
   22.6270   15.4807    7.0254 H   0  0  0  0  0  0  0  0  0  0  0  0
  1  2  1  0
  2  3  1  0
  3  4  2  0
  4  5  1  0
  5  6  1  0
  6  7  2  0
  6  8  2  0
  6  9  1  0
  9 10  2  0
 10 11  1  0
 11 12  2  0
 12 13  1  0
 13 14  2  0
 14 15  1  0
 15 16  1  0
 16 17  2  0
 16 18  1  0
 18 19  1  0
 19 20  1  0
 20 21  1  0
 21 22  1  0
 22 23  2  0
 22 24  1  0
 24 25  1  0
 25 26  2  0
 15 27  2  0
 27 28  1  0
  5 29  1  0
 29 30  2  0
 30  3  1  0
 28  9  1  0
 28 13  1  0
 25 19  1  0
  1 31  1  0
  1 32  1  0
  1 33  1  0
  2 34  1  0
  2 35  1  0
  4 36  1  0
 10 37  1  0
 11 38  1  0
 18 39  1  0
 19 40  1  1
 20 41  1  0
 20 42  1  0
 21 43  1  0
 21 44  1  0
 24 45  1  0
 29 46  1  0
M  END
>  <meeko>  (803) 
{"is_sidechain": [true], "free_energy": -10.49, "intermolecular_energy": 0.0, "internal_energy": -10.49, "cluster_size": 8, "cluster_id": 1, "rank_in_cluster": 1}

>  <_RMSD_MCS_to_ref>  (803) 
0.6997765516378933

$$$$
ligand
     RDKit          3D

 49 52  0  0  0  0  0  0  0  0999 V2000
   18.7970   18.8170    7.7190 C   0  0  0  0  0  0  0  0  0  0  0  0
   18.5280   17.3290    7.8810 C   0  0  0  0  0  0  0  0  0  0  0  0
   19.7680   16.5610    8.1730 C   0  0  0  0  0  0  0  0  0  0  0  0
   20.1580   15.9720    9.3590 C   0  0  0  0  0  0  0  0  0  0  0  0
   21.3450   15.3750    9.0620 N   0  0  0  0  0  0  0  0  0  0  0  0
   22.2740   14.4040   10.0670 S   0  0  0  0  0  6  0  0  0  0  0  0
   23.2740   15.2490   10.6900 O   0  0  0  0  0  0  0  0  0  0  0  0
   22.6510   13.2820    9.2220 O   0  0  0  0  0  0  0  0  0  0  0  0
   21.1950   13.7830   11.3250 C   0  0  0  0  0  0  0  0  0  0  0  0
   20.3090   12.7490   10.9730 C   0  0  0  0  0  0  0  0  0  0  0  0
   19.4380   12.2290   11.9220 C   0  0  0  0  0  0  0  0  0  0  0  0
   19.4600   12.7380   13.2140 C   0  0  0  0  0  0  0  0  0  0  0  0
   20.3600   13.7660   13.5560 C   0  0  0  0  0  0  0  0  0  0  0  0
   20.4180   14.2980   14.8380 C   0  0  0  0  0  0  0  0  0  0  0  0
   21.2630   15.2730   15.2120 N   0  0  0  0  0  0  0  0  0  0  0  0
   22.0790   15.7230   14.2400 C   0  0  0  0  0  0  0  0  0  0  0  0
   23.0430   16.8230   14.6240 C   0  0  0  0  0  0  0  0  0  0  0  0
   22.7710   17.6850   15.4550 O   0  0  0  0  0  0  0  0  0  0  0  0
   24.2650   16.7770   13.9750 N   0  0  0  0  0  0  0  0  0  0  0  0
   25.3700   17.6440   14.3440 C   0  0  2  0  0  0  0  0  0  0  0  0
   25.7060   17.5470   15.8270 C   0  0  0  0  0  0  0  0  0  0  0  0
   26.8510   18.4950   16.1530 C   0  0  0  0  0  0  0  0  0  0  0  0
   26.5220   19.9110   15.7430 C   0  0  0  0  0  0  0  0  0  0  0  0
   26.9210   20.8880   16.3690 O   0  0  0  0  0  0  0  0  0  0  0  0
   25.7710   20.0630   14.6050 N   0  0  0  0  0  0  0  0  0  0  0  0
   24.9990   19.0940   14.0100 C   0  0  0  0  0  0  0  0  0  0  0  0
   24.0820   19.3950   13.2480 O   0  0  0  0  0  0  0  0  0  0  0  0
   22.1040   15.2840   12.9650 N   0  0  0  0  0  0  0  0  0  0  0  0
   21.2510   14.3090   12.6160 C   0  0  0  0  0  0  0  0  0  0  0  0
   21.6590   15.6290    7.7640 C   0  0  0  0  0  0  0  0  0  0  0  0
   20.7130   16.3410    7.1880 N   0  0  0  0  0  0  0  0  0  0  0  0
   18.8815   19.2845    8.7111 H   0  0  0  0  0  0  0  0  0  0  0  0
   19.7359   18.9616    7.1643 H   0  0  0  0  0  0  0  0  0  0  0  0
   17.9682   19.2812    7.1643 H   0  0  0  0  0  0  0  0  0  0  0  0
   17.8193   17.1856    8.7100 H   0  0  0  0  0  0  0  0  0  0  0  0
   18.1159   16.9557    6.9319 H   0  0  0  0  0  0  0  0  0  0  0  0
   19.6301   15.9826   10.3240 H   0  0  0  0  0  0  0  0  0  0  0  0
   20.3058   12.3524    9.9470 H   0  0  0  0  0  0  0  0  0  0  0  0
   18.7389   11.4234   11.6533 H   0  0  0  0  0  0  0  0  0  0  0  0
   18.7721   12.3369   13.9729 H   0  0  0  0  0  0  0  0  0  0  0  0
   19.7285   13.8954   15.5946 H   0  0  0  0  0  0  0  0  0  0  0  0
   24.3947   16.1055   13.2048 H   0  0  0  0  0  0  0  0  0  0  0  0
   26.2554   17.3216   13.7765 H   0  0  0  0  0  0  0  0  0  0  0  0
   24.8223   17.8219   16.4215 H   0  0  0  0  0  0  0  0  0  0  0  0
   26.0049   16.5161   16.0676 H   0  0  0  0  0  0  0  0  0  0  0  0
   27.0400   18.4700   17.2363 H   0  0  0  0  0  0  0  0  0  0  0  0
   27.7419   18.1694   15.5959 H   0  0  0  0  0  0  0  0  0  0  0  0
   25.7872   20.9892   14.1548 H   0  0  0  0  0  0  0  0  0  0  0  0
   22.5770   15.2868    7.2638 H   0  0  0  0  0  0  0  0  0  0  0  0
  1  2  1  0
  2  3  1  0
  3  4  2  0
  4  5  1  0
  5  6  1  0
  6  7  2  0
  6  8  2  0
  6  9  1  0
  9 10  2  0
 10 11  1  0
 11 12  2  0
 12 13  1  0
 13 14  2  0
 14 15  1  0
 15 16  2  0
 16 17  1  0
 17 18  2  0
 17 19  1  0
 19 20  1  0
 20 21  1  0
 21 22  1  0
 22 23  1  0
 23 24  2  0
 23 25  1  0
 25 26  1  0
 26 27  2  0
 16 28  1  0
 28 29  2  0
  5 30  1  0
 30 31  2  0
 31  3  1  0
 29  9  1  0
 29 13  1  0
 26 20  1  0
  1 32  1  0
  1 33  1  0
  1 34  1  0
  2 35  1  0
  2 36  1  0
  4 37  1  0
 10 38  1  0
 11 39  1  0
 12 40  1  0
 14 41  1  0
 19 42  1  0
 20 43  1  6
 21 44  1  0
 21 45  1  0
 22 46  1  0
 22 47  1  0
 25 48  1  0
 30 49  1  0
M  END
>  <meeko>  (804) 
{"is_sidechain": [true], "free_energy": -10.49, "intermolecular_energy": 0.0, "internal_energy": -10.49, "cluster_size": 11, "cluster_id": 1, "rank_in_cluster": 1}

>  <_RMSD_MCS_to_ref>  (804) 
0.9371313200993294

$$$$
ligand
     RDKit          3D

 54 58  0  0  0  0  0  0  0  0999 V2000
   18.9090   19.1540    7.5370 C   0  0  0  0  0  0  0  0  0  0  0  0
   18.7730   17.6460    7.6780 C   0  0  0  0  0  0  0  0  0  0  0  0
   20.0710   16.9450    7.4900 C   0  0  0  0  0  0  0  0  0  0  0  0
   21.1360   16.8400    8.3630 C   0  0  0  0  0  0  0  0  0  0  0  0
   22.0700   16.1190    7.6720 N   0  0  0  0  0  0  0  0  0  0  0  0
   23.4840   15.4870    8.3180 S   0  0  0  0  0  6  0  0  0  0  0  0
   23.4330   14.0490    8.1370 O   0  0  0  0  0  0  0  0  0  0  0  0
   24.5380   16.2790    7.7080 O   0  0  0  0  0  0  0  0  0  0  0  0
   23.4820   15.8360   10.0680 C   0  0  0  0  0  0  0  0  0  0  0  0
   24.3910   16.8170   10.5230 C   0  0  0  0  0  0  0  0  0  0  0  0
   24.4780   17.0550   11.8820 C   0  0  0  0  0  0  0  0  0  0  0  0
   23.6880   16.3320   12.7650 C   0  0  0  0  0  0  0  0  0  0  0  0
   22.7930   15.3620   12.3510 C   0  0  0  0  0  0  0  0  0  0  0  0
   22.6760   15.0880   10.9720 C   0  0  0  0  0  0  0  0  0  0  0  0
   21.7020   14.0840   10.5430 C   0  0  0  0  0  0  0  0  0  0  0  0
   21.9860   12.7230   10.4470 C   0  0  0  0  0  0  0  0  0  0  0  0
   21.0560   11.7980   10.1020 N   0  0  0  0  0  0  0  0  0  0  0  0
   19.8230   12.2870    9.8510 C   0  0  0  0  0  0  0  0  0  0  0  0
   19.5310   13.6360    9.9430 C   0  0  0  0  0  0  0  0  0  0  0  0
   20.4600   14.5600   10.2890 N   0  0  0  0  0  0  0  0  0  0  0  0
   23.9840   16.7920   14.1260 C   0  0  0  0  0  0  0  0  0  0  0  0
   23.4220   16.3990   15.1290 O   0  0  0  0  0  0  0  0  0  0  0  0
   24.9990   17.7300   14.0190 N   0  0  0  0  0  0  0  0  0  0  0  0
   25.3640   18.5950   15.1360 C   0  0  1  0  0  0  0  0  0  0  0  0
   26.4030   17.9580   16.0540 C   0  0  0  0  0  0  0  0  0  0  0  0
   26.6670   18.8830   17.2330 C   0  0  0  0  0  0  0  0  0  0  0  0
   27.0900   20.2560   16.7670 C   0  0  0  0  0  0  0  0  0  0  0  0
   27.9190   20.9290   17.3720 O   0  0  0  0  0  0  0  0  0  0  0  0
   26.4840   20.7310   15.6310 N   0  0  0  0  0  0  0  0  0  0  0  0
   25.8880   19.9600   14.6590 C   0  0  0  0  0  0  0  0  0  0  0  0
   25.8130   20.3660   13.5010 O   0  0  0  0  0  0  0  0  0  0  0  0
   25.3230   18.0320   12.6310 C   0  0  0  0  0  0  0  0  0  0  0  0
   21.5320   15.7290    6.4850 C   0  0  0  0  0  0  0  0  0  0  0  0
   20.3340   16.2500    6.3250 N   0  0  0  0  0  0  0  0  0  0  0  0
   18.9504   19.6134    8.5356 H   0  0  0  0  0  0  0  0  0  0  0  0
   19.8320   19.3891    6.9867 H   0  0  0  0  0  0  0  0  0  0  0  0
   18.0430   19.5504    6.9867 H   0  0  0  0  0  0  0  0  0  0  0  0
   18.3892   17.4174    8.6832 H   0  0  0  0  0  0  0  0  0  0  0  0
   18.0831   17.2946    6.8966 H   0  0  0  0  0  0  0  0  0  0  0  0
   21.2150   17.2446    9.3828 H   0  0  0  0  0  0  0  0  0  0  0  0
   25.0152   17.3785    9.8123 H   0  0  0  0  0  0  0  0  0  0  0  0
   22.1831   14.8138   13.0842 H   0  0  0  0  0  0  0  0  0  0  0  0
   23.0103   12.3837   10.6606 H   0  0  0  0  0  0  0  0  0  0  0  0
   19.0231   11.5888    9.5635 H   0  0  0  0  0  0  0  0  0  0  0  0
   18.5059   13.9714    9.7271 H   0  0  0  0  0  0  0  0  0  0  0  0
   24.4352   18.7428   15.7066 H   0  0  0  0  0  0  0  0  0  0  0  0
   26.0256   16.9924   16.4218 H   0  0  0  0  0  0  0  0  0  0  0  0
   27.3373   17.7959   15.4965 H   0  0  0  0  0  0  0  0  0  0  0  0
   25.7477   18.9743   17.8301 H   0  0  0  0  0  0  0  0  0  0  0  0
   27.4808   18.4542   17.8363 H   0  0  0  0  0  0  0  0  0  0  0  0
   26.4744   21.7518   15.4941 H   0  0  0  0  0  0  0  0  0  0  0  0
   25.0538   19.0677   12.3762 H   0  0  0  0  0  0  0  0  0  0  0  0
   26.3959   17.9490   12.4031 H   0  0  0  0  0  0  0  0  0  0  0  0
   22.0296   15.0692    5.7590 H   0  0  0  0  0  0  0  0  0  0  0  0
  1  2  1  0
  2  3  1  0
  3  4  2  0
  4  5  1  0
  5  6  1  0
  6  7  2  0
  6  8  2  0
  6  9  1  0
  9 10  2  0
 10 11  1  0
 11 12  2  0
 12 13  1  0
 13 14  2  0
 14 15  1  0
 15 16  2  0
 16 17  1  0
 17 18  2  0
 18 19  1  0
 19 20  2  0
 12 21  1  0
 21 22  2  0
 21 23  1  0
 23 24  1  0
 24 25  1  0
 25 26  1  0
 26 27  1  0
 27 28  2  0
 27 29  1  0
 29 30  1  0
 30 31  2  0
 23 32  1  0
  5 33  1  0
 33 34  2  0
 34  3  1  0
 14  9  1  0
 20 15  1  0
 30 24  1  0
 32 11  1  0
  1 35  1  0
  1 36  1  0
  1 37  1  0
  2 38  1  0
  2 39  1  0
  4 40  1  0
 10 41  1  0
 13 42  1  0
 16 43  1  0
 18 44  1  0
 19 45  1  0
 24 46  1  1
 25 47  1  0
 25 48  1  0
 26 49  1  0
 26 50  1  0
 29 51  1  0
 32 52  1  0
 32 53  1  0
 33 54  1  0
M  END
>  <meeko>  (805) 
{"is_sidechain": [true], "free_energy": -10.49, "intermolecular_energy": 0.0, "internal_energy": -10.49, "cluster_size": 8, "cluster_id": 1, "rank_in_cluster": 1}

>  <_RMSD_MCS_to_ref>  (805) 
1.0009651731093239

$$$$
ligand
     RDKit          3D

 47 50  0  0  0  0  0  0  0  0999 V2000
   18.9090   19.1540    7.5370 C   0  0  0  0  0  0  0  0  0  0  0  0
   18.7730   17.6460    7.6780 C   0  0  0  0  0  0  0  0  0  0  0  0
   20.0140   16.9300    7.2770 C   0  0  0  0  0  0  0  0  0  0  0  0
   21.1650   16.7100    8.0090 C   0  0  0  0  0  0  0  0  0  0  0  0
   21.9790   16.0250    7.1540 N   0  0  0  0  0  0  0  0  0  0  0  0
   23.4620   15.3240    7.5440 S   0  0  0  0  0  6  0  0  0  0  0  0
   24.4410   16.1070    6.8090 O   0  0  0  0  0  0  0  0  0  0  0  0
   23.2830   13.9090    7.2600 O   0  0  0  0  0  0  0  0  0  0  0  0
   23.7180   15.5420    9.2750 C   0  0  0  0  0  0  0  0  0  0  0  0
   22.7650   15.0250   10.0710 C   0  0  0  0  0  0  0  0  0  0  0  0
   22.8930   15.1630   11.4390 N   0  0  0  0  0  0  0  0  0  0  0  0
   22.0670   14.7270   12.4120 N   0  0  0  0  0  0  0  0  0  0  0  0
   22.6530   15.1190   13.5460 C   0  0  0  0  0  0  0  0  0  0  0  0
   23.8610   15.8210   13.3370 C   0  0  0  0  0  0  0  0  0  0  0  0
   24.7950   16.4060   14.2800 C   0  0  0  0  0  0  0  0  0  0  0  0
   25.3780   15.7310   15.1220 O   0  0  0  0  0  0  0  0  0  0  0  0
   24.9930   17.7600   14.1620 N   0  0  0  0  0  0  0  0  0  0  0  0
   26.0080   18.4510   14.9460 C   0  0  2  0  0  0  0  0  0  0  0  0
   25.8670   18.1860   16.4410 C   0  0  0  0  0  0  0  0  0  0  0  0
   26.9250   18.9760   17.1970 C   0  0  0  0  0  0  0  0  0  0  0  0
   26.8450   20.4500   16.8750 C   0  0  0  0  0  0  0  0  0  0  0  0
   27.0960   21.3200   17.7020 O   0  0  0  0  0  0  0  0  0  0  0  0
   26.5010   20.7790   15.5880 N   0  0  0  0  0  0  0  0  0  0  0  0
   25.8680   19.9550   14.6920 C   0  0  0  0  0  0  0  0  0  0  0  0
   25.2310   20.4070   13.7410 O   0  0  0  0  0  0  0  0  0  0  0  0
   23.9810   15.8250   11.9600 C   0  0  0  0  0  0  0  0  0  0  0  0
   24.9560   16.3510   11.0470 C   0  0  0  0  0  0  0  0  0  0  0  0
   24.8350   16.2180    9.7550 N   0  0  0  0  0  0  0  0  0  0  0  0
   21.3130   15.7960    5.9920 C   0  0  0  0  0  0  0  0  0  0  0  0
   20.1210   16.3550    6.0250 N   0  0  0  0  0  0  0  0  0  0  0  0
   18.9504   19.6134    8.5356 H   0  0  0  0  0  0  0  0  0  0  0  0
   19.8320   19.3891    6.9867 H   0  0  0  0  0  0  0  0  0  0  0  0
   18.0430   19.5504    6.9867 H   0  0  0  0  0  0  0  0  0  0  0  0
   18.5498   17.4071    8.7283 H   0  0  0  0  0  0  0  0  0  0  0  0
   17.9624   17.3162    7.0115 H   0  0  0  0  0  0  0  0  0  0  0  0
   21.3768   17.0167    9.0439 H   0  0  0  0  0  0  0  0  0  0  0  0
   21.8989   14.5015    9.6399 H   0  0  0  0  0  0  0  0  0  0  0  0
   22.2366   14.9156   14.5436 H   0  0  0  0  0  0  0  0  0  0  0  0
   24.4110   18.2987   13.5047 H   0  0  0  0  0  0  0  0  0  0  0  0
   26.9949   18.0769   14.6362 H   0  0  0  0  0  0  0  0  0  0  0  0
   24.8669   18.4981   16.7762 H   0  0  0  0  0  0  0  0  0  0  0  0
   26.0005   17.1120   16.6377 H   0  0  0  0  0  0  0  0  0  0  0  0
   26.7722   18.8366   18.2774 H   0  0  0  0  0  0  0  0  0  0  0  0
   27.9160   18.6078   16.8930 H   0  0  0  0  0  0  0  0  0  0  0  0
   26.7389   21.7281   15.2663 H   0  0  0  0  0  0  0  0  0  0  0  0
   25.8314   16.8821   11.4490 H   0  0  0  0  0  0  0  0  0  0  0  0
   21.7135   15.2236    5.1423 H   0  0  0  0  0  0  0  0  0  0  0  0
  1  2  1  0
  2  3  1  0
  3  4  2  0
  4  5  1  0
  5  6  1  0
  6  7  2  0
  6  8  2  0
  6  9  1  0
  9 10  2  0
 10 11  1  0
 11 12  1  0
 12 13  2  0
 13 14  1  0
 14 15  1  0
 15 16  2  0
 15 17  1  0
 17 18  1  0
 18 19  1  0
 19 20  1  0
 20 21  1  0
 21 22  2  0
 21 23  1  0
 23 24  1  0
 24 25  2  0
 14 26  2  0
 26 27  1  0
 27 28  2  0
  5 29  1  0
 29 30  2  0
 30  3  1  0
 28  9  1  0
 26 11  1  0
 24 18  1  0
  1 31  1  0
  1 32  1  0
  1 33  1  0
  2 34  1  0
  2 35  1  0
  4 36  1  0
 10 37  1  0
 13 38  1  0
 17 39  1  0
 18 40  1  6
 19 41  1  0
 19 42  1  0
 20 43  1  0
 20 44  1  0
 23 45  1  0
 27 46  1  0
 29 47  1  0
M  END
>  <meeko>  (806) 
{"is_sidechain": [true], "free_energy": -10.49, "intermolecular_energy": 0.0, "internal_energy": -10.49, "cluster_size": 18, "cluster_id": 1, "rank_in_cluster": 1}

>  <_RMSD_MCS_to_ref>  (806) 
0.8416805279386657

$$$$
ligand
     RDKit          3D

 42 44  0  0  0  0  0  0  0  0999 V2000
   18.9090   19.1540    7.5370 C   0  0  0  0  0  0  0  0  0  0  0  0
   18.7730   17.6460    7.6780 C   0  0  0  0  0  0  0  0  0  0  0  0
   20.0940   16.9620    7.6920 C   0  0  0  0  0  0  0  0  0  0  0  0
   20.8380   16.5280    8.7720 C   0  0  0  0  0  0  0  0  0  0  0  0
   21.9390   15.9510    8.2090 N   0  0  0  0  0  0  0  0  0  0  0  0
   23.3100   15.4540    9.0350 S   0  0  0  0  0  6  0  0  0  0  0  0
   24.3290   16.4530    8.7990 O   0  0  0  0  0  0  0  0  0  0  0  0
   23.4880   14.0470    8.7360 O   0  0  0  0  0  0  0  0  0  0  0  0
   22.9960   15.5030   10.7560 C   0  0  0  0  0  0  0  0  0  0  0  0
   22.0160   14.9730   11.5690 C   0  0  0  0  0  0  0  0  0  0  0  0
   22.2320   15.2960   12.8860 N   0  0  0  0  0  0  0  0  0  0  0  0
   23.3290   16.0360   12.8920 C   0  0  0  0  0  0  0  0  0  0  0  0
   23.9370   16.6070   14.0760 C   0  0  0  0  0  0  0  0  0  0  0  0
   24.0980   15.9790   15.1180 O   0  0  0  0  0  0  0  0  0  0  0  0
   24.3060   17.9210   13.9290 N   0  0  0  0  0  0  0  0  0  0  0  0
   24.8020   18.7250   15.0300 C   0  0  1  0  0  0  0  0  0  0  0  0
   25.8570   17.9850   15.8450 C   0  0  0  0  0  0  0  0  0  0  0  0
   26.3530   18.8820   16.9700 C   0  0  0  0  0  0  0  0  0  0  0  0
   26.8760   20.1950   16.4350 C   0  0  0  0  0  0  0  0  0  0  0  0
   27.7990   20.8010   16.9690 O   0  0  0  0  0  0  0  0  0  0  0  0
   26.2400   20.7050   15.3320 N   0  0  0  0  0  0  0  0  0  0  0  0
   25.4100   20.0200   14.4790 C   0  0  0  0  0  0  0  0  0  0  0  0
   25.1660   20.4510   13.3540 O   0  0  0  0  0  0  0  0  0  0  0  0
   23.8180   16.1860   11.6210 N   0  0  0  0  0  0  0  0  0  0  0  0
   21.8810   16.0970    6.8610 C   0  0  0  0  0  0  0  0  0  0  0  0
   20.7600   16.6950    6.5120 N   0  0  0  0  0  0  0  0  0  0  0  0
   18.9504   19.6134    8.5356 H   0  0  0  0  0  0  0  0  0  0  0  0
   19.8320   19.3891    6.9867 H   0  0  0  0  0  0  0  0  0  0  0  0
   18.0430   19.5504    6.9867 H   0  0  0  0  0  0  0  0  0  0  0  0
   18.2490   17.4240    8.6193 H   0  0  0  0  0  0  0  0  0  0  0  0
   18.2095   17.2748    6.8093 H   0  0  0  0  0  0  0  0  0  0  0  0
   20.5979   16.6253    9.8411 H   0  0  0  0  0  0  0  0  0  0  0  0
   21.1701   14.3692   11.2087 H   0  0  0  0  0  0  0  0  0  0  0  0
   24.2274   18.3543   12.9979 H   0  0  0  0  0  0  0  0  0  0  0  0
   23.9532   18.9465   15.6937 H   0  0  0  0  0  0  0  0  0  0  0  0
   25.4163   17.0719   16.2717 H   0  0  0  0  0  0  0  0  0  0  0  0
   26.7008   17.7157   15.1927 H   0  0  0  0  0  0  0  0  0  0  0  0
   25.5214   19.0826   17.6615 H   0  0  0  0  0  0  0  0  0  0  0  0
   27.1746   18.3664   17.4887 H   0  0  0  0  0  0  0  0  0  0  0  0
   26.4009   21.7006   15.1227 H   0  0  0  0  0  0  0  0  0  0  0  0
   24.6587   16.7198   11.3581 H   0  0  0  0  0  0  0  0  0  0  0  0
   22.6596   15.7634    6.1592 H   0  0  0  0  0  0  0  0  0  0  0  0
  1  2  1  0
  2  3  1  0
  3  4  2  0
  4  5  1  0
  5  6  1  0
  6  7  2  0
  6  8  2  0
  6  9  1  0
  9 10  2  0
 10 11  1  0
 11 12  2  0
 12 13  1  0
 13 14  2  0
 13 15  1  0
 15 16  1  0
 16 17  1  0
 17 18  1  0
 18 19  1  0
 19 20  2  0
 19 21  1  0
 21 22  1  0
 22 23  2  0
 12 24  1  0
  5 25  1  0
 25 26  2  0
 26  3  1  0
 24  9  1  0
 22 16  1  0
  1 27  1  0
  1 28  1  0
  1 29  1  0
  2 30  1  0
  2 31  1  0
  4 32  1  0
 10 33  1  0
 15 34  1  0
 16 35  1  1
 17 36  1  0
 17 37  1  0
 18 38  1  0
 18 39  1  0
 21 40  1  0
 24 41  1  0
 25 42  1  0
M  END
>  <meeko>  (807) 
{"is_sidechain": [true], "free_energy": -10.49, "intermolecular_energy": 0.0, "internal_energy": -10.49, "cluster_size": 20, "cluster_id": 1, "rank_in_cluster": 1}

>  <_RMSD_MCS_to_ref>  (807) 
0.4617332082009649

$$$$
ligand
     RDKit          3D

 48 51  0  0  0  0  0  0  0  0999 V2000
   18.9090   19.1540    7.5370 C   0  0  0  0  0  0  0  0  0  0  0  0
   18.7730   17.6460    7.6780 C   0  0  0  0  0  0  0  0  0  0  0  0
   20.0940   16.9610    7.6770 C   0  0  0  0  0  0  0  0  0  0  0  0
   21.0050   16.8300    8.7060 C   0  0  0  0  0  0  0  0  0  0  0  0
   22.0370   16.1270    8.1540 N   0  0  0  0  0  0  0  0  0  0  0  0
   23.3410   15.4810    8.9940 S   0  0  0  0  0  6  0  0  0  0  0  0
   23.6310   14.2010    8.3790 O   0  0  0  0  0  0  0  0  0  0  0  0
   24.3270   16.5430    9.0460 O   0  0  0  0  0  0  0  0  0  0  0  0
   22.6920   15.2230   10.6310 C   0  0  0  0  0  0  0  0  0  0  0  0
   23.3840   15.8240   11.6970 C   0  0  0  0  0  0  0  0  0  0  0  0
   22.9310   15.6840   13.0060 C   0  0  0  0  0  0  0  0  0  0  0  0
   23.6890   16.3680   14.0900 C   0  0  0  0  0  0  0  0  0  0  0  0
   24.0060   15.7500   15.0990 O   0  0  0  0  0  0  0  0  0  0  0  0
   23.9710   17.7010   13.9020 N   0  0  0  0  0  0  0  0  0  0  0  0
   24.5650   18.5000   14.9670 C   0  0  1  0  0  0  0  0  0  0  0  0
   25.7120   17.7750   15.6630 C   0  0  0  0  0  0  0  0  0  0  0  0
   26.3110   18.6790   16.7290 C   0  0  0  0  0  0  0  0  0  0  0  0
   26.7510   20.0010   16.1430 C   0  0  0  0  0  0  0  0  0  0  0  0
   27.7300   20.6120   16.5590 O   0  0  0  0  0  0  0  0  0  0  0  0
   25.9810   20.5110   15.1290 N   0  0  0  0  0  0  0  0  0  0  0  0
   25.0930   19.8020   14.3590 C   0  0  0  0  0  0  0  0  0  0  0  0
   24.7430   20.2070   13.2510 O   0  0  0  0  0  0  0  0  0  0  0  0
   21.7710   14.9530   13.2730 C   0  0  0  0  0  0  0  0  0  0  0  0
   21.0870   14.3420   12.2000 C   0  0  0  0  0  0  0  0  0  0  0  0
   19.6450   13.4030   12.3320 S   0  0  0  0  0  0  0  0  0  0  0  0
   19.5950   13.1120   10.6600 C   0  0  0  0  0  0  0  0  0  0  0  0
   20.6400   13.7170   10.0010 C   0  0  0  0  0  0  0  0  0  0  0  0
   21.5230   14.4500   10.8730 C   0  0  0  0  0  0  0  0  0  0  0  0
   21.7310   15.8240    6.8670 C   0  0  0  0  0  0  0  0  0  0  0  0
   20.5560   16.3250    6.5410 N   0  0  0  0  0  0  0  0  0  0  0  0
   18.9504   19.6134    8.5356 H   0  0  0  0  0  0  0  0  0  0  0  0
   19.8320   19.3891    6.9867 H   0  0  0  0  0  0  0  0  0  0  0  0
   18.0430   19.5504    6.9867 H   0  0  0  0  0  0  0  0  0  0  0  0
   18.2591   17.4235    8.6247 H   0  0  0  0  0  0  0  0  0  0  0  0
   18.1996   17.2760    6.8152 H   0  0  0  0  0  0  0  0  0  0  0  0
   20.9190   17.2063    9.7360 H   0  0  0  0  0  0  0  0  0  0  0  0
   24.2923   16.4106   11.4949 H   0  0  0  0  0  0  0  0  0  0  0  0
   23.7594   18.1413   12.9952 H   0  0  0  0  0  0  0  0  0  0  0  0
   23.7892   18.6946   15.7222 H   0  0  0  0  0  0  0  0  0  0  0  0
   25.3331   16.8554   16.1328 H   0  0  0  0  0  0  0  0  0  0  0  0
   26.4851   17.5177   14.9240 H   0  0  0  0  0  0  0  0  0  0  0  0
   25.5558   18.8653   17.5068 H   0  0  0  0  0  0  0  0  0  0  0  0
   27.1923   18.1772   17.1551 H   0  0  0  0  0  0  0  0  0  0  0  0
   26.0778   21.5164   14.9272 H   0  0  0  0  0  0  0  0  0  0  0  0
   21.3966   14.8551   14.3027 H   0  0  0  0  0  0  0  0  0  0  0  0
   18.8192   12.5111   10.1628 H   0  0  0  0  0  0  0  0  0  0  0  0
   20.7875   13.6480    8.9131 H   0  0  0  0  0  0  0  0  0  0  0  0
   22.3737   15.2417    6.1903 H   0  0  0  0  0  0  0  0  0  0  0  0
  1  2  1  0
  2  3  1  0
  3  4  2  0
  4  5  1  0
  5  6  1  0
  6  7  2  0
  6  8  2  0
  6  9  1  0
  9 10  2  0
 10 11  1  0
 11 12  1  0
 12 13  2  0
 12 14  1  0
 14 15  1  0
 15 16  1  0
 16 17  1  0
 17 18  1  0
 18 19  2  0
 18 20  1  0
 20 21  1  0
 21 22  2  0
 11 23  2  0
 23 24  1  0
 24 25  1  0
 25 26  1  0
 26 27  2  0
 27 28  1  0
  5 29  1  0
 29 30  2  0
 30  3  1  0
 28  9  1  0
 21 15  1  0
 28 24  2  0
  1 31  1  0
  1 32  1  0
  1 33  1  0
  2 34  1  0
  2 35  1  0
  4 36  1  0
 10 37  1  0
 14 38  1  0
 15 39  1  1
 16 40  1  0
 16 41  1  0
 17 42  1  0
 17 43  1  0
 20 44  1  0
 23 45  1  0
 26 46  1  0
 27 47  1  0
 29 48  1  0
M  END
>  <meeko>  (808) 
{"is_sidechain": [true], "free_energy": -10.49, "intermolecular_energy": 0.0, "internal_energy": -10.49, "cluster_size": 19, "cluster_id": 1, "rank_in_cluster": 1}

>  <_RMSD_MCS_to_ref>  (808) 
0.4164788910217019

$$$$
ligand
     RDKit          3D

 51 54  0  0  0  0  0  0  0  0999 V2000
   18.9090   19.1540    7.5370 C   0  0  0  0  0  0  0  0  0  0  0  0
   18.7730   17.6460    7.6780 C   0  0  0  0  0  0  0  0  0  0  0  0
   20.0830   16.9500    7.5580 C   0  0  0  0  0  0  0  0  0  0  0  0
   21.0930   16.8360    8.4920 C   0  0  0  0  0  0  0  0  0  0  0  0
   22.0580   16.1100    7.8540 N   0  0  0  0  0  0  0  0  0  0  0  0
   23.4310   15.4510    8.5670 S   0  0  0  0  0  6  0  0  0  0  0  0
   24.4700   16.4530    8.4470 O   0  0  0  0  0  0  0  0  0  0  0  0
   23.5610   14.1220    8.0020 O   0  0  0  0  0  0  0  0  0  0  0  0
   22.9900   15.3080   10.2770 C   0  0  0  0  0  0  0  0  0  0  0  0
   21.7850   14.7080   10.6350 C   0  0  0  0  0  0  0  0  0  0  0  0
   21.4550   14.5970   11.9840 C   0  0  0  0  0  0  0  0  0  0  0  0
   22.3080   15.1000   12.9810 C   0  0  0  0  0  0  0  0  0  0  0  0
   23.5370   15.6800   12.6180 C   0  0  0  0  0  0  0  0  0  0  0  0
   24.5320   16.2370   13.5870 C   0  0  0  0  0  0  0  0  0  0  0  0
   25.1690   15.4800   14.3140 O   0  0  0  0  0  0  0  0  0  0  0  0
   24.6970   17.5990   13.6250 N   0  0  0  0  0  0  0  0  0  0  0  0
   25.7430   18.2330   14.4100 C   0  0  2  0  0  0  0  0  0  0  0  0
   25.6040   17.9300   15.8990 C   0  0  0  0  0  0  0  0  0  0  0  0
   26.7080   18.6410   16.6660 C   0  0  0  0  0  0  0  0  0  0  0  0
   26.6980   20.1270   16.3900 C   0  0  0  0  0  0  0  0  0  0  0  0
   27.0120   20.9570   17.2390 O   0  0  0  0  0  0  0  0  0  0  0  0
   26.3480   20.5140   15.1220 N   0  0  0  0  0  0  0  0  0  0  0  0
   25.6730   19.7500   14.2010 C   0  0  0  0  0  0  0  0  0  0  0  0
   25.0710   20.2740   13.2650 O   0  0  0  0  0  0  0  0  0  0  0  0
   23.8710   15.7770   11.2550 C   0  0  0  0  0  0  0  0  0  0  0  0
   21.9700   15.0320   14.3120 O   0  0  0  0  0  0  0  0  0  0  0  0
   20.5760   14.7740   14.5130 C   0  0  0  0  0  0  0  0  0  0  0  0
   20.1260   13.6280   13.6280 C   0  0  0  0  0  0  0  0  0  0  0  0
   20.2530   13.9880   12.2500 O   0  0  0  0  0  0  0  0  0  0  0  0
   21.6170   15.7760    6.6140 C   0  0  0  0  0  0  0  0  0  0  0  0
   20.4210   16.2810    6.3980 N   0  0  0  0  0  0  0  0  0  0  0  0
   18.9504   19.6134    8.5356 H   0  0  0  0  0  0  0  0  0  0  0  0
   19.8320   19.3891    6.9867 H   0  0  0  0  0  0  0  0  0  0  0  0
   18.0430   19.5504    6.9867 H   0  0  0  0  0  0  0  0  0  0  0  0
   18.3407   17.4199    8.6639 H   0  0  0  0  0  0  0  0  0  0  0  0
   18.1244   17.2878    6.8649 H   0  0  0  0  0  0  0  0  0  0  0  0
   21.1155   17.2379    9.5157 H   0  0  0  0  0  0  0  0  0  0  0  0
   21.1020   14.3263    9.8618 H   0  0  0  0  0  0  0  0  0  0  0  0
   24.0571   18.1926   13.0781 H   0  0  0  0  0  0  0  0  0  0  0  0
   26.7101   17.8324   14.0720 H   0  0  0  0  0  0  0  0  0  0  0  0
   24.6246   18.2823   16.2550 H   0  0  0  0  0  0  0  0  0  0  0  0
   25.6846   16.8451   16.0616 H   0  0  0  0  0  0  0  0  0  0  0  0
   26.5599   18.4755   17.7433 H   0  0  0  0  0  0  0  0  0  0  0  0
   27.6761   18.2334   16.3395 H   0  0  0  0  0  0  0  0  0  0  0  0
   26.6160   21.4657   14.8332 H   0  0  0  0  0  0  0  0  0  0  0  0
   24.8308   16.2244   10.9574 H   0  0  0  0  0  0  0  0  0  0  0  0
   20.4030   14.5098   15.5667 H   0  0  0  0  0  0  0  0  0  0  0  0
   20.0017   15.6759   14.2545 H   0  0  0  0  0  0  0  0  0  0  0  0
   20.7498   12.7452   13.8317 H   0  0  0  0  0  0  0  0  0  0  0  0
   19.0715   13.4011   13.8436 H   0  0  0  0  0  0  0  0  0  0  0  0
   22.1807   15.1682    5.8909 H   0  0  0  0  0  0  0  0  0  0  0  0
  1  2  1  0
  2  3  1  0
  3  4  2  0
  4  5  1  0
  5  6  1  0
  6  7  2  0
  6  8  2  0
  6  9  1  0
  9 10  2  0
 10 11  1  0
 11 12  2  0
 12 13  1  0
 13 14  1  0
 14 15  2  0
 14 16  1  0
 16 17  1  0
 17 18  1  0
 18 19  1  0
 19 20  1  0
 20 21  2  0
 20 22  1  0
 22 23  1  0
 23 24  2  0
 13 25  2  0
 12 26  1  0
 26 27  1  0
 27 28  1  0
 28 29  1  0
  5 30  1  0
 30 31  2  0
 31  3  1  0
 25  9  1  0
 29 11  1  0
 23 17  1  0
  1 32  1  0
  1 33  1  0
  1 34  1  0
  2 35  1  0
  2 36  1  0
  4 37  1  0
 10 38  1  0
 16 39  1  0
 17 40  1  6
 18 41  1  0
 18 42  1  0
 19 43  1  0
 19 44  1  0
 22 45  1  0
 25 46  1  0
 27 47  1  0
 27 48  1  0
 28 49  1  0
 28 50  1  0
 30 51  1  0
M  END
>  <meeko>  (809) 
{"is_sidechain": [true], "free_energy": -10.49, "intermolecular_energy": 0.0, "internal_energy": -10.49, "cluster_size": 20, "cluster_id": 1, "rank_in_cluster": 1}

>  <_RMSD_MCS_to_ref>  (809) 
0.5079686123286659

$$$$
ligand
     RDKit          3D

 51 54  0  0  0  0  0  0  0  0999 V2000
   18.9090   19.1540    7.5370 C   0  0  0  0  0  0  0  0  0  0  0  0
   18.7730   17.6460    7.6780 C   0  0  0  0  0  0  0  0  0  0  0  0
   20.0930   16.9600    7.6710 C   0  0  0  0  0  0  0  0  0  0  0  0
   21.0100   16.8290    8.6950 C   0  0  0  0  0  0  0  0  0  0  0  0
   22.0370   16.1240    8.1390 N   0  0  0  0  0  0  0  0  0  0  0  0
   23.3290   15.4440    8.9720 S   0  0  0  0  0  6  0  0  0  0  0  0
   24.3570   16.4640    9.0280 O   0  0  0  0  0  0  0  0  0  0  0  0
   23.5550   14.1510    8.3530 O   0  0  0  0  0  0  0  0  0  0  0  0
   22.6860   15.2000   10.6060 C   0  0  0  0  0  0  0  0  0  0  0  0
   23.3680   15.8220   11.6640 C   0  0  0  0  0  0  0  0  0  0  0  0
   22.9060   15.6870   12.9770 C   0  0  0  0  0  0  0  0  0  0  0  0
   23.6500   16.3840   14.0600 C   0  0  0  0  0  0  0  0  0  0  0  0
   23.9460   15.7790   15.0830 O   0  0  0  0  0  0  0  0  0  0  0  0
   23.9460   17.7130   13.8570 N   0  0  0  0  0  0  0  0  0  0  0  0
   24.5340   18.5210   14.9170 C   0  0  1  0  0  0  0  0  0  0  0  0
   25.6770   17.8040   15.6260 C   0  0  0  0  0  0  0  0  0  0  0  0
   26.2710   18.7180   16.6860 C   0  0  0  0  0  0  0  0  0  0  0  0
   26.7160   20.0330   16.0900 C   0  0  0  0  0  0  0  0  0  0  0  0
   27.6930   20.6480   16.5060 O   0  0  0  0  0  0  0  0  0  0  0  0
   25.9510   20.5330   15.0660 N   0  0  0  0  0  0  0  0  0  0  0  0
   25.0670   19.8170   14.2990 C   0  0  0  0  0  0  0  0  0  0  0  0
   24.7220   20.2120   13.1850 O   0  0  0  0  0  0  0  0  0  0  0  0
   21.7520   14.9410   13.2250 C   0  0  0  0  0  0  0  0  0  0  0  0
   21.0770   14.3210   12.1690 C   0  0  0  0  0  0  0  0  0  0  0  0
   21.5420   14.4310   10.8530 C   0  0  0  0  0  0  0  0  0  0  0  0
   20.8600   13.7470    9.8400 N   0  0  0  0  0  0  0  0  0  0  0  0
   19.7030   13.0550   10.0680 C   0  0  0  0  0  0  0  0  0  0  0  0
   19.1440   12.4260    9.1740 O   0  0  0  0  0  0  0  0  0  0  0  0
   19.1320   13.1890   11.4740 C   0  0  0  0  0  0  0  0  0  0  0  0
   19.9860   13.5820   12.5370 O   0  0  0  0  0  0  0  0  0  0  0  0
   21.7220   15.8150    6.8540 C   0  0  0  0  0  0  0  0  0  0  0  0
   20.5470   16.3170    6.5350 N   0  0  0  0  0  0  0  0  0  0  0  0
   18.9504   19.6134    8.5356 H   0  0  0  0  0  0  0  0  0  0  0  0
   19.8320   19.3891    6.9867 H   0  0  0  0  0  0  0  0  0  0  0  0
   18.0430   19.5504    6.9867 H   0  0  0  0  0  0  0  0  0  0  0  0
   18.2631   17.4234    8.6269 H   0  0  0  0  0  0  0  0  0  0  0  0
   18.1959   17.2769    6.8174 H   0  0  0  0  0  0  0  0  0  0  0  0
   20.9305   17.2071    9.7249 H   0  0  0  0  0  0  0  0  0  0  0  0
   24.2696   16.4180   11.4592 H   0  0  0  0  0  0  0  0  0  0  0  0
   23.7488   18.1426   12.9419 H   0  0  0  0  0  0  0  0  0  0  0  0
   23.7535   18.7220   15.6656 H   0  0  0  0  0  0  0  0  0  0  0  0
   25.2957   16.8891   16.1030 H   0  0  0  0  0  0  0  0  0  0  0  0
   26.4539   17.5401   14.8933 H   0  0  0  0  0  0  0  0  0  0  0  0
   25.5115   18.9130   17.4575 H   0  0  0  0  0  0  0  0  0  0  0  0
   27.1493   18.2194   17.1218 H   0  0  0  0  0  0  0  0  0  0  0  0
   26.0494   21.5362   14.8543 H   0  0  0  0  0  0  0  0  0  0  0  0
   21.3733   14.8409   14.2529 H   0  0  0  0  0  0  0  0  0  0  0  0
   21.2450   13.7657    8.8848 H   0  0  0  0  0  0  0  0  0  0  0  0
   18.3223   13.9318   11.4218 H   0  0  0  0  0  0  0  0  0  0  0  0
   18.8456   12.1601   11.7374 H   0  0  0  0  0  0  0  0  0  0  0  0
   22.3587   15.2282    6.1756 H   0  0  0  0  0  0  0  0  0  0  0  0
  1  2  1  0
  2  3  1  0
  3  4  2  0
  4  5  1  0
  5  6  1  0
  6  7  2  0
  6  8  2  0
  6  9  1  0
  9 10  2  0
 10 11  1  0
 11 12  1  0
 12 13  2  0
 12 14  1  0
 14 15  1  0
 15 16  1  0
 16 17  1  0
 17 18  1  0
 18 19  2  0
 18 20  1  0
 20 21  1  0
 21 22  2  0
 11 23  2  0
 23 24  1  0
 24 25  2  0
 25 26  1  0
 26 27  1  0
 27 28  2  0
 27 29  1  0
 29 30  1  0
  5 31  1  0
 31 32  2  0
 32  3  1  0
 25  9  1  0
 21 15  1  0
 30 24  1  0
  1 33  1  0
  1 34  1  0
  1 35  1  0
  2 36  1  0
  2 37  1  0
  4 38  1  0
 10 39  1  0
 14 40  1  0
 15 41  1  1
 16 42  1  0
 16 43  1  0
 17 44  1  0
 17 45  1  0
 20 46  1  0
 23 47  1  0
 26 48  1  0
 29 49  1  0
 29 50  1  0
 31 51  1  0
M  END
>  <meeko>  (810) 
{"is_sidechain": [true], "free_energy": -10.49, "intermolecular_energy": 0.0, "internal_energy": -10.49, "cluster_size": 20, "cluster_id": 1, "rank_in_cluster": 1}

>  <_RMSD_MCS_to_ref>  (810) 
0.43966413949235816

$$$$
ligand
     RDKit          3D

 55 59  0  0  0  0  0  0  0  0999 V2000
   18.8250   19.0180    7.5350 C   0  0  0  0  0  0  0  0  0  0  0  0
   18.5200   17.5410    7.7330 C   0  0  0  0  0  0  0  0  0  0  0  0
   19.7550   16.7420    7.9580 C   0  0  0  0  0  0  0  0  0  0  0  0
   20.5440   16.6590    9.0880 C   0  0  0  0  0  0  0  0  0  0  0  0
   21.5460   15.8020    8.7330 N   0  0  0  0  0  0  0  0  0  0  0  0
   22.8220   15.3410    9.7170 S   0  0  0  0  0  6  0  0  0  0  0  0
   23.8370   16.3710    9.6320 O   0  0  0  0  0  0  0  0  0  0  0  0
   23.1020   13.9770    9.3090 O   0  0  0  0  0  0  0  0  0  0  0  0
   22.1700   15.3190   11.3730 C   0  0  0  0  0  0  0  0  0  0  0  0
   21.0490   14.5260   11.7300 C   0  0  0  0  0  0  0  0  0  0  0  0
   20.2870   13.6880   10.7930 C   0  0  0  0  0  0  0  0  0  0  0  0
   20.7930   12.4590   10.3530 C   0  0  0  0  0  0  0  0  0  0  0  0
   20.0310   11.6980    9.4810 C   0  0  0  0  0  0  0  0  0  0  0  0
   18.8100   12.0630    9.0420 N   0  0  0  0  0  0  0  0  0  0  0  0
   18.3260   13.2390    9.4910 C   0  0  0  0  0  0  0  0  0  0  0  0
   19.0150   14.0700   10.3580 C   0  0  0  0  0  0  0  0  0  0  0  0
   20.6000   14.5410   13.0790 C   0  0  0  0  0  0  0  0  0  0  0  0
   21.2220   15.3180   14.0560 C   0  0  0  0  0  0  0  0  0  0  0  0
   22.2930   16.0880   13.6610 C   0  0  0  0  0  0  0  0  0  0  0  0
   22.7790   16.1070   12.3530 C   0  0  0  0  0  0  0  0  0  0  0  0
   23.9580   17.0310   12.2860 C   0  0  0  0  0  0  0  0  0  0  0  0
   24.0250   17.5790   13.6340 N   0  0  0  0  0  0  0  0  0  0  0  0
   25.1900   18.2950   14.1450 C   0  0  2  0  0  0  0  0  0  0  0  0
   25.5390   17.9020   15.5770 C   0  0  0  0  0  0  0  0  0  0  0  0
   26.8050   18.6280   16.0050 C   0  0  0  0  0  0  0  0  0  0  0  0
   26.6600   20.1240   15.8490 C   0  0  0  0  0  0  0  0  0  0  0  0
   27.1860   20.9200   16.6200 O   0  0  0  0  0  0  0  0  0  0  0  0
   25.9210   20.5610   14.7780 N   0  0  0  0  0  0  0  0  0  0  0  0
   24.9960   19.8200   14.0770 C   0  0  0  0  0  0  0  0  0  0  0  0
   24.0920   20.3770   13.4580 O   0  0  0  0  0  0  0  0  0  0  0  0
   23.1120   16.9820   14.4850 C   0  0  0  0  0  0  0  0  0  0  0  0
   22.9880   17.1340   15.6840 O   0  0  0  0  0  0  0  0  0  0  0  0
   21.3380   15.3690    7.4640 C   0  0  0  0  0  0  0  0  0  0  0  0
   20.2650   15.9410    6.9560 N   0  0  0  0  0  0  0  0  0  0  0  0
   18.9258   19.5062    8.5155 H   0  0  0  0  0  0  0  0  0  0  0  0
   19.7645   19.1263    6.9731 H   0  0  0  0  0  0  0  0  0  0  0  0
   18.0053   19.4896    6.9731 H   0  0  0  0  0  0  0  0  0  0  0  0
   17.8603   17.4285    8.6060 H   0  0  0  0  0  0  0  0  0  0  0  0
   18.0363   17.1684    6.8181 H   0  0  0  0  0  0  0  0  0  0  0  0
   20.3987   17.1668   10.0529 H   0  0  0  0  0  0  0  0  0  0  0  0
   21.7771   12.1041   10.6931 H   0  0  0  0  0  0  0  0  0  0  0  0
   20.4458   10.7426    9.1273 H   0  0  0  0  0  0  0  0  0  0  0  0
   17.3293   13.5553    9.1497 H   0  0  0  0  0  0  0  0  0  0  0  0
   18.5684   15.0157   10.6989 H   0  0  0  0  0  0  0  0  0  0  0  0
   19.7360   13.9211   13.3606 H   0  0  0  0  0  0  0  0  0  0  0  0
   20.8716   15.3158   15.0987 H   0  0  0  0  0  0  0  0  0  0  0  0
   24.8774   16.4807   12.0373 H   0  0  0  0  0  0  0  0  0  0  0  0
   23.8583   17.8037   11.5095 H   0  0  0  0  0  0  0  0  0  0  0  0
   26.0250   18.0033   13.4911 H   0  0  0  0  0  0  0  0  0  0  0  0
   24.7118   18.1809   16.2462 H   0  0  0  0  0  0  0  0  0  0  0  0
   25.7021   16.8155   15.6308 H   0  0  0  0  0  0  0  0  0  0  0  0
   27.0115   18.3962   17.0603 H   0  0  0  0  0  0  0  0  0  0  0  0
   27.6322   18.2908   15.3631 H   0  0  0  0  0  0  0  0  0  0  0  0
   26.0723   21.5323   14.4705 H   0  0  0  0  0  0  0  0  0  0  0  0
   21.9741   14.6441    6.9349 H   0  0  0  0  0  0  0  0  0  0  0  0
  1  2  1  0
  2  3  1  0
  3  4  2  0
  4  5  1  0
  5  6  1  0
  6  7  2  0
  6  8  2  0
  6  9  1  0
  9 10  1  0
 10 11  1  0
 11 12  2  0
 12 13  1  0
 13 14  2  0
 14 15  1  0
 15 16  2  0
 10 17  2  0
 17 18  1  0
 18 19  2  0
 19 20  1  0
 20 21  1  0
 21 22  1  0
 22 23  1  0
 23 24  1  0
 24 25  1  0
 25 26  1  0
 26 27  2  0
 26 28  1  0
 28 29  1  0
 29 30  2  0
 22 31  1  0
 31 32  2  0
  5 33  1  0
 33 34  2  0
 34  3  1  0
 20  9  2  0
 29 23  1  0
 16 11  1  0
 31 19  1  0
  1 35  1  0
  1 36  1  0
  1 37  1  0
  2 38  1  0
  2 39  1  0
  4 40  1  0
 12 41  1  0
 13 42  1  0
 15 43  1  0
 16 44  1  0
 17 45  1  0
 18 46  1  0
 21 47  1  0
 21 48  1  0
 23 49  1  6
 24 50  1  0
 24 51  1  0
 25 52  1  0
 25 53  1  0
 28 54  1  0
 33 55  1  0
M  END
>  <meeko>  (811) 
{"is_sidechain": [true], "free_energy": -10.48, "intermolecular_energy": 0.0, "internal_energy": -10.48, "cluster_size": 16, "cluster_id": 1, "rank_in_cluster": 1}

>  <_RMSD_MCS_to_ref>  (811) 
1.5898483330878523

$$$$
ligand
     RDKit          3D

 47 50  0  0  0  0  0  0  0  0999 V2000
   18.7970   18.8170    7.7190 C   0  0  0  0  0  0  0  0  0  0  0  0
   18.5280   17.3290    7.8810 C   0  0  0  0  0  0  0  0  0  0  0  0
   19.7670   16.5160    7.7330 C   0  0  0  0  0  0  0  0  0  0  0  0
   20.1420   15.3740    8.4120 C   0  0  0  0  0  0  0  0  0  0  0  0
   21.3500   15.0410    7.8690 N   0  0  0  0  0  0  0  0  0  0  0  0
   22.4430   13.9210    8.5040 S   0  0  0  0  0  6  0  0  0  0  0  0
   21.6150   12.9690    9.2210 O   0  0  0  0  0  0  0  0  0  0  0  0
   23.2170   13.4940    7.3520 O   0  0  0  0  0  0  0  0  0  0  0  0
   23.4500   14.7940    9.6130 C   0  0  0  0  0  0  0  0  0  0  0  0
   24.6300   15.2770    9.1720 C   0  0  0  0  0  0  0  0  0  0  0  0
   25.4730   16.0380   10.0830 C   0  0  0  0  0  0  0  0  0  0  0  0
   25.0980   16.2910   11.3570 C   0  0  0  0  0  0  0  0  0  0  0  0
   26.0250   17.0880   12.2230 C   0  0  0  0  0  0  0  0  0  0  0  0
   26.9900   17.6820   11.7510 O   0  0  0  0  0  0  0  0  0  0  0  0
   25.7270   17.1170   13.5600 N   0  0  0  0  0  0  0  0  0  0  0  0
   26.5120   17.8880   14.5100 C   0  0  2  0  0  0  0  0  0  0  0  0
   26.0760   17.6130   15.9460 C   0  0  0  0  0  0  0  0  0  0  0  0
   26.9160   18.4450   16.9020 C   0  0  0  0  0  0  0  0  0  0  0  0
   26.8350   19.9150   16.5650 C   0  0  0  0  0  0  0  0  0  0  0  0
   26.9110   20.7900   17.4220 O   0  0  0  0  0  0  0  0  0  0  0  0
   26.7100   20.2360   15.2370 N   0  0  0  0  0  0  0  0  0  0  0  0
   26.3660   19.3850   14.2140 C   0  0  0  0  0  0  0  0  0  0  0  0
   25.9960   19.8250   13.1280 O   0  0  0  0  0  0  0  0  0  0  0  0
   23.8510   15.7810   11.8190 C   0  0  0  0  0  0  0  0  0  0  0  0
   23.2330   15.8700   12.9780 N   0  0  0  0  0  0  0  0  0  0  0  0
   22.0560   15.1780   12.8860 N   0  0  0  0  0  0  0  0  0  0  0  0
   21.9770   14.6760   11.6750 C   0  0  0  0  0  0  0  0  0  0  0  0
   23.0720   15.0370   10.9330 N   0  0  0  0  0  0  0  0  0  0  0  0
   21.6920   15.9740    6.9430 C   0  0  0  0  0  0  0  0  0  0  0  0
   20.7460   16.8830    6.8320 N   0  0  0  0  0  0  0  0  0  0  0  0
   18.8815   19.2845    8.7111 H   0  0  0  0  0  0  0  0  0  0  0  0
   19.7359   18.9616    7.1643 H   0  0  0  0  0  0  0  0  0  0  0  0
   17.9682   19.2812    7.1643 H   0  0  0  0  0  0  0  0  0  0  0  0
   18.1049   17.1519    8.8808 H   0  0  0  0  0  0  0  0  0  0  0  0
   17.8263   17.0238    7.0907 H   0  0  0  0  0  0  0  0  0  0  0  0
   19.5928   14.8513    9.2090 H   0  0  0  0  0  0  0  0  0  0  0  0
   24.9517   15.0978    8.1355 H   0  0  0  0  0  0  0  0  0  0  0  0
   26.4414   16.4174    9.7250 H   0  0  0  0  0  0  0  0  0  0  0  0
   24.9210   16.5752   13.9030 H   0  0  0  0  0  0  0  0  0  0  0  0
   27.5637   17.5843   14.4020 H   0  0  0  0  0  0  0  0  0  0  0  0
   25.0153   17.8793   16.0639 H   0  0  0  0  0  0  0  0  0  0  0  0
   26.2148   16.5454   16.1720 H   0  0  0  0  0  0  0  0  0  0  0  0
   26.5495   18.2916   17.9277 H   0  0  0  0  0  0  0  0  0  0  0  0
   27.9646   18.1250   16.8120 H   0  0  0  0  0  0  0  0  0  0  0  0
   26.8929   21.2165   14.9800 H   0  0  0  0  0  0  0  0  0  0  0  0
   21.1483   14.0531   11.3074 H   0  0  0  0  0  0  0  0  0  0  0  0
   22.6287   15.9706    6.3663 H   0  0  0  0  0  0  0  0  0  0  0  0
  1  2  1  0
  2  3  1  0
  3  4  2  0
  4  5  1  0
  5  6  1  0
  6  7  2  0
  6  8  2  0
  6  9  1  0
  9 10  2  0
 10 11  1  0
 11 12  2  0
 12 13  1  0
 13 14  2  0
 13 15  1  0
 15 16  1  0
 16 17  1  0
 17 18  1  0
 18 19  1  0
 19 20  2  0
 19 21  1  0
 21 22  1  0
 22 23  2  0
 12 24  1  0
 24 25  2  0
 25 26  1  0
 26 27  2  0
 27 28  1  0
  5 29  1  0
 29 30  2  0
 30  3  1  0
 28  9  1  0
 22 16  1  0
 28 24  1  0
  1 31  1  0
  1 32  1  0
  1 33  1  0
  2 34  1  0
  2 35  1  0
  4 36  1  0
 10 37  1  0
 11 38  1  0
 15 39  1  0
 16 40  1  1
 17 41  1  0
 17 42  1  0
 18 43  1  0
 18 44  1  0
 21 45  1  0
 27 46  1  0
 29 47  1  0
M  END
>  <meeko>  (812) 
{"is_sidechain": [true], "free_energy": -10.48, "intermolecular_energy": 0.0, "internal_energy": -10.48, "cluster_size": 16, "cluster_id": 1, "rank_in_cluster": 1}

>  <_RMSD_MCS_to_ref>  (812) 
0.9111938444821833

$$$$
ligand
     RDKit          3D

 50 53  0  0  0  0  0  0  0  0999 V2000
   18.7970   18.8170    7.7190 C   0  0  0  0  0  0  0  0  0  0  0  0
   18.5280   17.3290    7.8810 C   0  0  0  0  0  0  0  0  0  0  0  0
   19.6740   16.4970    7.4260 C   0  0  0  0  0  0  0  0  0  0  0  0
   20.8450   16.1920    8.0920 C   0  0  0  0  0  0  0  0  0  0  0  0
   21.5210   15.3810    7.2260 N   0  0  0  0  0  0  0  0  0  0  0  0
   23.1110   14.8660    7.3940 S   0  0  0  0  0  6  0  0  0  0  0  0
   23.2800   13.7650    6.4670 O   0  0  0  0  0  0  0  0  0  0  0  0
   23.9190   16.0680    7.3320 O   0  0  0  0  0  0  0  0  0  0  0  0
   23.1750   14.2240    9.0450 C   0  0  0  0  0  0  0  0  0  0  0  0
   22.5220   13.0270    9.3540 C   0  0  0  0  0  0  0  0  0  0  0  0
   22.5740   12.5320   10.6580 C   0  0  0  0  0  0  0  0  0  0  0  0
   23.2710   13.2430   11.6360 C   0  0  0  0  0  0  0  0  0  0  0  0
   23.3160   12.7620   12.9450 N   0  0  0  0  0  0  0  0  0  0  0  0
   23.9630   13.4500   13.9450 C   0  0  0  0  0  0  0  0  0  0  0  0
   23.9360   13.0930   15.1120 O   0  0  0  0  0  0  0  0  0  0  0  0
   24.6890   14.7180   13.5170 C   0  0  0  0  0  0  0  0  0  0  0  0
   25.5080   15.5290   14.5060 C   0  0  0  0  0  0  0  0  0  0  0  0
   26.1740   14.9790   15.3670 O   0  0  0  0  0  0  0  0  0  0  0  0
   25.4620   16.8890   14.2840 N   0  0  0  0  0  0  0  0  0  0  0  0
   26.3600   17.7940   14.9820 C   0  0  2  0  0  0  0  0  0  0  0  0
   26.2320   17.6750   16.4960 C   0  0  0  0  0  0  0  0  0  0  0  0
   27.1680   18.6700   17.1660 C   0  0  0  0  0  0  0  0  0  0  0  0
   26.9040   20.0780   16.6900 C   0  0  0  0  0  0  0  0  0  0  0  0
   27.0550   21.0580   17.4140 O   0  0  0  0  0  0  0  0  0  0  0  0
   26.5140   20.2220   15.3820 N   0  0  0  0  0  0  0  0  0  0  0  0
   26.0380   19.2310   14.5610 C   0  0  0  0  0  0  0  0  0  0  0  0
   25.4110   19.5010   13.5360 O   0  0  0  0  0  0  0  0  0  0  0  0
   24.6360   15.1830   12.2930 N   0  0  0  0  0  0  0  0  0  0  0  0
   23.9190   14.4510   11.3330 C   0  0  0  0  0  0  0  0  0  0  0  0
   23.8620   14.9420   10.0290 C   0  0  0  0  0  0  0  0  0  0  0  0
   20.8020   15.2540    6.0810 C   0  0  0  0  0  0  0  0  0  0  0  0
   19.6670   15.9140    6.1730 N   0  0  0  0  0  0  0  0  0  0  0  0
   18.8815   19.2845    8.7111 H   0  0  0  0  0  0  0  0  0  0  0  0
   19.7359   18.9616    7.1643 H   0  0  0  0  0  0  0  0  0  0  0  0
   17.9682   19.2812    7.1643 H   0  0  0  0  0  0  0  0  0  0  0  0
   18.3366   17.1174    8.9434 H   0  0  0  0  0  0  0  0  0  0  0  0
   17.6578   17.0739    7.2583 H   0  0  0  0  0  0  0  0  0  0  0  0
   21.1608   16.5260    9.0914 H   0  0  0  0  0  0  0  0  0  0  0  0
   21.9712   12.4793    8.5751 H   0  0  0  0  0  0  0  0  0  0  0  0
   22.0693   11.5884   10.9130 H   0  0  0  0  0  0  0  0  0  0  0  0
   22.8531   11.8693   13.1681 H   0  0  0  0  0  0  0  0  0  0  0  0
   24.7801   17.2699   13.6125 H   0  0  0  0  0  0  0  0  0  0  0  0
   27.3920   17.5253   14.7123 H   0  0  0  0  0  0  0  0  0  0  0  0
   25.1951   17.8897   16.7939 H   0  0  0  0  0  0  0  0  0  0  0  0
   26.5000   16.6544   16.8066 H   0  0  0  0  0  0  0  0  0  0  0  0
   27.0179   18.6258   18.2548 H   0  0  0  0  0  0  0  0  0  0  0  0
   28.2027   18.4035   16.9045 H   0  0  0  0  0  0  0  0  0  0  0  0
   26.5856   21.1664   14.9771 H   0  0  0  0  0  0  0  0  0  0  0  0
   24.3561   15.8914    9.7751 H   0  0  0  0  0  0  0  0  0  0  0  0
   21.1233   14.6797    5.1996 H   0  0  0  0  0  0  0  0  0  0  0  0
  1  2  1  0
  2  3  1  0
  3  4  2  0
  4  5  1  0
  5  6  1  0
  6  7  2  0
  6  8  2  0
  6  9  1  0
  9 10  2  0
 10 11  1  0
 11 12  2  0
 12 13  1  0
 13 14  1  0
 14 15  2  0
 14 16  1  0
 16 17  1  0
 17 18  2  0
 17 19  1  0
 19 20  1  0
 20 21  1  0
 21 22  1  0
 22 23  1  0
 23 24  2  0
 23 25  1  0
 25 26  1  0
 26 27  2  0
 16 28  2  0
 28 29  1  0
 29 30  2  0
  5 31  1  0
 31 32  2  0
 32  3  1  0
 30  9  1  0
 29 12  1  0
 26 20  1  0
  1 33  1  0
  1 34  1  0
  1 35  1  0
  2 36  1  0
  2 37  1  0
  4 38  1  0
 10 39  1  0
 11 40  1  0
 13 41  1  0
 19 42  1  0
 20 43  1  1
 21 44  1  0
 21 45  1  0
 22 46  1  0
 22 47  1  0
 25 48  1  0
 30 49  1  0
 31 50  1  0
M  END
>  <meeko>  (813) 
{"is_sidechain": [true], "free_energy": -10.48, "intermolecular_energy": 0.0, "internal_energy": -10.48, "cluster_size": 7, "cluster_id": 1, "rank_in_cluster": 1}

>  <_RMSD_MCS_to_ref>  (813) 
0.7914966133148568

$$$$
ligand
     RDKit          3D

 52 56  0  0  0  0  0  0  0  0999 V2000
   18.7970   18.8170    7.7190 C   0  0  0  0  0  0  0  0  0  0  0  0
   18.5280   17.3290    7.8810 C   0  0  0  0  0  0  0  0  0  0  0  0
   19.7760   16.5560    8.1250 C   0  0  0  0  0  0  0  0  0  0  0  0
   20.9530   16.5540    7.4020 C   0  0  0  0  0  0  0  0  0  0  0  0
   21.7650   15.6940    8.0860 N   0  0  0  0  0  0  0  0  0  0  0  0
   23.2250   15.0810    7.5250 S   0  0  0  0  0  6  0  0  0  0  0  0
   23.0370   14.8660    6.1070 O   0  0  0  0  0  0  0  0  0  0  0  0
   24.2540   15.9260    8.0880 O   0  0  0  0  0  0  0  0  0  0  0  0
   23.4870   13.5100    8.2160 C   0  0  0  0  0  0  0  0  0  0  0  0
   23.6400   12.2810    7.6010 C   0  0  0  0  0  0  0  0  0  0  0  0
   23.9930   11.3410    8.5070 N   0  0  0  0  0  0  0  0  0  0  0  0
   24.0680   11.9330    9.6840 N   0  0  0  0  0  0  0  0  0  0  0  0
   23.6760   13.2360    9.5620 N   0  0  0  0  0  0  0  0  0  0  0  0
   23.5280   14.0090   10.7530 C   0  0  0  0  0  0  0  0  0  0  0  0
   22.4550   13.6870   11.6330 C   0  0  0  0  0  0  0  0  0  0  0  0
   22.2300   14.3950   12.8220 C   0  0  0  0  0  0  0  0  0  0  0  0
   23.0740   15.4430   13.1200 C   0  0  0  0  0  0  0  0  0  0  0  0
   24.1080   15.7720   12.2500 C   0  0  0  0  0  0  0  0  0  0  0  0
   24.3600   15.0880   11.0680 C   0  0  0  0  0  0  0  0  0  0  0  0
   24.8190   16.9280   12.8070 C   0  0  0  0  0  0  0  0  0  0  0  0
   25.8050   17.4450   12.3180 O   0  0  0  0  0  0  0  0  0  0  0  0
   24.1470   17.2950   13.9630 N   0  0  0  0  0  0  0  0  0  0  0  0
   24.7100   18.2480   14.9120 C   0  0  1  0  0  0  0  0  0  0  0  0
   25.8450   17.6500   15.7370 C   0  0  0  0  0  0  0  0  0  0  0  0
   26.3170   18.6690   16.7620 C   0  0  0  0  0  0  0  0  0  0  0  0
   26.7220   19.9640   16.0970 C   0  0  0  0  0  0  0  0  0  0  0  0
   27.6600   20.6440   16.5000 O   0  0  0  0  0  0  0  0  0  0  0  0
   25.9730   20.3590   15.0170 N   0  0  0  0  0  0  0  0  0  0  0  0
   25.2140   19.5280   14.2250 C   0  0  0  0  0  0  0  0  0  0  0  0
   24.9910   19.8230   13.0530 O   0  0  0  0  0  0  0  0  0  0  0  0
   23.0830   16.3580   14.2990 C   0  0  0  0  0  0  0  0  0  0  0  0
   21.0760   15.1680    9.1320 C   0  0  0  0  0  0  0  0  0  0  0  0
   19.8640   15.6770    9.1870 N   0  0  0  0  0  0  0  0  0  0  0  0
   18.8815   19.2845    8.7111 H   0  0  0  0  0  0  0  0  0  0  0  0
   19.7359   18.9616    7.1643 H   0  0  0  0  0  0  0  0  0  0  0  0
   17.9682   19.2812    7.1643 H   0  0  0  0  0  0  0  0  0  0  0  0
   17.8481   17.1825    8.7332 H   0  0  0  0  0  0  0  0  0  0  0  0
   18.0810   16.9625    6.9451 H   0  0  0  0  0  0  0  0  0  0  0  0
   21.1838   17.1163    6.4852 H   0  0  0  0  0  0  0  0  0  0  0  0
   23.4951   12.0943    6.5267 H   0  0  0  0  0  0  0  0  0  0  0  0
   21.7821   12.8571   11.3715 H   0  0  0  0  0  0  0  0  0  0  0  0
   21.4050   14.1223   13.4965 H   0  0  0  0  0  0  0  0  0  0  0  0
   25.1847   15.3844   10.4032 H   0  0  0  0  0  0  0  0  0  0  0  0
   23.8799   18.5062   15.5860 H   0  0  0  0  0  0  0  0  0  0  0  0
   25.4864   16.7481   16.2547 H   0  0  0  0  0  0  0  0  0  0  0  0
   26.6804   17.3835   15.0729 H   0  0  0  0  0  0  0  0  0  0  0  0
   25.5004   18.8696   17.4711 H   0  0  0  0  0  0  0  0  0  0  0  0
   27.1923   18.2572   17.2857 H   0  0  0  0  0  0  0  0  0  0  0  0
   25.9795   21.3612   14.7793 H   0  0  0  0  0  0  0  0  0  0  0  0
   23.3130   15.8108   15.2251 H   0  0  0  0  0  0  0  0  0  0  0  0
   22.1136   16.8436   14.4846 H   0  0  0  0  0  0  0  0  0  0  0  0
   21.4753   14.4214    9.8343 H   0  0  0  0  0  0  0  0  0  0  0  0
  1  2  1  0
  2  3  1  0
  3  4  2  0
  4  5  1  0
  5  6  1  0
  6  7  2  0
  6  8  2  0
  6  9  1  0
  9 10  2  0
 10 11  1  0
 11 12  2  0
 12 13  1  0
 13 14  1  0
 14 15  2  0
 15 16  1  0
 16 17  2  0
 17 18  1  0
 18 19  2  0
 18 20  1  0
 20 21  2  0
 20 22  1  0
 22 23  1  0
 23 24  1  0
 24 25  1  0
 25 26  1  0
 26 27  2  0
 26 28  1  0
 28 29  1  0
 29 30  2  0
 22 31  1  0
  5 32  1  0
 32 33  2  0
 33  3  1  0
 13  9  1  0
 19 14  1  0
 29 23  1  0
 31 17  1  0
  1 34  1  0
  1 35  1  0
  1 36  1  0
  2 37  1  0
  2 38  1  0
  4 39  1  0
 10 40  1  0
 15 41  1  0
 16 42  1  0
 19 43  1  0
 23 44  1  1
 24 45  1  0
 24 46  1  0
 25 47  1  0
 25 48  1  0
 28 49  1  0
 31 50  1  0
 31 51  1  0
 32 52  1  0
M  END
>  <meeko>  (814) 
{"is_sidechain": [true], "free_energy": -10.48, "intermolecular_energy": 0.0, "internal_energy": -10.48, "cluster_size": 20, "cluster_id": 1, "rank_in_cluster": 1}

>  <_RMSD_MCS_to_ref>  (814) 
1.8816890166963176

$$$$
ligand
     RDKit          3D

 47 50  0  0  0  0  0  0  0  0999 V2000
   18.9090   19.1540    7.5370 C   0  0  0  0  0  0  0  0  0  0  0  0
   18.7730   17.6460    7.6780 C   0  0  0  0  0  0  0  0  0  0  0  0
   20.0950   16.9680    7.7640 C   0  0  0  0  0  0  0  0  0  0  0  0
   20.8740   16.7190    8.8750 C   0  0  0  0  0  0  0  0  0  0  0  0
   21.9850   16.1010    8.3760 N   0  0  0  0  0  0  0  0  0  0  0  0
   23.1930   15.3920    9.2970 S   0  0  0  0  0  6  0  0  0  0  0  0
   23.8490   14.4080    8.4660 O   0  0  0  0  0  0  0  0  0  0  0  0
   23.9030   16.4820    9.9390 O   0  0  0  0  0  0  0  0  0  0  0  0
   22.4710   14.5050   10.6220 C   0  0  0  0  0  0  0  0  0  0  0  0
   21.6610   13.4370   10.3470 N   0  0  0  0  0  0  0  0  0  0  0  0
   21.2160   12.7910   11.4390 N   0  0  0  0  0  0  0  0  0  0  0  0
   21.7270   13.4970   12.4500 C   0  0  0  0  0  0  0  0  0  0  0  0
   22.5070   14.5810   12.0020 C   0  0  0  0  0  0  0  0  0  0  0  0
   23.2540   15.5670   12.7430 C   0  0  0  0  0  0  0  0  0  0  0  0
   24.6430   15.6230   12.6420 C   0  0  0  0  0  0  0  0  0  0  0  0
   25.3680   16.5480   13.4050 C   0  0  0  0  0  0  0  0  0  0  0  0
   24.7290   17.4320   14.2870 C   0  0  0  0  0  0  0  0  0  0  0  0
   25.4790   18.3680   15.0790 N   0  0  0  0  0  0  0  0  0  0  0  0
   26.3360   17.8780   16.1550 C   0  0  0  0  0  0  0  0  0  0  0  0
   26.3410   18.8370   17.3260 C   0  0  0  0  0  0  0  0  0  0  0  0
   26.7110   20.2050   16.8420 C   0  0  0  0  0  0  0  0  0  0  0  0
   27.1890   21.0590   17.5820 O   0  0  0  0  0  0  0  0  0  0  0  0
   26.3970   20.4760   15.5400 N   0  0  0  0  0  0  0  0  0  0  0  0
   25.6110   19.7120   14.7100 C   0  0  0  0  0  0  0  0  0  0  0  0
   25.1070   20.2590   13.7320 O   0  0  0  0  0  0  0  0  0  0  0  0
   23.3270   17.3720   14.3570 C   0  0  0  0  0  0  0  0  0  0  0  0
   22.5950   16.4540   13.5920 C   0  0  0  0  0  0  0  0  0  0  0  0
   21.8430   15.9470    7.0350 C   0  0  0  0  0  0  0  0  0  0  0  0
   20.7060   16.4750    6.6280 N   0  0  0  0  0  0  0  0  0  0  0  0
   18.9504   19.6134    8.5356 H   0  0  0  0  0  0  0  0  0  0  0  0
   19.8320   19.3891    6.9867 H   0  0  0  0  0  0  0  0  0  0  0  0
   18.0430   19.5504    6.9867 H   0  0  0  0  0  0  0  0  0  0  0  0
   18.2018   17.4257    8.5919 H   0  0  0  0  0  0  0  0  0  0  0  0
   18.2573   17.2682    6.7828 H   0  0  0  0  0  0  0  0  0  0  0  0
   20.6510   16.9628    9.9242 H   0  0  0  0  0  0  0  0  0  0  0  0
   21.4140   13.1530    9.3882 H   0  0  0  0  0  0  0  0  0  0  0  0
   21.5584   13.2596   13.5108 H   0  0  0  0  0  0  0  0  0  0  0  0
   25.1715   14.9392   11.9615 H   0  0  0  0  0  0  0  0  0  0  0  0
   26.4634   16.5817   13.3102 H   0  0  0  0  0  0  0  0  0  0  0  0
   25.9642   16.8996   16.4933 H   0  0  0  0  0  0  0  0  0  0  0  0
   27.3631   17.7892   15.7712 H   0  0  0  0  0  0  0  0  0  0  0  0
   25.3402   18.8663   17.7815 H   0  0  0  0  0  0  0  0  0  0  0  0
   27.0723   18.5004   18.0756 H   0  0  0  0  0  0  0  0  0  0  0  0
   26.7889   21.3403   15.1398 H   0  0  0  0  0  0  0  0  0  0  0  0
   22.7921   18.0609   15.0272 H   0  0  0  0  0  0  0  0  0  0  0  0
   21.4974   16.4335   13.6619 H   0  0  0  0  0  0  0  0  0  0  0  0
   22.5743   15.4511    6.3798 H   0  0  0  0  0  0  0  0  0  0  0  0
  1  2  1  0
  2  3  1  0
  3  4  2  0
  4  5  1  0
  5  6  1  0
  6  7  2  0
  6  8  2  0
  6  9  1  0
  9 10  1  0
 10 11  1  0
 11 12  2  0
 12 13  1  0
 13 14  1  0
 14 15  2  0
 15 16  1  0
 16 17  2  0
 17 18  1  0
 18 19  1  0
 19 20  1  0
 20 21  1  0
 21 22  2  0
 21 23  1  0
 23 24  1  0
 24 25  2  0
 17 26  1  0
 26 27  2  0
  5 28  1  0
 28 29  2  0
 29  3  1  0
 13  9  2  0
 27 14  1  0
 24 18  1  0
  1 30  1  0
  1 31  1  0
  1 32  1  0
  2 33  1  0
  2 34  1  0
  4 35  1  0
 10 36  1  0
 12 37  1  0
 15 38  1  0
 16 39  1  0
 19 40  1  0
 19 41  1  0
 20 42  1  0
 20 43  1  0
 23 44  1  0
 26 45  1  0
 27 46  1  0
 28 47  1  0
M  END
>  <meeko>  (815) 
{"is_sidechain": [true], "free_energy": -10.48, "intermolecular_energy": 0.0, "internal_energy": -10.48, "cluster_size": 19, "cluster_id": 1, "rank_in_cluster": 1}

>  <_RMSD_MCS_to_ref>  (815) 
0.5838376272560714

$$$$
ligand
     RDKit          3D

 48 51  0  0  0  0  0  0  0  0999 V2000
   18.9090   19.1540    7.5370 C   0  0  0  0  0  0  0  0  0  0  0  0
   18.7730   17.6460    7.6780 C   0  0  0  0  0  0  0  0  0  0  0  0
   20.0650   16.9410    7.4500 C   0  0  0  0  0  0  0  0  0  0  0  0
   20.6930   16.0010    8.2410 C   0  0  0  0  0  0  0  0  0  0  0  0
   21.8520   15.7220    7.5740 N   0  0  0  0  0  0  0  0  0  0  0  0
   22.9080   14.4550    7.9280 S   0  0  0  0  0  6  0  0  0  0  0  0
   23.3960   14.0370    6.6260 O   0  0  0  0  0  0  0  0  0  0  0  0
   22.1160   13.5490    8.7390 O   0  0  0  0  0  0  0  0  0  0  0  0
   24.2440   15.0220    8.8670 C   0  0  0  0  0  0  0  0  0  0  0  0
   25.4610   15.2240    8.3200 C   0  0  0  0  0  0  0  0  0  0  0  0
   26.5460   15.7060    9.1640 C   0  0  0  0  0  0  0  0  0  0  0  0
   26.3630   15.9570   10.4740 C   0  0  0  0  0  0  0  0  0  0  0  0
   25.0810   15.7510   11.0530 C   0  0  0  0  0  0  0  0  0  0  0  0
   24.5240   15.8950   12.3100 C   0  0  0  0  0  0  0  0  0  0  0  0
   25.1810   16.3540   13.5340 C   0  0  0  0  0  0  0  0  0  0  0  0
   25.4030   15.6350   14.5030 O   0  0  0  0  0  0  0  0  0  0  0  0
   25.5350   17.6800   13.4820 N   0  0  0  0  0  0  0  0  0  0  0  0
   26.3310   18.3160   14.5120 C   0  0  2  0  0  0  0  0  0  0  0  0
   25.8440   17.9550   15.9120 C   0  0  0  0  0  0  0  0  0  0  0  0
   26.7050   18.6620   16.9490 C   0  0  0  0  0  0  0  0  0  0  0  0
   26.7150   20.1560   16.7260 C   0  0  0  0  0  0  0  0  0  0  0  0
   26.8050   20.9580   17.6520 O   0  0  0  0  0  0  0  0  0  0  0  0
   26.6540   20.5840   15.4250 N   0  0  0  0  0  0  0  0  0  0  0  0
   26.2710   19.8380   14.3370 C   0  0  0  0  0  0  0  0  0  0  0  0
   25.9280   20.3830   13.2890 O   0  0  0  0  0  0  0  0  0  0  0  0
   23.1850   15.5350   12.2750 N   0  0  0  0  0  0  0  0  0  0  0  0
   22.9440   15.1840   11.0310 C   0  0  0  0  0  0  0  0  0  0  0  0
   24.0580   15.2890   10.2280 N   0  0  0  0  0  0  0  0  0  0  0  0
   21.8810   16.4310    6.4140 C   0  0  0  0  0  0  0  0  0  0  0  0
   20.8050   17.1820    6.3090 N   0  0  0  0  0  0  0  0  0  0  0  0
   18.9504   19.6134    8.5356 H   0  0  0  0  0  0  0  0  0  0  0  0
   19.8320   19.3891    6.9867 H   0  0  0  0  0  0  0  0  0  0  0  0
   18.0430   19.5504    6.9867 H   0  0  0  0  0  0  0  0  0  0  0  0
   18.4181   17.4157    8.6934 H   0  0  0  0  0  0  0  0  0  0  0  0
   18.0596   17.2985    6.9162 H   0  0  0  0  0  0  0  0  0  0  0  0
   20.3408   15.5738    9.1915 H   0  0  0  0  0  0  0  0  0  0  0  0
   25.6314   15.0273    7.2512 H   0  0  0  0  0  0  0  0  0  0  0  0
   27.5392   15.8689    8.7201 H   0  0  0  0  0  0  0  0  0  0  0  0
   27.1986   16.3185   11.0913 H   0  0  0  0  0  0  0  0  0  0  0  0
   25.2223   18.2445   12.6792 H   0  0  0  0  0  0  0  0  0  0  0  0
   27.3647   17.9549   14.4066 H   0  0  0  0  0  0  0  0  0  0  0  0
   24.7968   18.2711   16.0284 H   0  0  0  0  0  0  0  0  0  0  0  0
   25.9178   16.8669   16.0557 H   0  0  0  0  0  0  0  0  0  0  0  0
   26.3040   18.4518   17.9515 H   0  0  0  0  0  0  0  0  0  0  0  0
   27.7360   18.2898   16.8570 H   0  0  0  0  0  0  0  0  0  0  0  0
   26.9220   21.5622   15.2455 H   0  0  0  0  0  0  0  0  0  0  0  0
   21.9615   14.8442   10.6715 H   0  0  0  0  0  0  0  0  0  0  0  0
   22.6890   16.3837    5.6691 H   0  0  0  0  0  0  0  0  0  0  0  0
  1  2  1  0
  2  3  1  0
  3  4  2  0
  4  5  1  0
  5  6  1  0
  6  7  2  0
  6  8  2  0
  6  9  1  0
  9 10  2  0
 10 11  1  0
 11 12  2  0
 12 13  1  0
 13 14  2  0
 14 15  1  0
 15 16  2  0
 15 17  1  0
 17 18  1  0
 18 19  1  0
 19 20  1  0
 20 21  1  0
 21 22  2  0
 21 23  1  0
 23 24  1  0
 24 25  2  0
 14 26  1  0
 26 27  2  0
 27 28  1  0
  5 29  1  0
 29 30  2  0
 30  3  1  0
 28  9  1  0
 28 13  1  0
 24 18  1  0
  1 31  1  0
  1 32  1  0
  1 33  1  0
  2 34  1  0
  2 35  1  0
  4 36  1  0
 10 37  1  0
 11 38  1  0
 12 39  1  0
 17 40  1  0
 18 41  1  1
 19 42  1  0
 19 43  1  0
 20 44  1  0
 20 45  1  0
 23 46  1  0
 27 47  1  0
 29 48  1  0
M  END
>  <meeko>  (816) 
{"is_sidechain": [true], "free_energy": -10.48, "intermolecular_energy": 0.0, "internal_energy": -10.48, "cluster_size": 18, "cluster_id": 1, "rank_in_cluster": 1}

>  <_RMSD_MCS_to_ref>  (816) 
0.915436083089487

$$$$
ligand
     RDKit          3D

 48 51  0  0  0  0  0  0  0  0999 V2000
   18.9090   19.1540    7.5370 C   0  0  0  0  0  0  0  0  0  0  0  0
   18.7730   17.6460    7.6780 C   0  0  0  0  0  0  0  0  0  0  0  0
   20.0930   16.9600    7.7080 C   0  0  0  0  0  0  0  0  0  0  0  0
   20.8920   16.6630    8.7950 C   0  0  0  0  0  0  0  0  0  0  0  0
   21.9950   16.0710    8.2520 N   0  0  0  0  0  0  0  0  0  0  0  0
   23.2060   15.2750    9.0970 S   0  0  0  0  0  6  0  0  0  0  0  0
   23.3230   13.9550    8.5100 O   0  0  0  0  0  0  0  0  0  0  0  0
   24.3170   16.2000    9.2120 O   0  0  0  0  0  0  0  0  0  0  0  0
   22.6510   15.0070   10.7220 C   0  0  0  0  0  0  0  0  0  0  0  0
   21.8080   13.9510   11.1130 C   0  0  0  0  0  0  0  0  0  0  0  0
   21.6480   14.1200   12.4670 C   0  0  0  0  0  0  0  0  0  0  0  0
   20.9420   13.4120   13.4780 C   0  0  0  0  0  0  0  0  0  0  0  0
   21.0200   13.8320   14.7540 C   0  0  0  0  0  0  0  0  0  0  0  0
   21.8100   14.9940   15.1270 C   0  0  0  0  0  0  0  0  0  0  0  0
   22.4760   15.6850   14.1770 C   0  0  0  0  0  0  0  0  0  0  0  0
   23.2860   16.8640   14.6160 C   0  0  0  0  0  0  0  0  0  0  0  0
   22.9000   17.6170   15.5070 O   0  0  0  0  0  0  0  0  0  0  0  0
   24.4830   17.0420   13.9650 N   0  0  0  0  0  0  0  0  0  0  0  0
   25.5310   17.8790   14.5270 C   0  0  2  0  0  0  0  0  0  0  0  0
   25.6350   17.6830   16.0340 C   0  0  0  0  0  0  0  0  0  0  0  0
   26.7140   18.5920   16.5970 C   0  0  0  0  0  0  0  0  0  0  0  0
   26.4800   20.0350   16.2150 C   0  0  0  0  0  0  0  0  0  0  0  0
   26.7800   20.9710   16.9510 O   0  0  0  0  0  0  0  0  0  0  0  0
   25.9420   20.2640   14.9740 N   0  0  0  0  0  0  0  0  0  0  0  0
   25.2180   19.3560   14.2400 C   0  0  0  0  0  0  0  0  0  0  0  0
   24.3890   19.7380   13.4160 O   0  0  0  0  0  0  0  0  0  0  0  0
   22.3890   15.2490   12.8440 N   0  0  0  0  0  0  0  0  0  0  0  0
   22.9800   15.8110   11.7440 N   0  0  0  0  0  0  0  0  0  0  0  0
   21.8230   15.9640    6.9080 C   0  0  0  0  0  0  0  0  0  0  0  0
   20.6770   16.5030    6.5420 N   0  0  0  0  0  0  0  0  0  0  0  0
   18.9504   19.6134    8.5356 H   0  0  0  0  0  0  0  0  0  0  0  0
   19.8320   19.3891    6.9867 H   0  0  0  0  0  0  0  0  0  0  0  0
   18.0430   19.5504    6.9867 H   0  0  0  0  0  0  0  0  0  0  0  0
   18.2382   17.4251    8.6135 H   0  0  0  0  0  0  0  0  0  0  0  0
   18.2208   17.2747    6.8021 H   0  0  0  0  0  0  0  0  0  0  0  0
   20.6858   16.8593    9.8575 H   0  0  0  0  0  0  0  0  0  0  0  0
   21.3739   13.1655   10.4769 H   0  0  0  0  0  0  0  0  0  0  0  0
   20.3381   12.5297   13.2196 H   0  0  0  0  0  0  0  0  0  0  0  0
   20.4726   13.2826   15.5340 H   0  0  0  0  0  0  0  0  0  0  0  0
   21.8650   15.3093   16.1794 H   0  0  0  0  0  0  0  0  0  0  0  0
   24.6410   16.5735   13.0614 H   0  0  0  0  0  0  0  0  0  0  0  0
   26.4862   17.5924   14.0627 H   0  0  0  0  0  0  0  0  0  0  0  0
   24.6701   17.9282   16.5018 H   0  0  0  0  0  0  0  0  0  0  0  0
   25.8943   16.6355   16.2473 H   0  0  0  0  0  0  0  0  0  0  0  0
   26.7147   18.5086   17.6938 H   0  0  0  0  0  0  0  0  0  0  0  0
   27.6816   18.2777   16.1788 H   0  0  0  0  0  0  0  0  0  0  0  0
   26.0935   21.1940   14.5580 H   0  0  0  0  0  0  0  0  0  0  0  0
   22.5409   15.4927    6.2206 H   0  0  0  0  0  0  0  0  0  0  0  0
  1  2  1  0
  2  3  1  0
  3  4  2  0
  4  5  1  0
  5  6  1  0
  6  7  2  0
  6  8  2  0
  6  9  1  0
  9 10  1  0
 10 11  2  0
 11 12  1  0
 12 13  2  0
 13 14  1  0
 14 15  2  0
 15 16  1  0
 16 17  2  0
 16 18  1  0
 18 19  1  0
 19 20  1  0
 20 21  1  0
 21 22  1  0
 22 23  2  0
 22 24  1  0
 24 25  1  0
 25 26  2  0
 15 27  1  0
 27 28  1  0
  5 29  1  0
 29 30  2  0
 30  3  1  0
 28  9  2  0
 27 11  1  0
 25 19  1  0
  1 31  1  0
  1 32  1  0
  1 33  1  0
  2 34  1  0
  2 35  1  0
  4 36  1  0
 10 37  1  0
 12 38  1  0
 13 39  1  0
 14 40  1  0
 18 41  1  0
 19 42  1  6
 20 43  1  0
 20 44  1  0
 21 45  1  0
 21 46  1  0
 24 47  1  0
 29 48  1  0
M  END
>  <meeko>  (817) 
{"is_sidechain": [true], "free_energy": -10.48, "intermolecular_energy": 0.0, "internal_energy": -10.48, "cluster_size": 19, "cluster_id": 1, "rank_in_cluster": 1}

>  <_RMSD_MCS_to_ref>  (817) 
0.5519015612709681

$$$$
ligand
     RDKit          3D

 47 50  0  0  0  0  0  0  0  0999 V2000
   18.9090   19.1540    7.5370 C   0  0  0  0  0  0  0  0  0  0  0  0
   18.7730   17.6460    7.6780 C   0  0  0  0  0  0  0  0  0  0  0  0
   20.0600   16.9410    7.4350 C   0  0  0  0  0  0  0  0  0  0  0  0
   20.8950   16.3190    8.3440 C   0  0  0  0  0  0  0  0  0  0  0  0
   21.9290   15.8540    7.5810 N   0  0  0  0  0  0  0  0  0  0  0  0
   23.2310   14.9470    8.1550 S   0  0  0  0  0  6  0  0  0  0  0  0
   22.7710   13.5700    8.1570 O   0  0  0  0  0  0  0  0  0  0  0  0
   24.3180   15.3410    7.2710 O   0  0  0  0  0  0  0  0  0  0  0  0
   23.6030   15.4380    9.7570 C   0  0  0  0  0  0  0  0  0  0  0  0
   24.5150   16.4050    9.9680 C   0  0  0  0  0  0  0  0  0  0  0  0
   24.8840   16.8510   11.2250 N   0  0  0  0  0  0  0  0  0  0  0  0
   24.3130   16.2920   12.2630 C   0  0  0  0  0  0  0  0  0  0  0  0
   24.7190   16.7710   13.6620 C   0  0  0  0  0  0  0  0  0  0  0  0
   24.6180   16.0510   14.6420 O   0  0  0  0  0  0  0  0  0  0  0  0
   25.1720   18.0710   13.6860 N   0  0  0  0  0  0  0  0  0  0  0  0
   25.4060   18.7800   14.9330 C   0  0  1  0  0  0  0  0  0  0  0  0
   26.4490   18.0820   15.8000 C   0  0  0  0  0  0  0  0  0  0  0  0
   26.6710   18.8850   17.0720 C   0  0  0  0  0  0  0  0  0  0  0  0
   27.0650   20.3100   16.7610 C   0  0  0  0  0  0  0  0  0  0  0  0
   27.8260   20.9550   17.4760 O   0  0  0  0  0  0  0  0  0  0  0  0
   26.5000   20.8730   15.6440 N   0  0  0  0  0  0  0  0  0  0  0  0
   25.8860   20.2000   14.6160 C   0  0  0  0  0  0  0  0  0  0  0  0
   25.7190   20.7310   13.5190 O   0  0  0  0  0  0  0  0  0  0  0  0
   23.3370   15.2410   12.1220 C   0  0  0  0  0  0  0  0  0  0  0  0
   22.5950   14.4830   12.9970 C   0  0  0  0  0  0  0  0  0  0  0  0
   21.8370   13.6420   12.1700 C   0  0  0  0  0  0  0  0  0  0  0  0
   22.0800   13.8460   10.8750 N   0  0  0  0  0  0  0  0  0  0  0  0
   23.0040   14.8330   10.8410 N   0  0  0  0  0  0  0  0  0  0  0  0
   21.7000   16.1620    6.2790 C   0  0  0  0  0  0  0  0  0  0  0  0
   20.5740   16.8380    6.1570 N   0  0  0  0  0  0  0  0  0  0  0  0
   18.9504   19.6134    8.5356 H   0  0  0  0  0  0  0  0  0  0  0  0
   19.8320   19.3891    6.9867 H   0  0  0  0  0  0  0  0  0  0  0  0
   18.0430   19.5504    6.9867 H   0  0  0  0  0  0  0  0  0  0  0  0
   18.4294   17.4150    8.6971 H   0  0  0  0  0  0  0  0  0  0  0  0
   18.0506   17.3000    6.9241 H   0  0  0  0  0  0  0  0  0  0  0  0
   20.7587   16.2209    9.4311 H   0  0  0  0  0  0  0  0  0  0  0  0
   24.9940   16.8668    9.0921 H   0  0  0  0  0  0  0  0  0  0  0  0
   25.3502   18.5550   12.7945 H   0  0  0  0  0  0  0  0  0  0  0  0
   24.4604   18.8010   15.4946 H   0  0  0  0  0  0  0  0  0  0  0  0
   26.0942   17.0738   16.0602 H   0  0  0  0  0  0  0  0  0  0  0  0
   27.3955   18.0059   15.2448 H   0  0  0  0  0  0  0  0  0  0  0  0
   25.7407   18.8906   17.6589 H   0  0  0  0  0  0  0  0  0  0  0  0
   27.4875   18.4156   17.6403 H   0  0  0  0  0  0  0  0  0  0  0  0
   26.5403   21.8995   15.5694 H   0  0  0  0  0  0  0  0  0  0  0  0
   22.5959   14.5265   14.0961 H   0  0  0  0  0  0  0  0  0  0  0  0
   21.1214   12.8968   12.5476 H   0  0  0  0  0  0  0  0  0  0  0  0
   22.3604   15.8867    5.4435 H   0  0  0  0  0  0  0  0  0  0  0  0
  1  2  1  0
  2  3  1  0
  3  4  2  0
  4  5  1  0
  5  6  1  0
  6  7  2  0
  6  8  2  0
  6  9  1  0
  9 10  2  0
 10 11  1  0
 11 12  2  0
 12 13  1  0
 13 14  2  0
 13 15  1  0
 15 16  1  0
 16 17  1  0
 17 18  1  0
 18 19  1  0
 19 20  2  0
 19 21  1  0
 21 22  1  0
 22 23  2  0
 12 24  1  0
 24 25  2  0
 25 26  1  0
 26 27  2  0
 27 28  1  0
  5 29  1  0
 29 30  2  0
 30  3  1  0
 28  9  1  0
 22 16  1  0
 28 24  1  0
  1 31  1  0
  1 32  1  0
  1 33  1  0
  2 34  1  0
  2 35  1  0
  4 36  1  0
 10 37  1  0
 15 38  1  0
 16 39  1  1
 17 40  1  0
 17 41  1  0
 18 42  1  0
 18 43  1  0
 21 44  1  0
 25 45  1  0
 26 46  1  0
 29 47  1  0
M  END
>  <meeko>  (818) 
{"is_sidechain": [true], "free_energy": -10.48, "intermolecular_energy": 0.0, "internal_energy": -10.48, "cluster_size": 9, "cluster_id": 1, "rank_in_cluster": 1}

>  <_RMSD_MCS_to_ref>  (818) 
0.7857689086352161

$$$$
ligand
     RDKit          3D

 50 53  0  0  0  0  0  0  0  0999 V2000
   18.9090   19.1540    7.5370 C   0  0  0  0  0  0  0  0  0  0  0  0
   18.7730   17.6460    7.6780 C   0  0  0  0  0  0  0  0  0  0  0  0
   20.0130   16.9300    7.2700 C   0  0  0  0  0  0  0  0  0  0  0  0
   20.5920   15.8080    7.8290 C   0  0  0  0  0  0  0  0  0  0  0  0
   21.7070   15.5940    7.0690 N   0  0  0  0  0  0  0  0  0  0  0  0
   22.7060   14.2460    7.1460 S   0  0  0  0  0  6  0  0  0  0  0  0
   23.0470   13.9570    5.7650 O   0  0  0  0  0  0  0  0  0  0  0  0
   21.9950   13.2990    7.9830 O   0  0  0  0  0  0  0  0  0  0  0  0
   24.1900   14.6980    7.9820 C   0  0  0  0  0  0  0  0  0  0  0  0
   25.4210   14.5040    7.3760 C   0  0  0  0  0  0  0  0  0  0  0  0
   26.5960   14.8220    7.9580 N   0  0  0  0  0  0  0  0  0  0  0  0
   26.5410   15.3570    9.1960 C   0  0  0  0  0  0  0  0  0  0  0  0
   25.3600   15.5970    9.9010 C   0  0  0  0  0  0  0  0  0  0  0  0
   25.3890   16.1560   11.1910 C   0  0  0  0  0  0  0  0  0  0  0  0
   24.2060   16.3900   11.9010 C   0  0  0  0  0  0  0  0  0  0  0  0
   24.3050   16.9920   13.2600 C   0  0  0  0  0  0  0  0  0  0  0  0
   23.5400   16.6380   14.1500 O   0  0  0  0  0  0  0  0  0  0  0  0
   25.2590   17.9690   13.4400 N   0  0  0  0  0  0  0  0  0  0  0  0
   25.3340   18.7240   14.6840 C   0  0  1  0  0  0  0  0  0  0  0  0
   26.2190   18.0420   15.7210 C   0  0  0  0  0  0  0  0  0  0  0  0
   26.2850   18.9020   16.9750 C   0  0  0  0  0  0  0  0  0  0  0  0
   26.7630   20.2980   16.6570 C   0  0  0  0  0  0  0  0  0  0  0  0
   27.4450   20.9550   17.4380 O   0  0  0  0  0  0  0  0  0  0  0  0
   26.3720   20.8240   15.4520 N   0  0  0  0  0  0  0  0  0  0  0  0
   25.9050   20.1110   14.3760 C   0  0  0  0  0  0  0  0  0  0  0  0
   25.9380   20.5780   13.2380 O   0  0  0  0  0  0  0  0  0  0  0  0
   22.9840   16.0810   11.3060 C   0  0  0  0  0  0  0  0  0  0  0  0
   22.9490   15.5220   10.0220 C   0  0  0  0  0  0  0  0  0  0  0  0
   24.1330   15.2610    9.2840 C   0  0  0  0  0  0  0  0  0  0  0  0
   21.7700   16.5350    6.0920 C   0  0  0  0  0  0  0  0  0  0  0  0
   20.7490   17.3600    6.1840 N   0  0  0  0  0  0  0  0  0  0  0  0
   18.9504   19.6134    8.5356 H   0  0  0  0  0  0  0  0  0  0  0  0
   19.8320   19.3891    6.9867 H   0  0  0  0  0  0  0  0  0  0  0  0
   18.0430   19.5504    6.9867 H   0  0  0  0  0  0  0  0  0  0  0  0
   18.5550   17.4065    8.7293 H   0  0  0  0  0  0  0  0  0  0  0  0
   17.9588   17.3165    7.0158 H   0  0  0  0  0  0  0  0  0  0  0  0
   20.2370   15.2211    8.6889 H   0  0  0  0  0  0  0  0  0  0  0  0
   25.4413   14.0674    6.3665 H   0  0  0  0  0  0  0  0  0  0  0  0
   27.4913   15.6219    9.6826 H   0  0  0  0  0  0  0  0  0  0  0  0
   26.3557   16.4131   11.6487 H   0  0  0  0  0  0  0  0  0  0  0  0
   25.9294   18.1689   12.6840 H   0  0  0  0  0  0  0  0  0  0  0  0
   24.3200   18.7912   15.1051 H   0  0  0  0  0  0  0  0  0  0  0  0
   25.7971   17.0578   15.9730 H   0  0  0  0  0  0  0  0  0  0  0  0
   27.2315   17.9125   15.3111 H   0  0  0  0  0  0  0  0  0  0  0  0
   25.2821   18.9599   17.4232 H   0  0  0  0  0  0  0  0  0  0  0  0
   26.9977   18.4416   17.6751 H   0  0  0  0  0  0  0  0  0  0  0  0
   26.4345   21.8465   15.3449 H   0  0  0  0  0  0  0  0  0  0  0  0
   22.0456   16.2764   11.8456 H   0  0  0  0  0  0  0  0  0  0  0  0
   21.9751   15.2781    9.5724 H   0  0  0  0  0  0  0  0  0  0  0  0
   22.5622   16.5986    5.3315 H   0  0  0  0  0  0  0  0  0  0  0  0
  1  2  1  0
  2  3  1  0
  3  4  2  0
  4  5  1  0
  5  6  1  0
  6  7  2  0
  6  8  2  0
  6  9  1  0
  9 10  2  0
 10 11  1  0
 11 12  2  0
 12 13  1  0
 13 14  2  0
 14 15  1  0
 15 16  1  0
 16 17  2  0
 16 18  1  0
 18 19  1  0
 19 20  1  0
 20 21  1  0
 21 22  1  0
 22 23  2  0
 22 24  1  0
 24 25  1  0
 25 26  2  0
 15 27  2  0
 27 28  1  0
 28 29  2  0
  5 30  1  0
 30 31  2  0
 31  3  1  0
 29  9  1  0
 29 13  1  0
 25 19  1  0
  1 32  1  0
  1 33  1  0
  1 34  1  0
  2 35  1  0
  2 36  1  0
  4 37  1  0
 10 38  1  0
 12 39  1  0
 14 40  1  0
 18 41  1  0
 19 42  1  1
 20 43  1  0
 20 44  1  0
 21 45  1  0
 21 46  1  0
 24 47  1  0
 27 48  1  0
 28 49  1  0
 30 50  1  0
M  END
>  <meeko>  (819) 
{"is_sidechain": [true], "free_energy": -10.48, "intermolecular_energy": 0.0, "internal_energy": -10.48, "cluster_size": 17, "cluster_id": 1, "rank_in_cluster": 1}

>  <_RMSD_MCS_to_ref>  (819) 
0.7060177051604303

$$$$
ligand
     RDKit          3D

 50 53  0  0  0  0  0  0  0  0999 V2000
   18.9090   19.1540    7.5370 C   0  0  0  0  0  0  0  0  0  0  0  0
   18.7730   17.6460    7.6780 C   0  0  0  0  0  0  0  0  0  0  0  0
   20.0940   16.9630    7.6940 C   0  0  0  0  0  0  0  0  0  0  0  0
   20.8860   16.6290    8.7750 C   0  0  0  0  0  0  0  0  0  0  0  0
   21.9740   16.0200    8.2170 N   0  0  0  0  0  0  0  0  0  0  0  0
   23.2860   15.3940    9.0580 S   0  0  0  0  0  6  0  0  0  0  0  0
   23.5720   14.0870    8.5020 O   0  0  0  0  0  0  0  0  0  0  0  0
   24.2700   16.4630    9.0210 O   0  0  0  0  0  0  0  0  0  0  0  0
   22.8110   15.1910   10.7460 C   0  0  0  0  0  0  0  0  0  0  0  0
   23.5490   15.8950   11.7160 C   0  0  0  0  0  0  0  0  0  0  0  0
   23.2120   15.7730   13.0630 C   0  0  0  0  0  0  0  0  0  0  0  0
   23.9520   16.4850   14.1400 C   0  0  0  0  0  0  0  0  0  0  0  0
   24.3540   15.8680   15.1200 O   0  0  0  0  0  0  0  0  0  0  0  0
   24.1210   17.8420   13.9870 N   0  0  0  0  0  0  0  0  0  0  0  0
   24.7090   18.6470   15.0510 C   0  0  1  0  0  0  0  0  0  0  0  0
   25.8710   17.9350   15.7350 C   0  0  0  0  0  0  0  0  0  0  0  0
   26.4620   18.8420   16.8020 C   0  0  0  0  0  0  0  0  0  0  0  0
   26.8810   20.1740   16.2220 C   0  0  0  0  0  0  0  0  0  0  0  0
   27.8430   20.8050   16.6500 O   0  0  0  0  0  0  0  0  0  0  0  0
   26.1090   20.6700   15.2030 N   0  0  0  0  0  0  0  0  0  0  0  0
   25.2130   19.9600   14.4450 C   0  0  0  0  0  0  0  0  0  0  0  0
   24.8300   20.3750   13.3500 O   0  0  0  0  0  0  0  0  0  0  0  0
   22.1580   14.9290   13.4230 C   0  0  0  0  0  0  0  0  0  0  0  0
   21.4330   14.2240   12.4450 C   0  0  0  0  0  0  0  0  0  0  0  0
   20.3740   13.3820   12.8100 C   0  0  0  0  0  0  0  0  0  0  0  0
   19.6670   12.6920   11.8350 C   0  0  0  0  0  0  0  0  0  0  0  0
   20.0480   12.8670   10.5230 C   0  0  0  0  0  0  0  0  0  0  0  0
   21.0680   13.6680   10.1400 N   0  0  0  0  0  0  0  0  0  0  0  0
   21.7560   14.3460   11.0770 C   0  0  0  0  0  0  0  0  0  0  0  0
   21.8330   16.0060    6.8660 C   0  0  0  0  0  0  0  0  0  0  0  0
   20.6970   16.5730    6.5140 N   0  0  0  0  0  0  0  0  0  0  0  0
   18.9504   19.6134    8.5356 H   0  0  0  0  0  0  0  0  0  0  0  0
   19.8320   19.3891    6.9867 H   0  0  0  0  0  0  0  0  0  0  0  0
   18.0430   19.5504    6.9867 H   0  0  0  0  0  0  0  0  0  0  0  0
   18.2477   17.4239    8.6186 H   0  0  0  0  0  0  0  0  0  0  0  0
   18.2107   17.2744    6.8087 H   0  0  0  0  0  0  0  0  0  0  0  0
   20.6864   16.8116    9.8412 H   0  0  0  0  0  0  0  0  0  0  0  0
   24.3879   16.5385   11.4124 H   0  0  0  0  0  0  0  0  0  0  0  0
   23.8283   18.2950   13.1095 H   0  0  0  0  0  0  0  0  0  0  0  0
   23.9357   18.8287   15.8119 H   0  0  0  0  0  0  0  0  0  0  0  0
   25.5091   17.0070   16.2017 H   0  0  0  0  0  0  0  0  0  0  0  0
   26.6432   17.6931   14.9899 H   0  0  0  0  0  0  0  0  0  0  0  0
   25.7078   19.0133   17.5842 H   0  0  0  0  0  0  0  0  0  0  0  0
   27.3527   18.3504   17.2203 H   0  0  0  0  0  0  0  0  0  0  0  0
   26.2118   21.6716   14.9860 H   0  0  0  0  0  0  0  0  0  0  0  0
   21.8919   14.8145   14.4842 H   0  0  0  0  0  0  0  0  0  0  0  0
   20.1028   13.2678   13.8699 H   0  0  0  0  0  0  0  0  0  0  0  0
   18.8311   12.0282   12.1010 H   0  0  0  0  0  0  0  0  0  0  0  0
   19.4919   12.3253    9.7437 H   0  0  0  0  0  0  0  0  0  0  0  0
   22.5651   15.5806    6.1638 H   0  0  0  0  0  0  0  0  0  0  0  0
  1  2  1  0
  2  3  1  0
  3  4  2  0
  4  5  1  0
  5  6  1  0
  6  7  2  0
  6  8  2  0
  6  9  1  0
  9 10  2  0
 10 11  1  0
 11 12  1  0
 12 13  2  0
 12 14  1  0
 14 15  1  0
 15 16  1  0
 16 17  1  0
 17 18  1  0
 18 19  2  0
 18 20  1  0
 20 21  1  0
 21 22  2  0
 11 23  2  0
 23 24  1  0
 24 25  2  0
 25 26  1  0
 26 27  2  0
 27 28  1  0
 28 29  2  0
  5 30  1  0
 30 31  2  0
 31  3  1  0
 29  9  1  0
 21 15  1  0
 29 24  1  0
  1 32  1  0
  1 33  1  0
  1 34  1  0
  2 35  1  0
  2 36  1  0
  4 37  1  0
 10 38  1  0
 14 39  1  0
 15 40  1  1
 16 41  1  0
 16 42  1  0
 17 43  1  0
 17 44  1  0
 20 45  1  0
 23 46  1  0
 25 47  1  0
 26 48  1  0
 27 49  1  0
 30 50  1  0
M  END
>  <meeko>  (820) 
{"is_sidechain": [true], "free_energy": -10.48, "intermolecular_energy": 0.0, "internal_energy": -10.48, "cluster_size": 19, "cluster_id": 1, "rank_in_cluster": 1}

>  <_RMSD_MCS_to_ref>  (820) 
0.45185555705827574

$$$$
ligand
     RDKit          3D

 50 53  0  0  0  0  0  0  0  0999 V2000
   18.9090   19.1540    7.5370 C   0  0  0  0  0  0  0  0  0  0  0  0
   18.7730   17.6460    7.6780 C   0  0  0  0  0  0  0  0  0  0  0  0
   20.0930   16.9590    7.6650 C   0  0  0  0  0  0  0  0  0  0  0  0
   21.0150   16.8300    8.6850 C   0  0  0  0  0  0  0  0  0  0  0  0
   22.0380   16.1220    8.1240 N   0  0  0  0  0  0  0  0  0  0  0  0
   23.3400   15.4500    8.9480 S   0  0  0  0  0  6  0  0  0  0  0  0
   23.5460   14.1460    8.3460 O   0  0  0  0  0  0  0  0  0  0  0  0
   24.3730   16.4660    8.9710 O   0  0  0  0  0  0  0  0  0  0  0  0
   22.7320   15.2400   10.5860 C   0  0  0  0  0  0  0  0  0  0  0  0
   23.4060   15.8340   11.6600 C   0  0  0  0  0  0  0  0  0  0  0  0
   22.9220   15.6920   12.9800 C   0  0  0  0  0  0  0  0  0  0  0  0
   23.6730   16.3740   14.0710 C   0  0  0  0  0  0  0  0  0  0  0  0
   23.9770   15.7540   15.0830 O   0  0  0  0  0  0  0  0  0  0  0  0
   23.9660   17.7050   13.8850 N   0  0  0  0  0  0  0  0  0  0  0  0
   24.5560   18.5000   14.9550 C   0  0  1  0  0  0  0  0  0  0  0  0
   25.7050   17.7770   15.6500 C   0  0  0  0  0  0  0  0  0  0  0  0
   26.2990   18.6820   16.7190 C   0  0  0  0  0  0  0  0  0  0  0  0
   26.7360   20.0060   16.1370 C   0  0  0  0  0  0  0  0  0  0  0  0
   27.7140   20.6190   16.5520 O   0  0  0  0  0  0  0  0  0  0  0  0
   25.9620   20.5170   15.1250 N   0  0  0  0  0  0  0  0  0  0  0  0
   25.0810   19.8060   14.3510 C   0  0  0  0  0  0  0  0  0  0  0  0
   24.7320   20.2090   13.2420 O   0  0  0  0  0  0  0  0  0  0  0  0
   21.7520   14.9570   13.2300 C   0  0  0  0  0  0  0  0  0  0  0  0
   21.1110   14.3620   12.1540 C   0  0  0  0  0  0  0  0  0  0  0  0
   21.5990   14.4970   10.8530 C   0  0  0  0  0  0  0  0  0  0  0  0
   20.7700   13.7990    9.9860 N   0  0  0  0  0  0  0  0  0  0  0  0
   19.7220   13.1800   10.6560 C   0  0  0  0  0  0  0  0  0  0  0  0
   18.8520   12.4950   10.1480 O   0  0  0  0  0  0  0  0  0  0  0  0
   19.8660   13.5210   12.1410 C   0  0  0  0  0  0  0  0  0  0  0  0
   21.7150   15.8120    6.8420 C   0  0  0  0  0  0  0  0  0  0  0  0
   20.5400   16.3150    6.5270 N   0  0  0  0  0  0  0  0  0  0  0  0
   18.9504   19.6134    8.5356 H   0  0  0  0  0  0  0  0  0  0  0  0
   19.8320   19.3891    6.9867 H   0  0  0  0  0  0  0  0  0  0  0  0
   18.0430   19.5504    6.9867 H   0  0  0  0  0  0  0  0  0  0  0  0
   18.2671   17.4233    8.6290 H   0  0  0  0  0  0  0  0  0  0  0  0
   18.1920   17.2776    6.8197 H   0  0  0  0  0  0  0  0  0  0  0  0
   20.9416   17.2109    9.7144 H   0  0  0  0  0  0  0  0  0  0  0  0
   24.3205   16.4164   11.4745 H   0  0  0  0  0  0  0  0  0  0  0  0
   23.7656   18.1465   12.9763 H   0  0  0  0  0  0  0  0  0  0  0  0
   23.7791   18.6874   15.7108 H   0  0  0  0  0  0  0  0  0  0  0  0
   25.3291   16.8549   16.1173 H   0  0  0  0  0  0  0  0  0  0  0  0
   26.4797   17.5235   14.9114 H   0  0  0  0  0  0  0  0  0  0  0  0
   25.5414   18.8645   17.4953 H   0  0  0  0  0  0  0  0  0  0  0  0
   27.1812   18.1824   17.1457 H   0  0  0  0  0  0  0  0  0  0  0  0
   26.0508   21.5244   14.9295 H   0  0  0  0  0  0  0  0  0  0  0  0
   21.3550   14.8560   14.2509 H   0  0  0  0  0  0  0  0  0  0  0  0
   20.9144   13.7462    8.9675 H   0  0  0  0  0  0  0  0  0  0  0  0
   18.9974   14.0887   12.5060 H   0  0  0  0  0  0  0  0  0  0  0  0
   19.9231   12.6373   12.7935 H   0  0  0  0  0  0  0  0  0  0  0  0
   22.3472   15.2227    6.1615 H   0  0  0  0  0  0  0  0  0  0  0  0
  1  2  1  0
  2  3  1  0
  3  4  2  0
  4  5  1  0
  5  6  1  0
  6  7  2  0
  6  8  2  0
  6  9  1  0
  9 10  2  0
 10 11  1  0
 11 12  1  0
 12 13  2  0
 12 14  1  0
 14 15  1  0
 15 16  1  0
 16 17  1  0
 17 18  1  0
 18 19  2  0
 18 20  1  0
 20 21  1  0
 21 22  2  0
 11 23  2  0
 23 24  1  0
 24 25  2  0
 25 26  1  0
 26 27  1  0
 27 28  2  0
 27 29  1  0
  5 30  1  0
 30 31  2  0
 31  3  1  0
 25  9  1  0
 21 15  1  0
 29 24  1  0
  1 32  1  0
  1 33  1  0
  1 34  1  0
  2 35  1  0
  2 36  1  0
  4 37  1  0
 10 38  1  0
 14 39  1  0
 15 40  1  1
 16 41  1  0
 16 42  1  0
 17 43  1  0
 17 44  1  0
 20 45  1  0
 23 46  1  0
 26 47  1  0
 29 48  1  0
 29 49  1  0
 30 50  1  0
M  END
>  <meeko>  (821) 
{"is_sidechain": [true], "free_energy": -10.48, "intermolecular_energy": 0.0, "internal_energy": -10.48, "cluster_size": 17, "cluster_id": 2, "rank_in_cluster": 1}

>  <_RMSD_MCS_to_ref>  (821) 
0.32874990494295186

$$$$
ligand
     RDKit          3D

 44 46  0  0  0  0  0  0  0  0999 V2000
   18.9090   19.1540    7.5370 C   0  0  0  0  0  0  0  0  0  0  0  0
   18.7730   17.6460    7.6780 C   0  0  0  0  0  0  0  0  0  0  0  0
   20.0620   16.9410    7.4430 C   0  0  0  0  0  0  0  0  0  0  0  0
   20.9090   16.3490    8.3580 C   0  0  0  0  0  0  0  0  0  0  0  0
   21.9460   15.8810    7.6030 N   0  0  0  0  0  0  0  0  0  0  0  0
   23.1740   14.8680    8.1380 S   0  0  0  0  0  6  0  0  0  0  0  0
   24.3370   15.1960    7.3370 O   0  0  0  0  0  0  0  0  0  0  0  0
   22.6030   13.5370    8.1720 O   0  0  0  0  0  0  0  0  0  0  0  0
   23.4620   15.4000    9.7880 C   0  0  0  0  0  0  0  0  0  0  0  0
   22.7430   14.8650   10.8570 C   0  0  0  0  0  0  0  0  0  0  0  0
   23.0160   15.3220   12.1440 C   0  0  0  0  0  0  0  0  0  0  0  0
   24.0020   16.2880   12.3060 C   0  0  0  0  0  0  0  0  0  0  0  0
   24.3210   16.8140   13.6720 C   0  0  0  0  0  0  0  0  0  0  0  0
   23.9730   16.2210   14.6870 O   0  0  0  0  0  0  0  0  0  0  0  0
   25.0110   18.0050   13.6820 N   0  0  0  0  0  0  0  0  0  0  0  0
   25.2680   18.7500   14.8990 C   0  0  1  0  0  0  0  0  0  0  0  0
   26.2910   18.0530   15.7900 C   0  0  0  0  0  0  0  0  0  0  0  0
   26.5330   18.8880   17.0370 C   0  0  0  0  0  0  0  0  0  0  0  0
   26.9630   20.2910   16.6810 C   0  0  0  0  0  0  0  0  0  0  0  0
   27.7430   20.9370   17.3750 O   0  0  0  0  0  0  0  0  0  0  0  0
   26.4120   20.8360   15.5490 N   0  0  0  0  0  0  0  0  0  0  0  0
   25.7890   20.1450   14.5380 C   0  0  0  0  0  0  0  0  0  0  0  0
   25.6500   20.6490   13.4230 O   0  0  0  0  0  0  0  0  0  0  0  0
   24.7240   16.8140   11.2720 N   0  0  0  0  0  0  0  0  0  0  0  0
   24.4430   16.3470   10.0340 C   0  0  0  0  0  0  0  0  0  0  0  0
   21.6970   16.1440    6.2940 C   0  0  0  0  0  0  0  0  0  0  0  0
   20.5610   16.7950    6.1630 N   0  0  0  0  0  0  0  0  0  0  0  0
   18.9504   19.6134    8.5356 H   0  0  0  0  0  0  0  0  0  0  0  0
   19.8320   19.3891    6.9867 H   0  0  0  0  0  0  0  0  0  0  0  0
   18.0430   19.5504    6.9867 H   0  0  0  0  0  0  0  0  0  0  0  0
   18.4234   17.4154    8.6952 H   0  0  0  0  0  0  0  0  0  0  0  0
   18.0554   17.2993    6.9198 H   0  0  0  0  0  0  0  0  0  0  0  0
   20.7783   16.2718    9.4475 H   0  0  0  0  0  0  0  0  0  0  0  0
   21.9747   14.0965   10.6866 H   0  0  0  0  0  0  0  0  0  0  0  0
   22.4649   14.9282   13.0107 H   0  0  0  0  0  0  0  0  0  0  0  0
   25.3588   18.3822   12.7889 H   0  0  0  0  0  0  0  0  0  0  0  0
   24.3220   18.8186   15.4561 H   0  0  0  0  0  0  0  0  0  0  0  0
   25.9095   17.0630   16.0805 H   0  0  0  0  0  0  0  0  0  0  0  0
   27.2360   17.9360   15.2393 H   0  0  0  0  0  0  0  0  0  0  0  0
   25.6031   18.9357   17.6227 H   0  0  0  0  0  0  0  0  0  0  0  0
   27.3363   18.4157   17.6214 H   0  0  0  0  0  0  0  0  0  0  0  0
   26.4709   21.8593   15.4475 H   0  0  0  0  0  0  0  0  0  0  0  0
   25.0203   16.7373    9.1828 H   0  0  0  0  0  0  0  0  0  0  0  0
   22.3530   15.8535    5.4602 H   0  0  0  0  0  0  0  0  0  0  0  0
  1  2  1  0
  2  3  1  0
  3  4  2  0
  4  5  1  0
  5  6  1  0
  6  7  2  0
  6  8  2  0
  6  9  1  0
  9 10  2  0
 10 11  1  0
 11 12  2  0
 12 13  1  0
 13 14  2  0
 13 15  1  0
 15 16  1  0
 16 17  1  0
 17 18  1  0
 18 19  1  0
 19 20  2  0
 19 21  1  0
 21 22  1  0
 22 23  2  0
 12 24  1  0
 24 25  2  0
  5 26  1  0
 26 27  2  0
 27  3  1  0
 25  9  1  0
 22 16  1  0
  1 28  1  0
  1 29  1  0
  1 30  1  0
  2 31  1  0
  2 32  1  0
  4 33  1  0
 10 34  1  0
 11 35  1  0
 15 36  1  0
 16 37  1  1
 17 38  1  0
 17 39  1  0
 18 40  1  0
 18 41  1  0
 21 42  1  0
 25 43  1  0
 26 44  1  0
M  END
>  <meeko>  (822) 
{"is_sidechain": [true], "free_energy": -10.48, "intermolecular_energy": 0.0, "internal_energy": -10.48, "cluster_size": 17, "cluster_id": 1, "rank_in_cluster": 1}

>  <_RMSD_MCS_to_ref>  (822) 
0.6672509939212447

$$$$
ligand
     RDKit          3D

 52 55  0  0  0  0  0  0  0  0999 V2000
   18.9090   19.1540    7.5370 C   0  0  0  0  0  0  0  0  0  0  0  0
   18.7730   17.6460    7.6780 C   0  0  0  0  0  0  0  0  0  0  0  0
   20.0950   16.9630    7.7100 C   0  0  0  0  0  0  0  0  0  0  0  0
   20.9800   16.8350    8.7610 C   0  0  0  0  0  0  0  0  0  0  0  0
   22.0300   16.1370    8.2340 N   0  0  0  0  0  0  0  0  0  0  0  0
   23.3530   15.5650    9.0950 S   0  0  0  0  0  6  0  0  0  0  0  0
   24.2690   16.6940    9.1300 O   0  0  0  0  0  0  0  0  0  0  0  0
   23.7290   14.3010    8.4870 O   0  0  0  0  0  0  0  0  0  0  0  0
   22.7110   15.2740   10.7260 C   0  0  0  0  0  0  0  0  0  0  0  0
   23.4710   15.8340   11.7070 N   0  0  0  0  0  0  0  0  0  0  0  0
   23.0210   15.6670   12.9750 C   0  0  0  0  0  0  0  0  0  0  0  0
   23.8350   16.3180   14.0500 C   0  0  0  0  0  0  0  0  0  0  0  0
   24.0800   15.7460   15.1060 O   0  0  0  0  0  0  0  0  0  0  0  0
   24.2510   17.6010   13.7470 N   0  0  0  0  0  0  0  0  0  0  0  0
   24.6930   18.5040   14.7930 C   0  0  1  0  0  0  0  0  0  0  0  0
   25.8060   17.8740   15.6200 C   0  0  0  0  0  0  0  0  0  0  0  0
   26.2450   18.8460   16.7030 C   0  0  0  0  0  0  0  0  0  0  0  0
   26.6600   20.1740   16.1140 C   0  0  0  0  0  0  0  0  0  0  0  0
   27.5570   20.8560   16.6000 O   0  0  0  0  0  0  0  0  0  0  0  0
   25.9620   20.6040   15.0140 N   0  0  0  0  0  0  0  0  0  0  0  0
   25.2130   19.8130   14.1750 C   0  0  0  0  0  0  0  0  0  0  0  0
   24.9930   20.1640   13.0170 O   0  0  0  0  0  0  0  0  0  0  0  0
   21.8640   14.9660   13.2960 C   0  0  0  0  0  0  0  0  0  0  0  0
   21.1140   14.3920   12.2610 C   0  0  0  0  0  0  0  0  0  0  0  0
   21.5340   14.5650   10.9370 C   0  0  0  0  0  0  0  0  0  0  0  0
   20.8600   14.0450    9.8740 O   0  0  0  0  0  0  0  0  0  0  0  0
   19.5120   13.6360   10.1370 C   0  0  0  0  0  0  0  0  0  0  0  0
   19.4180   12.7920   11.3950 C   0  0  0  0  0  0  0  0  0  0  0  0
   19.8580   13.6330   12.5850 C   0  0  0  0  0  0  0  0  0  0  0  0
   21.7660   15.8540    6.9320 C   0  0  0  0  0  0  0  0  0  0  0  0
   20.5920   16.3370    6.5830 N   0  0  0  0  0  0  0  0  0  0  0  0
   18.9504   19.6134    8.5356 H   0  0  0  0  0  0  0  0  0  0  0  0
   19.8320   19.3891    6.9867 H   0  0  0  0  0  0  0  0  0  0  0  0
   18.0430   19.5504    6.9867 H   0  0  0  0  0  0  0  0  0  0  0  0
   18.2371   17.4245    8.6127 H   0  0  0  0  0  0  0  0  0  0  0  0
   18.2214   17.2733    6.8023 H   0  0  0  0  0  0  0  0  0  0  0  0
   20.8662   17.2096    9.7890 H   0  0  0  0  0  0  0  0  0  0  0  0
   24.2471   17.9195   12.7675 H   0  0  0  0  0  0  0  0  0  0  0  0
   23.8325   18.7123   15.4458 H   0  0  0  0  0  0  0  0  0  0  0  0
   25.4375   16.9481   16.0858 H   0  0  0  0  0  0  0  0  0  0  0  0
   26.6607   17.6414   14.9677 H   0  0  0  0  0  0  0  0  0  0  0  0
   25.4088   19.0084   17.3990 H   0  0  0  0  0  0  0  0  0  0  0  0
   27.1098   18.4136   17.2275 H   0  0  0  0  0  0  0  0  0  0  0  0
   26.0027   21.6101   14.7971 H   0  0  0  0  0  0  0  0  0  0  0  0
   21.5433   14.8639   14.3433 H   0  0  0  0  0  0  0  0  0  0  0  0
   18.8852   14.5315   10.2606 H   0  0  0  0  0  0  0  0  0  0  0  0
   19.1660   13.0274    9.2885 H   0  0  0  0  0  0  0  0  0  0  0  0
   18.3794   12.4603   11.5407 H   0  0  0  0  0  0  0  0  0  0  0  0
   20.0671   11.9089   11.3015 H   0  0  0  0  0  0  0  0  0  0  0  0
   19.0598   14.3462   12.8384 H   0  0  0  0  0  0  0  0  0  0  0  0
   20.0567   12.9657   13.4366 H   0  0  0  0  0  0  0  0  0  0  0  0
   22.4393   15.2986    6.2625 H   0  0  0  0  0  0  0  0  0  0  0  0
  1  2  1  0
  2  3  1  0
  3  4  2  0
  4  5  1  0
  5  6  1  0
  6  7  2  0
  6  8  2  0
  6  9  1  0
  9 10  2  0
 10 11  1  0
 11 12  1  0
 12 13  2  0
 12 14  1  0
 14 15  1  0
 15 16  1  0
 16 17  1  0
 17 18  1  0
 18 19  2  0
 18 20  1  0
 20 21  1  0
 21 22  2  0
 11 23  2  0
 23 24  1  0
 24 25  2  0
 25 26  1  0
 26 27  1  0
 27 28  1  0
 28 29  1  0
  5 30  1  0
 30 31  2  0
 31  3  1  0
 25  9  1  0
 21 15  1  0
 29 24  1  0
  1 32  1  0
  1 33  1  0
  1 34  1  0
  2 35  1  0
  2 36  1  0
  4 37  1  0
 14 38  1  0
 15 39  1  1
 16 40  1  0
 16 41  1  0
 17 42  1  0
 17 43  1  0
 20 44  1  0
 23 45  1  0
 27 46  1  0
 27 47  1  0
 28 48  1  0
 28 49  1  0
 29 50  1  0
 29 51  1  0
 30 52  1  0
M  END
>  <meeko>  (823) 
{"is_sidechain": [true], "free_energy": -10.48, "intermolecular_energy": 0.0, "internal_energy": -10.48, "cluster_size": 20, "cluster_id": 1, "rank_in_cluster": 1}

>  <_RMSD_MCS_to_ref>  (823) 
0.3883597988120461

$$$$
ligand
     RDKit          3D

 51 54  0  0  0  0  0  0  0  0999 V2000
   18.9090   19.1540    7.5370 C   0  0  0  0  0  0  0  0  0  0  0  0
   18.7730   17.6460    7.6780 C   0  0  0  0  0  0  0  0  0  0  0  0
   19.8690   16.9160    6.9850 C   0  0  0  0  0  0  0  0  0  0  0  0
   21.1980   16.8030    7.3410 C   0  0  0  0  0  0  0  0  0  0  0  0
   21.7480   16.0450    6.3470 N   0  0  0  0  0  0  0  0  0  0  0  0
   23.2930   15.3840    6.3480 S   0  0  0  0  0  6  0  0  0  0  0  0
   23.2410   14.2750    5.4160 O   0  0  0  0  0  0  0  0  0  0  0  0
   24.2100   16.4940    6.1870 O   0  0  0  0  0  0  0  0  0  0  0  0
   23.4780   14.7410    7.9900 C   0  0  0  0  0  0  0  0  0  0  0  0
   23.2780   13.3780    8.2320 C   0  0  0  0  0  0  0  0  0  0  0  0
   23.4290   12.8720    9.5270 C   0  0  0  0  0  0  0  0  0  0  0  0
   23.7750   13.7230   10.5810 C   0  0  0  0  0  0  0  0  0  0  0  0
   23.9590   13.2300   11.8770 N   0  0  0  0  0  0  0  0  0  0  0  0
   24.2810   14.0710   12.9120 C   0  0  0  0  0  0  0  0  0  0  0  0
   24.5010   15.3920   12.8010 C   0  0  0  0  0  0  0  0  0  0  0  0
   24.8430   16.1600   14.0300 C   0  0  0  0  0  0  0  0  0  0  0  0
   24.9980   15.6100   15.1180 O   0  0  0  0  0  0  0  0  0  0  0  0
   24.9660   17.5140   13.8700 N   0  0  0  0  0  0  0  0  0  0  0  0
   25.2400   18.4090   14.9810 C   0  0  1  0  0  0  0  0  0  0  0  0
   26.3330   17.8530   15.8890 C   0  0  0  0  0  0  0  0  0  0  0  0
   26.5880   18.8220   17.0320 C   0  0  0  0  0  0  0  0  0  0  0  0
   26.9360   20.1980   16.5160 C   0  0  0  0  0  0  0  0  0  0  0  0
   27.7000   20.9510   17.1140 O   0  0  0  0  0  0  0  0  0  0  0  0
   26.3240   20.5910   15.3520 N   0  0  0  0  0  0  0  0  0  0  0  0
   25.6720   19.7820   14.4530 C   0  0  0  0  0  0  0  0  0  0  0  0
   25.4370   20.1760   13.3120 O   0  0  0  0  0  0  0  0  0  0  0  0
   24.3780   15.9840   11.4390 C   0  0  0  0  0  0  0  0  0  0  0  0
   24.5760   17.1780   11.2310 O   0  0  0  0  0  0  0  0  0  0  0  0
   23.9930   15.0860   10.3170 C   0  0  0  0  0  0  0  0  0  0  0  0
   23.8490   15.6020    9.0240 C   0  0  0  0  0  0  0  0  0  0  0  0
   20.7760   15.6890    5.4680 C   0  0  0  0  0  0  0  0  0  0  0  0
   19.6200   16.2100    5.8230 N   0  0  0  0  0  0  0  0  0  0  0  0
   18.9504   19.6134    8.5356 H   0  0  0  0  0  0  0  0  0  0  0  0
   19.8320   19.3891    6.9867 H   0  0  0  0  0  0  0  0  0  0  0  0
   18.0430   19.5504    6.9867 H   0  0  0  0  0  0  0  0  0  0  0  0
   18.7949   17.3866    8.7468 H   0  0  0  0  0  0  0  0  0  0  0  0
   17.8217   17.3476    7.2133 H   0  0  0  0  0  0  0  0  0  0  0  0
   21.6994   17.2267    8.2236 H   0  0  0  0  0  0  0  0  0  0  0  0
   23.0027   12.7058    7.4059 H   0  0  0  0  0  0  0  0  0  0  0  0
   23.2748   11.7996    9.7172 H   0  0  0  0  0  0  0  0  0  0  0  0
   23.8512   12.2216   12.0568 H   0  0  0  0  0  0  0  0  0  0  0  0
   24.3661   13.6276   13.9151 H   0  0  0  0  0  0  0  0  0  0  0  0
   24.8603   17.9132   12.9264 H   0  0  0  0  0  0  0  0  0  0  0  0
   24.3151   18.5060   15.5684 H   0  0  0  0  0  0  0  0  0  0  0  0
   26.0123   16.8828   16.2962 H   0  0  0  0  0  0  0  0  0  0  0  0
   27.2581   17.7210   15.3086 H   0  0  0  0  0  0  0  0  0  0  0  0
   25.6826   18.8903   17.6529 H   0  0  0  0  0  0  0  0  0  0  0  0
   27.4369   18.4472   17.6227 H   0  0  0  0  0  0  0  0  0  0  0  0
   26.3569   21.5961   15.1295 H   0  0  0  0  0  0  0  0  0  0  0  0
   24.0255   16.6695    8.8258 H   0  0  0  0  0  0  0  0  0  0  0  0
   20.9325   15.0543    4.5833 H   0  0  0  0  0  0  0  0  0  0  0  0
  1  2  1  0
  2  3  1  0
  3  4  2  0
  4  5  1  0
  5  6  1  0
  6  7  2  0
  6  8  2  0
  6  9  1  0
  9 10  2  0
 10 11  1  0
 11 12  2  0
 12 13  1  0
 13 14  1  0
 14 15  2  0
 15 16  1  0
 16 17  2  0
 16 18  1  0
 18 19  1  0
 19 20  1  0
 20 21  1  0
 21 22  1  0
 22 23  2  0
 22 24  1  0
 24 25  1  0
 25 26  2  0
 15 27  1  0
 27 28  2  0
 27 29  1  0
 29 30  2  0
  5 31  1  0
 31 32  2  0
 32  3  1  0
 30  9  1  0
 29 12  1  0
 25 19  1  0
  1 33  1  0
  1 34  1  0
  1 35  1  0
  2 36  1  0
  2 37  1  0
  4 38  1  0
 10 39  1  0
 11 40  1  0
 13 41  1  0
 14 42  1  0
 18 43  1  0
 19 44  1  1
 20 45  1  0
 20 46  1  0
 21 47  1  0
 21 48  1  0
 24 49  1  0
 30 50  1  0
 31 51  1  0
M  END
>  <meeko>  (824) 
{"is_sidechain": [true], "free_energy": -10.48, "intermolecular_energy": 0.0, "internal_energy": -10.48, "cluster_size": 20, "cluster_id": 1, "rank_in_cluster": 1}

>  <_RMSD_MCS_to_ref>  (824) 
0.5012251656358313

$$$$
ligand
     RDKit          3D

 51 54  0  0  0  0  0  0  0  0999 V2000
   18.7970   18.8170    7.7190 C   0  0  0  0  0  0  0  0  0  0  0  0
   18.5280   17.3290    7.8810 C   0  0  0  0  0  0  0  0  0  0  0  0
   19.7700   16.5590    8.1580 C   0  0  0  0  0  0  0  0  0  0  0  0
   20.4030   16.3390    9.3650 C   0  0  0  0  0  0  0  0  0  0  0  0
   21.4900   15.5830    9.0420 N   0  0  0  0  0  0  0  0  0  0  0  0
   22.7150   15.0840   10.0660 S   0  0  0  0  0  6  0  0  0  0  0  0
   23.6560   16.1830   10.1050 O   0  0  0  0  0  0  0  0  0  0  0  0
   23.1250   13.7540    9.6670 O   0  0  0  0  0  0  0  0  0  0  0  0
   22.1400   14.9210   11.6700 C   0  0  0  0  0  0  0  0  0  0  0  0
   22.7500   15.4040   12.8520 C   0  0  0  0  0  0  0  0  0  0  0  0
   24.0530   16.0630   13.0250 C   0  0  0  0  0  0  0  0  0  0  0  0
   24.9650   15.9740   12.2130 O   0  0  0  0  0  0  0  0  0  0  0  0
   24.1640   16.7610   14.2030 N   0  0  0  0  0  0  0  0  0  0  0  0
   25.3010   17.6060   14.5130 C   0  0  2  0  0  0  0  0  0  0  0  0
   25.7120   17.4990   15.9780 C   0  0  0  0  0  0  0  0  0  0  0  0
   26.8890   18.4260   16.2440 C   0  0  0  0  0  0  0  0  0  0  0  0
   26.5650   19.8490   15.8520 C   0  0  0  0  0  0  0  0  0  0  0  0
   27.0090   20.8170   16.4600 O   0  0  0  0  0  0  0  0  0  0  0  0
   25.7650   20.0150   14.7490 N   0  0  0  0  0  0  0  0  0  0  0  0
   24.9420   19.0620   14.1990 C   0  0  0  0  0  0  0  0  0  0  0  0
   23.9900   19.3820   13.4890 O   0  0  0  0  0  0  0  0  0  0  0  0
   21.9550   15.1720   13.9210 N   0  0  0  0  0  0  0  0  0  0  0  0
   20.8920   14.5190   13.4130 N   0  0  0  0  0  0  0  0  0  0  0  0
   20.9680   14.3070   12.0690 C   0  0  0  0  0  0  0  0  0  0  0  0
   19.7020   13.4310   11.2510 S   0  0  0  0  0  6  0  0  0  0  0  0
   20.3490   12.3380   10.5730 O   0  0  0  0  0  0  0  0  0  0  0  0
   18.8860   14.4360   10.6200 O   0  0  0  0  0  0  0  0  0  0  0  0
   18.7780   12.7750   12.5110 N   0  0  0  0  0  0  0  0  0  0  0  0
   18.5370   13.7330   13.6120 C   0  0  0  0  0  0  0  0  0  0  0  0
   19.8510   14.0580   14.3200 C   0  0  0  0  0  0  0  0  0  0  0  0
   21.4920   15.3540    7.7030 C   0  0  0  0  0  0  0  0  0  0  0  0
   20.4640   15.9480    7.1320 N   0  0  0  0  0  0  0  0  0  0  0  0
   18.8815   19.2845    8.7111 H   0  0  0  0  0  0  0  0  0  0  0  0
   19.7359   18.9616    7.1643 H   0  0  0  0  0  0  0  0  0  0  0  0
   17.9682   19.2812    7.1643 H   0  0  0  0  0  0  0  0  0  0  0  0
   17.8282   17.1848    8.7173 H   0  0  0  0  0  0  0  0  0  0  0  0
   18.1052   16.9580    6.9357 H   0  0  0  0  0  0  0  0  0  0  0  0
   20.0991   16.6934   10.3610 H   0  0  0  0  0  0  0  0  0  0  0  0
   23.4065   16.6806   14.8963 H   0  0  0  0  0  0  0  0  0  0  0  0
   26.1494   17.2690   13.8993 H   0  0  0  0  0  0  0  0  0  0  0  0
   24.8656   17.7882   16.6183 H   0  0  0  0  0  0  0  0  0  0  0  0
   26.0040   16.4624   16.2020 H   0  0  0  0  0  0  0  0  0  0  0  0
   27.1337   18.3963   17.3160 H   0  0  0  0  0  0  0  0  0  0  0  0
   27.7434   18.0851   15.6409 H   0  0  0  0  0  0  0  0  0  0  0  0
   25.7833   20.9379   14.2920 H   0  0  0  0  0  0  0  0  0  0  0  0
   17.8684   12.4774   12.1302 H   0  0  0  0  0  0  0  0  0  0  0  0
   18.1059   14.6582   13.2018 H   0  0  0  0  0  0  0  0  0  0  0  0
   17.8394   13.2841   14.3345 H   0  0  0  0  0  0  0  0  0  0  0  0
   19.6617   14.8456   15.0642 H   0  0  0  0  0  0  0  0  0  0  0  0
   20.2106   13.1282   14.7850 H   0  0  0  0  0  0  0  0  0  0  0  0
   22.2463   14.7564    7.1702 H   0  0  0  0  0  0  0  0  0  0  0  0
  1  2  1  0
  2  3  1  0
  3  4  2  0
  4  5  1  0
  5  6  1  0
  6  7  2  0
  6  8  2  0
  6  9  1  0
  9 10  1  0
 10 11  1  0
 11 12  2  0
 11 13  1  0
 13 14  1  0
 14 15  1  0
 15 16  1  0
 16 17  1  0
 17 18  2  0
 17 19  1  0
 19 20  1  0
 20 21  2  0
 10 22  2  0
 22 23  1  0
 23 24  1  0
 24 25  1  0
 25 26  2  0
 25 27  2  0
 25 28  1  0
 28 29  1  0
 29 30  1  0
  5 31  1  0
 31 32  2  0
 32  3  1  0
 24  9  2  0
 20 14  1  0
 30 23  1  0
  1 33  1  0
  1 34  1  0
  1 35  1  0
  2 36  1  0
  2 37  1  0
  4 38  1  0
 13 39  1  0
 14 40  1  6
 15 41  1  0
 15 42  1  0
 16 43  1  0
 16 44  1  0
 19 45  1  0
 28 46  1  0
 29 47  1  0
 29 48  1  0
 30 49  1  0
 30 50  1  0
 31 51  1  0
M  END
>  <meeko>  (825) 
{"is_sidechain": [true], "free_energy": -10.47, "intermolecular_energy": 0.0, "internal_energy": -10.47, "cluster_size": 14, "cluster_id": 1, "rank_in_cluster": 1}

>  <_RMSD_MCS_to_ref>  (825) 
0.894619347978668

$$$$
ligand
     RDKit          3D

 50 53  0  0  0  0  0  0  0  0999 V2000
   18.7970   18.8170    7.7190 C   0  0  0  0  0  0  0  0  0  0  0  0
   18.5280   17.3290    7.8810 C   0  0  0  0  0  0  0  0  0  0  0  0
   19.7820   16.5280    7.8590 C   0  0  0  0  0  0  0  0  0  0  0  0
   20.6780   16.2910    8.8830 C   0  0  0  0  0  0  0  0  0  0  0  0
   21.6340   15.4940    8.3170 N   0  0  0  0  0  0  0  0  0  0  0  0
   23.1270   15.1270    9.0060 S   0  0  0  0  0  6  0  0  0  0  0  0
   24.0170   16.1820    8.5890 O   0  0  0  0  0  0  0  0  0  0  0  0
   23.3730   13.7360    8.6760 O   0  0  0  0  0  0  0  0  0  0  0  0
   22.8090   15.2040   10.7420 C   0  0  0  0  0  0  0  0  0  0  0  0
   23.5480   16.1170   11.5150 C   0  0  0  0  0  0  0  0  0  0  0  0
   23.3600   16.1920   12.9100 C   0  0  0  0  0  0  0  0  0  0  0  0
   24.1420   17.1360   13.7580 C   0  0  0  0  0  0  0  0  0  0  0  0
   23.5630   17.9670   14.4470 O   0  0  0  0  0  0  0  0  0  0  0  0
   25.5100   16.9890   13.7450 N   0  0  0  0  0  0  0  0  0  0  0  0
   26.3590   17.7520   14.6520 C   0  0  2  0  0  0  0  0  0  0  0  0
   25.9170   17.6290   16.1070 C   0  0  0  0  0  0  0  0  0  0  0  0
   26.8130   18.4920   16.9820 C   0  0  0  0  0  0  0  0  0  0  0  0
   26.8220   19.9290   16.5130 C   0  0  0  0  0  0  0  0  0  0  0  0
   26.9240   20.8750   17.2890 O   0  0  0  0  0  0  0  0  0  0  0  0
   26.7400   20.1340   15.1600 N   0  0  0  0  0  0  0  0  0  0  0  0
   26.2930   19.2250   14.2350 C   0  0  0  0  0  0  0  0  0  0  0  0
   25.8730   19.5810   13.1330 O   0  0  0  0  0  0  0  0  0  0  0  0
   22.4090   15.3750   13.5380 C   0  0  0  0  0  0  0  0  0  0  0  0
   21.6680   14.4890   12.7680 C   0  0  0  0  0  0  0  0  0  0  0  0
   21.8670   14.4260   11.3860 C   0  0  0  0  0  0  0  0  0  0  0  0
   20.7960   13.2190   10.7160 S   0  0  0  0  0  6  0  0  0  0  0  0
   19.7810   13.8960    9.9400 O   0  0  0  0  0  0  0  0  0  0  0  0
   21.6210   12.1350   10.2320 O   0  0  0  0  0  0  0  0  0  0  0  0
   20.1380   12.8050   12.2720 C   0  0  0  0  0  0  0  0  0  0  0  0
   20.6650   13.5480   13.2560 C   0  0  0  0  0  0  0  0  0  0  0  0
   21.3290   15.2960    7.0090 C   0  0  0  0  0  0  0  0  0  0  0  0
   20.2060   15.9130    6.6990 N   0  0  0  0  0  0  0  0  0  0  0  0
   18.8815   19.2845    8.7111 H   0  0  0  0  0  0  0  0  0  0  0  0
   19.7359   18.9616    7.1643 H   0  0  0  0  0  0  0  0  0  0  0  0
   17.9682   19.2812    7.1643 H   0  0  0  0  0  0  0  0  0  0  0  0
   18.0180   17.1632    8.8414 H   0  0  0  0  0  0  0  0  0  0  0  0
   17.9033   17.0037    7.0361 H   0  0  0  0  0  0  0  0  0  0  0  0
   20.6328   16.6596    9.9184 H   0  0  0  0  0  0  0  0  0  0  0  0
   24.2790   16.7783   11.0269 H   0  0  0  0  0  0  0  0  0  0  0  0
   25.9417   16.3285   13.0830 H   0  0  0  0  0  0  0  0  0  0  0  0
   27.3818   17.3526   14.5855 H   0  0  0  0  0  0  0  0  0  0  0  0
   24.8746   17.9666   16.2036 H   0  0  0  0  0  0  0  0  0  0  0  0
   25.9927   16.5791   16.4264 H   0  0  0  0  0  0  0  0  0  0  0  0
   26.4442   18.4557   18.0177 H   0  0  0  0  0  0  0  0  0  0  0  0
   27.8391   18.1007   16.9195 H   0  0  0  0  0  0  0  0  0  0  0  0
   27.0411   21.0533   14.8062 H   0  0  0  0  0  0  0  0  0  0  0  0
   22.2524   15.4353   14.6251 H   0  0  0  0  0  0  0  0  0  0  0  0
   19.3786   12.0251   12.4303 H   0  0  0  0  0  0  0  0  0  0  0  0
   20.3738   13.4582   14.3130 H   0  0  0  0  0  0  0  0  0  0  0  0
   21.9339   14.7039    6.3065 H   0  0  0  0  0  0  0  0  0  0  0  0
  1  2  1  0
  2  3  1  0
  3  4  2  0
  4  5  1  0
  5  6  1  0
  6  7  2  0
  6  8  2  0
  6  9  1  0
  9 10  2  0
 10 11  1  0
 11 12  1  0
 12 13  2  0
 12 14  1  0
 14 15  1  0
 15 16  1  0
 16 17  1  0
 17 18  1  0
 18 19  2  0
 18 20  1  0
 20 21  1  0
 21 22  2  0
 11 23  2  0
 23 24  1  0
 24 25  2  0
 25 26  1  0
 26 27  2  0
 26 28  2  0
 26 29  1  0
 29 30  2  0
  5 31  1  0
 31 32  2  0
 32  3  1  0
 25  9  1  0
 21 15  1  0
 30 24  1  0
  1 33  1  0
  1 34  1  0
  1 35  1  0
  2 36  1  0
  2 37  1  0
  4 38  1  0
 10 39  1  0
 14 40  1  0
 15 41  1  1
 16 42  1  0
 16 43  1  0
 17 44  1  0
 17 45  1  0
 20 46  1  0
 23 47  1  0
 29 48  1  0
 30 49  1  0
 31 50  1  0
M  END
>  <meeko>  (826) 
{"is_sidechain": [true], "free_energy": -10.47, "intermolecular_energy": 0.0, "internal_energy": -10.47, "cluster_size": 16, "cluster_id": 1, "rank_in_cluster": 1}

>  <_RMSD_MCS_to_ref>  (826) 
0.8542787731310094

$$$$
ligand
     RDKit          3D

 54 58  0  0  0  0  0  0  0  0999 V2000
   18.7970   18.8170    7.7190 C   0  0  0  0  0  0  0  0  0  0  0  0
   18.5280   17.3290    7.8810 C   0  0  0  0  0  0  0  0  0  0  0  0
   19.3510   16.5040    6.9560 C   0  0  0  0  0  0  0  0  0  0  0  0
   20.6690   16.6750    6.5770 C   0  0  0  0  0  0  0  0  0  0  0  0
   20.8980   15.6550    5.6990 N   0  0  0  0  0  0  0  0  0  0  0  0
   22.3960   15.2110    5.0790 S   0  0  0  0  0  6  0  0  0  0  0  0
   23.0290   16.4420    4.6510 O   0  0  0  0  0  0  0  0  0  0  0  0
   22.1390   14.1110    4.1700 O   0  0  0  0  0  0  0  0  0  0  0  0
   23.2610   14.5930    6.4710 C   0  0  0  0  0  0  0  0  0  0  0  0
   23.9710   13.4210    6.3490 C   0  0  0  0  0  0  0  0  0  0  0  0
   24.6550   12.9200    7.3890 N   0  0  0  0  0  0  0  0  0  0  0  0
   24.6240   13.5740    8.5980 N   0  0  0  0  0  0  0  0  0  0  0  0
   23.9070   14.7120    8.7660 C   0  0  0  0  0  0  0  0  0  0  0  0
   23.9430   15.3120   10.1160 C   0  0  0  0  0  0  0  0  0  0  0  0
   22.7610   15.4900   10.8840 C   0  0  0  0  0  0  0  0  0  0  0  0
   22.7870   16.0620   12.1620 C   0  0  0  0  0  0  0  0  0  0  0  0
   24.0150   16.4430   12.6620 C   0  0  0  0  0  0  0  0  0  0  0  0
   25.1950   16.2810   11.9480 C   0  0  0  0  0  0  0  0  0  0  0  0
   25.1730   15.7190   10.6810 C   0  0  0  0  0  0  0  0  0  0  0  0
   26.3450   16.8030   12.7400 C   0  0  0  0  0  0  0  0  0  0  0  0
   25.7230   17.1700   14.0050 N   0  0  0  0  0  0  0  0  0  0  0  0
   26.4490   17.9360   15.0130 C   0  0  2  0  0  0  0  0  0  0  0  0
   25.7620   17.9650   16.3770 C   0  0  0  0  0  0  0  0  0  0  0  0
   26.6290   18.7320   17.3620 C   0  0  0  0  0  0  0  0  0  0  0  0
   26.9190   20.1280   16.8640 C   0  0  0  0  0  0  0  0  0  0  0  0
   27.2200   21.0450   17.6240 O   0  0  0  0  0  0  0  0  0  0  0  0
   26.9130   20.3120   15.5040 N   0  0  0  0  0  0  0  0  0  0  0  0
   26.7370   19.3630   14.5230 C   0  0  0  0  0  0  0  0  0  0  0  0
   26.9120   19.6530   13.3400 O   0  0  0  0  0  0  0  0  0  0  0  0
   24.3410   17.0610   13.9510 C   0  0  0  0  0  0  0  0  0  0  0  0
   23.5190   17.4100   14.7760 O   0  0  0  0  0  0  0  0  0  0  0  0
   23.2090   15.2530    7.6970 C   0  0  0  0  0  0  0  0  0  0  0  0
   19.7820   14.8900    5.6010 C   0  0  0  0  0  0  0  0  0  0  0  0
   18.8180   15.3840    6.3490 N   0  0  0  0  0  0  0  0  0  0  0  0
   18.8815   19.2845    8.7111 H   0  0  0  0  0  0  0  0  0  0  0  0
   19.7359   18.9616    7.1643 H   0  0  0  0  0  0  0  0  0  0  0  0
   17.9682   19.2812    7.1643 H   0  0  0  0  0  0  0  0  0  0  0  0
   18.7597   17.0380    8.9162 H   0  0  0  0  0  0  0  0  0  0  0  0
   17.4695   17.1497    7.6415 H   0  0  0  0  0  0  0  0  0  0  0  0
   21.3720   17.4540    6.9070 H   0  0  0  0  0  0  0  0  0  0  0  0
   23.9781   12.8879    5.3868 H   0  0  0  0  0  0  0  0  0  0  0  0
   21.7971   15.1691   10.4623 H   0  0  0  0  0  0  0  0  0  0  0  0
   21.8644   16.2020   12.7444 H   0  0  0  0  0  0  0  0  0  0  0  0
   26.1090   15.5903   10.1176 H   0  0  0  0  0  0  0  0  0  0  0  0
   27.1112   16.0272   12.8852 H   0  0  0  0  0  0  0  0  0  0  0  0
   26.8672   17.6390   12.2519 H   0  0  0  0  0  0  0  0  0  0  0  0
   27.4015   17.4055   15.1594 H   0  0  0  0  0  0  0  0  0  0  0  0
   24.7843   18.4606   16.2851 H   0  0  0  0  0  0  0  0  0  0  0  0
   25.6176   16.9360   16.7379 H   0  0  0  0  0  0  0  0  0  0  0  0
   26.1042   18.7971   18.3266 H   0  0  0  0  0  0  0  0  0  0  0  0
   27.5838   18.1975   17.4746 H   0  0  0  0  0  0  0  0  0  0  0  0
   27.0579   21.2782   15.1777 H   0  0  0  0  0  0  0  0  0  0  0  0
   22.6287   16.1801    7.8139 H   0  0  0  0  0  0  0  0  0  0  0  0
   19.6949   13.9841    4.9832 H   0  0  0  0  0  0  0  0  0  0  0  0
  1  2  1  0
  2  3  1  0
  3  4  2  0
  4  5  1  0
  5  6  1  0
  6  7  2  0
  6  8  2  0
  6  9  1  0
  9 10  2  0
 10 11  1  0
 11 12  2  0
 12 13  1  0
 13 14  1  0
 14 15  2  0
 15 16  1  0
 16 17  2  0
 17 18  1  0
 18 19  2  0
 18 20  1  0
 20 21  1  0
 21 22  1  0
 22 23  1  0
 23 24  1  0
 24 25  1  0
 25 26  2  0
 25 27  1  0
 27 28  1  0
 28 29  2  0
 21 30  1  0
 30 31  2  0
 13 32  2  0
  5 33  1  0
 33 34  2  0
 34  3  1  0
 32  9  1  0
 19 14  1  0
 28 22  1  0
 30 17  1  0
  1 35  1  0
  1 36  1  0
  1 37  1  0
  2 38  1  0
  2 39  1  0
  4 40  1  0
 10 41  1  0
 15 42  1  0
 16 43  1  0
 19 44  1  0
 20 45  1  0
 20 46  1  0
 22 47  1  1
 23 48  1  0
 23 49  1  0
 24 50  1  0
 24 51  1  0
 27 52  1  0
 32 53  1  0
 33 54  1  0
M  END
>  <meeko>  (827) 
{"is_sidechain": [true], "free_energy": -10.47, "intermolecular_energy": 0.0, "internal_energy": -10.47, "cluster_size": 11, "cluster_id": 1, "rank_in_cluster": 1}

>  <_RMSD_MCS_to_ref>  (827) 
0.9614903940122218

$$$$
ligand
     RDKit          3D

 48 51  0  0  0  0  0  0  0  0999 V2000
   18.9090   19.1540    7.5370 C   0  0  0  0  0  0  0  0  0  0  0  0
   18.7730   17.6460    7.6780 C   0  0  0  0  0  0  0  0  0  0  0  0
   19.9930   16.9270    7.2200 C   0  0  0  0  0  0  0  0  0  0  0  0
   21.0580   16.4590    7.9660 C   0  0  0  0  0  0  0  0  0  0  0  0
   21.8750   15.8640    7.0480 N   0  0  0  0  0  0  0  0  0  0  0  0
   23.4610   15.3560    7.3270 S   0  0  0  0  0  6  0  0  0  0  0  0
   24.2750   16.2950    6.5740 O   0  0  0  0  0  0  0  0  0  0  0  0
   23.4500   13.9440    6.9900 O   0  0  0  0  0  0  0  0  0  0  0  0
   23.7390   15.5540    9.0370 C   0  0  0  0  0  0  0  0  0  0  0  0
   24.9210   16.2480    9.5430 C   0  0  0  0  0  0  0  0  0  0  0  0
   25.1460   16.3830   10.8650 C   0  0  0  0  0  0  0  0  0  0  0  0
   24.2080   15.8440   11.7900 C   0  0  0  0  0  0  0  0  0  0  0  0
   24.0800   15.7730   13.1660 C   0  0  0  0  0  0  0  0  0  0  0  0
   24.9950   16.3000   14.1770 C   0  0  0  0  0  0  0  0  0  0  0  0
   25.6040   15.6000   14.9800 O   0  0  0  0  0  0  0  0  0  0  0  0
   25.1120   17.6680   14.1270 N   0  0  0  0  0  0  0  0  0  0  0  0
   26.0790   18.3980   14.9220 C   0  0  2  0  0  0  0  0  0  0  0  0
   25.8780   18.1690   16.4170 C   0  0  0  0  0  0  0  0  0  0  0  0
   26.9070   18.9710   17.1980 C   0  0  0  0  0  0  0  0  0  0  0  0
   26.8430   20.4380   16.8430 C   0  0  0  0  0  0  0  0  0  0  0  0
   27.0890   21.3230   17.6570 O   0  0  0  0  0  0  0  0  0  0  0  0
   26.5290   20.7420   15.5430 N   0  0  0  0  0  0  0  0  0  0  0  0
   25.9560   19.8970   14.6230 C   0  0  0  0  0  0  0  0  0  0  0  0
   25.4030   20.3400   13.6180 O   0  0  0  0  0  0  0  0  0  0  0  0
   22.9040   15.1060   13.4980 N   0  0  0  0  0  0  0  0  0  0  0  0
   22.3450   14.7870   12.3520 C   0  0  0  0  0  0  0  0  0  0  0  0
   23.0890   15.2050   11.2780 N   0  0  0  0  0  0  0  0  0  0  0  0
   22.8480   15.0540    9.9160 C   0  0  0  0  0  0  0  0  0  0  0  0
   21.3450   16.0290    5.8090 C   0  0  0  0  0  0  0  0  0  0  0  0
   20.1920   16.6610    5.8800 N   0  0  0  0  0  0  0  0  0  0  0  0
   18.9504   19.6134    8.5356 H   0  0  0  0  0  0  0  0  0  0  0  0
   19.8320   19.3891    6.9867 H   0  0  0  0  0  0  0  0  0  0  0  0
   18.0430   19.5504    6.9867 H   0  0  0  0  0  0  0  0  0  0  0  0
   18.5950   17.4036    8.7361 H   0  0  0  0  0  0  0  0  0  0  0  0
   17.9326   17.3219    7.0466 H   0  0  0  0  0  0  0  0  0  0  0  0
   21.2123   16.5460    9.0516 H   0  0  0  0  0  0  0  0  0  0  0  0
   25.6436   16.6698    8.8289 H   0  0  0  0  0  0  0  0  0  0  0  0
   26.0451   16.9043   11.2253 H   0  0  0  0  0  0  0  0  0  0  0  0
   24.4879   18.1954   13.4999 H   0  0  0  0  0  0  0  0  0  0  0  0
   27.0799   18.0295   14.6530 H   0  0  0  0  0  0  0  0  0  0  0  0
   24.8667   18.4925   16.7043 H   0  0  0  0  0  0  0  0  0  0  0  0
   26.0001   17.0994   16.6427 H   0  0  0  0  0  0  0  0  0  0  0  0
   26.7114   18.8537   18.2741 H   0  0  0  0  0  0  0  0  0  0  0  0
   27.9084   18.5948   16.9416 H   0  0  0  0  0  0  0  0  0  0  0  0
   26.7438   21.6978   15.2248 H   0  0  0  0  0  0  0  0  0  0  0  0
   21.3906   14.2471   12.2643 H   0  0  0  0  0  0  0  0  0  0  0  0
   21.9449   14.5350    9.5624 H   0  0  0  0  0  0  0  0  0  0  0  0
   21.8135   15.6829    4.8759 H   0  0  0  0  0  0  0  0  0  0  0  0
  1  2  1  0
  2  3  1  0
  3  4  2  0
  4  5  1  0
  5  6  1  0
  6  7  2  0
  6  8  2  0
  6  9  1  0
  9 10  1  0
 10 11  2  0
 11 12  1  0
 12 13  2  0
 13 14  1  0
 14 15  2  0
 14 16  1  0
 16 17  1  0
 17 18  1  0
 18 19  1  0
 19 20  1  0
 20 21  2  0
 20 22  1  0
 22 23  1  0
 23 24  2  0
 13 25  1  0
 25 26  2  0
 26 27  1  0
 27 28  1  0
  5 29  1  0
 29 30  2  0
 30  3  1  0
 28  9  2  0
 27 12  1  0
 23 17  1  0
  1 31  1  0
  1 32  1  0
  1 33  1  0
  2 34  1  0
  2 35  1  0
  4 36  1  0
 10 37  1  0
 11 38  1  0
 16 39  1  0
 17 40  1  6
 18 41  1  0
 18 42  1  0
 19 43  1  0
 19 44  1  0
 22 45  1  0
 26 46  1  0
 28 47  1  0
 29 48  1  0
M  END
>  <meeko>  (828) 
{"is_sidechain": [true], "free_energy": -10.47, "intermolecular_energy": 0.0, "internal_energy": -10.47, "cluster_size": 18, "cluster_id": 1, "rank_in_cluster": 1}

>  <_RMSD_MCS_to_ref>  (828) 
0.8540851505818636

$$$$
ligand
     RDKit          3D

 47 50  0  0  0  0  0  0  0  0999 V2000
   18.9090   19.1540    7.5370 C   0  0  0  0  0  0  0  0  0  0  0  0
   18.7730   17.6460    7.6780 C   0  0  0  0  0  0  0  0  0  0  0  0
   20.0880   16.9540    7.6050 C   0  0  0  0  0  0  0  0  0  0  0  0
   20.8590   16.4400    8.6300 C   0  0  0  0  0  0  0  0  0  0  0  0
   21.9430   15.9050    7.9970 N   0  0  0  0  0  0  0  0  0  0  0  0
   23.2810   15.2280    8.7520 S   0  0  0  0  0  6  0  0  0  0  0  0
   23.1960   13.8110    8.4500 O   0  0  0  0  0  0  0  0  0  0  0  0
   24.4240   16.0340    8.3770 O   0  0  0  0  0  0  0  0  0  0  0  0
   23.0250   15.4220   10.4740 C   0  0  0  0  0  0  0  0  0  0  0  0
   23.8290   16.3070   11.1990 C   0  0  0  0  0  0  0  0  0  0  0  0
   23.6120   16.4510   12.5680 C   0  0  0  0  0  0  0  0  0  0  0  0
   24.4800   17.3960   13.3480 C   0  0  0  0  0  0  0  0  0  0  0  0
   25.6210   17.6620   12.9910 O   0  0  0  0  0  0  0  0  0  0  0  0
   23.8970   17.9140   14.4820 N   0  0  0  0  0  0  0  0  0  0  0  0
   24.6310   18.7170   15.4420 C   0  0  1  0  0  0  0  0  0  0  0  0
   25.7390   17.9210   16.1250 C   0  0  0  0  0  0  0  0  0  0  0  0
   26.4850   18.8200   17.0980 C   0  0  0  0  0  0  0  0  0  0  0  0
   27.0210   20.0510   16.4080 C   0  0  0  0  0  0  0  0  0  0  0  0
   28.0750   20.5860   16.7390 O   0  0  0  0  0  0  0  0  0  0  0  0
   26.2530   20.5720   15.3980 N   0  0  0  0  0  0  0  0  0  0  0  0
   25.2500   19.9200   14.7230 C   0  0  0  0  0  0  0  0  0  0  0  0
   24.8750   20.3090   13.6170 O   0  0  0  0  0  0  0  0  0  0  0  0
   22.6670   15.7930   13.2950 N   0  0  0  0  0  0  0  0  0  0  0  0
   21.8960   14.9490   12.5690 C   0  0  0  0  0  0  0  0  0  0  0  0
   20.8290   14.1130   12.9680 C   0  0  0  0  0  0  0  0  0  0  0  0
   20.4000   13.4710   11.8290 C   0  0  0  0  0  0  0  0  0  0  0  0
   21.1360   13.8600   10.7520 O   0  0  0  0  0  0  0  0  0  0  0  0
   22.0530   14.7570   11.2020 C   0  0  0  0  0  0  0  0  0  0  0  0
   21.8300   16.1140    6.6600 C   0  0  0  0  0  0  0  0  0  0  0  0
   20.7080   16.7500    6.3880 N   0  0  0  0  0  0  0  0  0  0  0  0
   18.9504   19.6134    8.5356 H   0  0  0  0  0  0  0  0  0  0  0  0
   19.8320   19.3891    6.9867 H   0  0  0  0  0  0  0  0  0  0  0  0
   18.0430   19.5504    6.9867 H   0  0  0  0  0  0  0  0  0  0  0  0
   18.3080   17.4215    8.6493 H   0  0  0  0  0  0  0  0  0  0  0  0
   18.1537   17.2833    6.8443 H   0  0  0  0  0  0  0  0  0  0  0  0
   20.6474   16.4580    9.7093 H   0  0  0  0  0  0  0  0  0  0  0  0
   24.6211   16.8811   10.6961 H   0  0  0  0  0  0  0  0  0  0  0  0
   22.8998   17.7240   14.6561 H   0  0  0  0  0  0  0  0  0  0  0  0
   23.9229   19.0459   16.2169 H   0  0  0  0  0  0  0  0  0  0  0  0
   25.2982   17.0748   16.6723 H   0  0  0  0  0  0  0  0  0  0  0  0
   26.4393   17.5427   15.3657 H   0  0  0  0  0  0  0  0  0  0  0  0
   25.7975   19.1292   17.8991 H   0  0  0  0  0  0  0  0  0  0  0  0
   27.3346   18.2557   17.5100 H   0  0  0  0  0  0  0  0  0  0  0  0
   26.4468   21.5444   15.1193 H   0  0  0  0  0  0  0  0  0  0  0  0
   20.4232   13.9985   13.9840 H   0  0  0  0  0  0  0  0  0  0  0  0
   19.5757   12.7435   11.7937 H   0  0  0  0  0  0  0  0  0  0  0  0
   22.5700   15.7974    5.9102 H   0  0  0  0  0  0  0  0  0  0  0  0
  1  2  1  0
  2  3  1  0
  3  4  2  0
  4  5  1  0
  5  6  1  0
  6  7  2  0
  6  8  2  0
  6  9  1  0
  9 10  2  0
 10 11  1  0
 11 12  1  0
 12 13  2  0
 12 14  1  0
 14 15  1  0
 15 16  1  0
 16 17  1  0
 17 18  1  0
 18 19  2  0
 18 20  1  0
 20 21  1  0
 21 22  2  0
 11 23  2  0
 23 24  1  0
 24 25  1  0
 25 26  2  0
 26 27  1  0
 27 28  1  0
  5 29  1  0
 29 30  2  0
 30  3  1  0
 28  9  1  0
 21 15  1  0
 28 24  2  0
  1 31  1  0
  1 32  1  0
  1 33  1  0
  2 34  1  0
  2 35  1  0
  4 36  1  0
 10 37  1  0
 14 38  1  0
 15 39  1  1
 16 40  1  0
 16 41  1  0
 17 42  1  0
 17 43  1  0
 20 44  1  0
 25 45  1  0
 26 46  1  0
 29 47  1  0
M  END
>  <meeko>  (829) 
{"is_sidechain": [true], "free_energy": -10.47, "intermolecular_energy": 0.0, "internal_energy": -10.47, "cluster_size": 20, "cluster_id": 1, "rank_in_cluster": 1}

>  <_RMSD_MCS_to_ref>  (829) 
0.6676202346976745

$$$$
ligand
     RDKit          3D

 47 50  0  0  0  0  0  0  0  0999 V2000
   18.9090   19.1540    7.5370 C   0  0  0  0  0  0  0  0  0  0  0  0
   18.7730   17.6460    7.6780 C   0  0  0  0  0  0  0  0  0  0  0  0
   20.0870   16.9530    7.5940 C   0  0  0  0  0  0  0  0  0  0  0  0
   21.0680   16.8310    8.5590 C   0  0  0  0  0  0  0  0  0  0  0  0
   22.0560   16.1180    7.9450 N   0  0  0  0  0  0  0  0  0  0  0  0
   23.3760   15.4170    8.7080 S   0  0  0  0  0  6  0  0  0  0  0  0
   23.4560   14.0620    8.1970 O   0  0  0  0  0  0  0  0  0  0  0  0
   24.4680   16.3620    8.5760 O   0  0  0  0  0  0  0  0  0  0  0  0
   23.0130   15.2930   10.4200 C   0  0  0  0  0  0  0  0  0  0  0  0
   23.8780   15.7510   11.2920 N   0  0  0  0  0  0  0  0  0  0  0  0
   23.5430   15.6450   12.6390 C   0  0  0  0  0  0  0  0  0  0  0  0
   24.5270   16.1620   13.6650 C   0  0  0  0  0  0  0  0  0  0  0  0
   25.0140   15.4630   14.5450 O   0  0  0  0  0  0  0  0  0  0  0  0
   24.8190   17.4920   13.4950 N   0  0  0  0  0  0  0  0  0  0  0  0
   25.8140   18.1830   14.2940 C   0  0  2  0  0  0  0  0  0  0  0  0
   25.6580   17.8670   15.7770 C   0  0  0  0  0  0  0  0  0  0  0  0
   26.7040   18.6320   16.5710 C   0  0  0  0  0  0  0  0  0  0  0  0
   26.6210   20.1160   16.3040 C   0  0  0  0  0  0  0  0  0  0  0  0
   26.9090   20.9550   17.1520 O   0  0  0  0  0  0  0  0  0  0  0  0
   26.2450   20.4930   15.0390 N   0  0  0  0  0  0  0  0  0  0  0  0
   25.6770   19.6950   14.0760 C   0  0  0  0  0  0  0  0  0  0  0  0
   25.1240   20.1860   13.0930 O   0  0  0  0  0  0  0  0  0  0  0  0
   22.3980   15.1070   13.1010 C   0  0  0  0  0  0  0  0  0  0  0  0
   21.4700   14.6090   12.1600 C   0  0  0  0  0  0  0  0  0  0  0  0
   20.2380   14.0040   12.1780 C   0  0  0  0  0  0  0  0  0  0  0  0
   19.8200   13.7390   10.8980 N   0  0  0  0  0  0  0  0  0  0  0  0
   20.7800   14.1750   10.1110 C   0  0  0  0  0  0  0  0  0  0  0  0
   21.8130   14.7180   10.8290 N   0  0  0  0  0  0  0  0  0  0  0  0
   21.6520   15.7880    6.6910 C   0  0  0  0  0  0  0  0  0  0  0  0
   20.4620   16.2910    6.4400 N   0  0  0  0  0  0  0  0  0  0  0  0
   18.9504   19.6134    8.5356 H   0  0  0  0  0  0  0  0  0  0  0  0
   19.8320   19.3891    6.9867 H   0  0  0  0  0  0  0  0  0  0  0  0
   18.0430   19.5504    6.9867 H   0  0  0  0  0  0  0  0  0  0  0  0
   18.3156   17.4212    8.6528 H   0  0  0  0  0  0  0  0  0  0  0  0
   18.1468   17.2844    6.8491 H   0  0  0  0  0  0  0  0  0  0  0  0
   21.0554   17.2200    9.5878 H   0  0  0  0  0  0  0  0  0  0  0  0
   24.3117   18.0210   12.7713 H   0  0  0  0  0  0  0  0  0  0  0  0
   26.8096   17.8399   13.9760 H   0  0  0  0  0  0  0  0  0  0  0  0
   24.6534   18.1649   16.1116 H   0  0  0  0  0  0  0  0  0  0  0  0
   25.7930   16.7872   15.9379 H   0  0  0  0  0  0  0  0  0  0  0  0
   26.5417   18.4516   17.6439 H   0  0  0  0  0  0  0  0  0  0  0  0
   27.6993   18.2796   16.2625 H   0  0  0  0  0  0  0  0  0  0  0  0
   26.4057   21.4782   14.7850 H   0  0  0  0  0  0  0  0  0  0  0  0
   22.1915   15.0569   14.1803 H   0  0  0  0  0  0  0  0  0  0  0  0
   19.6676   13.7658   13.0879 H   0  0  0  0  0  0  0  0  0  0  0  0
   20.7563   14.1115    9.0131 H   0  0  0  0  0  0  0  0  0  0  0  0
   22.2383   15.1838    5.9830 H   0  0  0  0  0  0  0  0  0  0  0  0
  1  2  1  0
  2  3  1  0
  3  4  2  0
  4  5  1  0
  5  6  1  0
  6  7  2  0
  6  8  2  0
  6  9  1  0
  9 10  2  0
 10 11  1  0
 11 12  1  0
 12 13  2  0
 12 14  1  0
 14 15  1  0
 15 16  1  0
 16 17  1  0
 17 18  1  0
 18 19  2  0
 18 20  1  0
 20 21  1  0
 21 22  2  0
 11 23  2  0
 23 24  1  0
 24 25  2  0
 25 26  1  0
 26 27  2  0
 27 28  1  0
  5 29  1  0
 29 30  2  0
 30  3  1  0
 28  9  1  0
 21 15  1  0
 28 24  1  0
  1 31  1  0
  1 32  1  0
  1 33  1  0
  2 34  1  0
  2 35  1  0
  4 36  1  0
 14 37  1  0
 15 38  1  6
 16 39  1  0
 16 40  1  0
 17 41  1  0
 17 42  1  0
 20 43  1  0
 23 44  1  0
 25 45  1  0
 27 46  1  0
 29 47  1  0
M  END
>  <meeko>  (830) 
{"is_sidechain": [true], "free_energy": -10.47, "intermolecular_energy": 0.0, "internal_energy": -10.47, "cluster_size": 19, "cluster_id": 1, "rank_in_cluster": 1}

>  <_RMSD_MCS_to_ref>  (830) 
0.5517324230699755

$$$$
ligand
     RDKit          3D

 46 49  0  0  0  0  0  0  0  0999 V2000
   18.9090   19.1540    7.5370 C   0  0  0  0  0  0  0  0  0  0  0  0
   18.7730   17.6460    7.6780 C   0  0  0  0  0  0  0  0  0  0  0  0
   20.0880   16.9540    7.6000 C   0  0  0  0  0  0  0  0  0  0  0  0
   21.0640   16.8300    8.5700 C   0  0  0  0  0  0  0  0  0  0  0  0
   22.0620   16.1280    7.9560 N   0  0  0  0  0  0  0  0  0  0  0  0
   23.4490   15.5280    8.6920 S   0  0  0  0  0  6  0  0  0  0  0  0
   23.6530   14.2100    8.1180 O   0  0  0  0  0  0  0  0  0  0  0  0
   24.4220   16.5990    8.5600 O   0  0  0  0  0  0  0  0  0  0  0  0
   22.9810   15.3570   10.4050 C   0  0  0  0  0  0  0  0  0  0  0  0
   23.8960   15.7990   11.2970 N   0  0  0  0  0  0  0  0  0  0  0  0
   23.5630   15.7020   12.6210 C   0  0  0  0  0  0  0  0  0  0  0  0
   24.5650   16.1900   13.6060 C   0  0  0  0  0  0  0  0  0  0  0  0
   25.2030   15.4460   14.3370 O   0  0  0  0  0  0  0  0  0  0  0  0
   24.7250   17.5620   13.6220 N   0  0  0  0  0  0  0  0  0  0  0  0
   25.7610   18.2090   14.4100 C   0  0  2  0  0  0  0  0  0  0  0  0
   25.6180   17.9080   15.8980 C   0  0  0  0  0  0  0  0  0  0  0  0
   26.7120   18.6290   16.6690 C   0  0  0  0  0  0  0  0  0  0  0  0
   26.6900   20.1140   16.3920 C   0  0  0  0  0  0  0  0  0  0  0  0
   27.0000   20.9460   17.2400 O   0  0  0  0  0  0  0  0  0  0  0  0
   26.3360   20.4970   15.1250 N   0  0  0  0  0  0  0  0  0  0  0  0
   25.6820   19.7240   14.1960 C   0  0  0  0  0  0  0  0  0  0  0  0
   25.0910   20.2390   13.2470 O   0  0  0  0  0  0  0  0  0  0  0  0
   22.3280   15.1630   12.9940 C   0  0  0  0  0  0  0  0  0  0  0  0
   21.6920   14.9260   14.1930 N   0  0  0  0  0  0  0  0  0  0  0  0
   20.5300   14.3920   13.8830 C   0  0  0  0  0  0  0  0  0  0  0  0
   20.3770   14.2720   12.5310 N   0  0  0  0  0  0  0  0  0  0  0  0
   21.5110   14.7580   11.9460 C   0  0  0  0  0  0  0  0  0  0  0  0
   21.7610   14.8220   10.6290 N   0  0  0  0  0  0  0  0  0  0  0  0
   21.6730   15.8170    6.6910 C   0  0  0  0  0  0  0  0  0  0  0  0
   20.4760   16.3080    6.4420 N   0  0  0  0  0  0  0  0  0  0  0  0
   18.9504   19.6134    8.5356 H   0  0  0  0  0  0  0  0  0  0  0  0
   19.8320   19.3891    6.9867 H   0  0  0  0  0  0  0  0  0  0  0  0
   18.0430   19.5504    6.9867 H   0  0  0  0  0  0  0  0  0  0  0  0
   18.3114   17.4212    8.6508 H   0  0  0  0  0  0  0  0  0  0  0  0
   18.1505   17.2836    6.8467 H   0  0  0  0  0  0  0  0  0  0  0  0
   21.0423   17.2101    9.6020 H   0  0  0  0  0  0  0  0  0  0  0  0
   24.0902   18.1448   13.0578 H   0  0  0  0  0  0  0  0  0  0  0  0
   26.7331   17.8166   14.0769 H   0  0  0  0  0  0  0  0  0  0  0  0
   24.6341   18.2529   16.2488 H   0  0  0  0  0  0  0  0  0  0  0  0
   25.7071   16.8241   16.0627 H   0  0  0  0  0  0  0  0  0  0  0  0
   26.5608   18.4629   17.7458 H   0  0  0  0  0  0  0  0  0  0  0  0
   27.6851   18.2297   16.3470 H   0  0  0  0  0  0  0  0  0  0  0  0
   26.5837   21.4558   14.8419 H   0  0  0  0  0  0  0  0  0  0  0  0
   19.7757   14.0810   14.6208 H   0  0  0  0  0  0  0  0  0  0  0  0
   19.5567   13.8857   12.0424 H   0  0  0  0  0  0  0  0  0  0  0  0
   22.2737   15.2365    5.9753 H   0  0  0  0  0  0  0  0  0  0  0  0
  1  2  1  0
  2  3  1  0
  3  4  2  0
  4  5  1  0
  5  6  1  0
  6  7  2  0
  6  8  2  0
  6  9  1  0
  9 10  2  0
 10 11  1  0
 11 12  1  0
 12 13  2  0
 12 14  1  0
 14 15  1  0
 15 16  1  0
 16 17  1  0
 17 18  1  0
 18 19  2  0
 18 20  1  0
 20 21  1  0
 21 22  2  0
 11 23  2  0
 23 24  1  0
 24 25  2  0
 25 26  1  0
 26 27  1  0
 27 28  2  0
  5 29  1  0
 29 30  2  0
 30  3  1  0
 28  9  1  0
 21 15  1  0
 27 23  1  0
  1 31  1  0
  1 32  1  0
  1 33  1  0
  2 34  1  0
  2 35  1  0
  4 36  1  0
 14 37  1  0
 15 38  1  6
 16 39  1  0
 16 40  1  0
 17 41  1  0
 17 42  1  0
 20 43  1  0
 25 44  1  0
 26 45  1  0
 29 46  1  0
M  END
>  <meeko>  (831) 
{"is_sidechain": [true], "free_energy": -10.47, "intermolecular_energy": 0.0, "internal_energy": -10.47, "cluster_size": 20, "cluster_id": 1, "rank_in_cluster": 1}

>  <_RMSD_MCS_to_ref>  (831) 
0.5117832657591601

$$$$
ligand
     RDKit          3D

 44 47  0  0  0  0  0  0  0  0999 V2000
   18.9090   19.1540    7.5370 C   0  0  0  0  0  0  0  0  0  0  0  0
   18.7730   17.6460    7.6780 C   0  0  0  0  0  0  0  0  0  0  0  0
   20.0810   16.9490    7.5360 C   0  0  0  0  0  0  0  0  0  0  0  0
   21.0080   16.6360    8.5090 C   0  0  0  0  0  0  0  0  0  0  0  0
   22.0060   16.0030    7.8250 N   0  0  0  0  0  0  0  0  0  0  0  0
   23.3640   15.2960    8.5130 S   0  0  0  0  0  6  0  0  0  0  0  0
   23.4800   13.9660    7.9490 O   0  0  0  0  0  0  0  0  0  0  0  0
   24.4080   16.2930    8.3590 O   0  0  0  0  0  0  0  0  0  0  0  0
   22.9730   15.1470   10.2380 C   0  0  0  0  0  0  0  0  0  0  0  0
   21.8360   14.3950   10.5900 C   0  0  0  0  0  0  0  0  0  0  0  0
   21.4710   14.2260   11.9200 C   0  0  0  0  0  0  0  0  0  0  0  0
   22.2290   14.8090   12.9340 C   0  0  0  0  0  0  0  0  0  0  0  0
   23.3640   15.5810   12.6150 C   0  0  0  0  0  0  0  0  0  0  0  0
   24.1830   16.2050   13.5390 N   0  0  0  0  0  0  0  0  0  0  0  0
   25.1240   16.8690   12.9150 C   0  0  0  0  0  0  0  0  0  0  0  0
   26.3200   17.7910   13.7980 S   0  0  0  0  0  0  0  0  0  0  0  0
   25.2230   18.8350   14.8250 C   0  0  1  0  0  0  0  0  0  0  0  0
   25.3290   18.4760   16.3070 C   0  0  0  0  0  0  0  0  0  0  0  0
   26.6760   18.8590   16.9020 C   0  0  0  0  0  0  0  0  0  0  0  0
   27.0010   20.3080   16.6380 C   0  0  0  0  0  0  0  0  0  0  0  0
   27.7560   20.9530   17.3590 O   0  0  0  0  0  0  0  0  0  0  0  0
   26.4480   20.8690   15.5150 N   0  0  0  0  0  0  0  0  0  0  0  0
   25.5880   20.2980   14.6060 C   0  0  0  0  0  0  0  0  0  0  0  0
   25.1840   20.9540   13.6480 O   0  0  0  0  0  0  0  0  0  0  0  0
   25.1300   16.7480   11.2160 S   0  0  0  0  0  0  0  0  0  0  0  0
   23.7230   15.7470   11.2700 C   0  0  0  0  0  0  0  0  0  0  0  0
   21.6860   15.9530    6.5080 C   0  0  0  0  0  0  0  0  0  0  0  0
   20.5120   16.5130    6.2990 N   0  0  0  0  0  0  0  0  0  0  0  0
   18.9504   19.6134    8.5356 H   0  0  0  0  0  0  0  0  0  0  0  0
   19.8320   19.3891    6.9867 H   0  0  0  0  0  0  0  0  0  0  0  0
   18.0430   19.5504    6.9867 H   0  0  0  0  0  0  0  0  0  0  0  0
   18.3562   17.4189    8.6703 H   0  0  0  0  0  0  0  0  0  0  0  0
   18.1108   17.2895    6.8753 H   0  0  0  0  0  0  0  0  0  0  0  0
   20.9552   16.8476    9.5872 H   0  0  0  0  0  0  0  0  0  0  0  0
   21.2265   13.9336    9.7990 H   0  0  0  0  0  0  0  0  0  0  0  0
   20.5815   13.6305   12.1733 H   0  0  0  0  0  0  0  0  0  0  0  0
   21.9406   14.6662   13.9859 H   0  0  0  0  0  0  0  0  0  0  0  0
   24.1807   18.6574   14.5215 H   0  0  0  0  0  0  0  0  0  0  0  0
   24.5368   19.0058   16.8563 H   0  0  0  0  0  0  0  0  0  0  0  0
   25.2211   17.3849   16.3962 H   0  0  0  0  0  0  0  0  0  0  0  0
   26.6484   18.6904   17.9887 H   0  0  0  0  0  0  0  0  0  0  0  0
   27.4523   18.2382   16.4308 H   0  0  0  0  0  0  0  0  0  0  0  0
   26.7116   21.8469   15.3277 H   0  0  0  0  0  0  0  0  0  0  0  0
   22.3175   15.5078    5.7250 H   0  0  0  0  0  0  0  0  0  0  0  0
  1  2  1  0
  2  3  1  0
  3  4  2  0
  4  5  1  0
  5  6  1  0
  6  7  2  0
  6  8  2  0
  6  9  1  0
  9 10  2  0
 10 11  1  0
 11 12  2  0
 12 13  1  0
 13 14  1  0
 14 15  2  0
 15 16  1  0
 16 17  1  0
 17 18  1  0
 18 19  1  0
 19 20  1  0
 20 21  2  0
 20 22  1  0
 22 23  1  0
 23 24  2  0
 15 25  1  0
 25 26  1  0
  5 27  1  0
 27 28  2  0
 28  3  1  0
 26  9  1  0
 26 13  2  0
 23 17  1  0
  1 29  1  0
  1 30  1  0
  1 31  1  0
  2 32  1  0
  2 33  1  0
  4 34  1  0
 10 35  1  0
 11 36  1  0
 12 37  1  0
 17 38  1  6
 18 39  1  0
 18 40  1  0
 19 41  1  0
 19 42  1  0
 22 43  1  0
 27 44  1  0
M  END
>  <meeko>  (832) 
{"is_sidechain": [true], "free_energy": -10.47, "intermolecular_energy": 0.0, "internal_energy": -10.47, "cluster_size": 20, "cluster_id": 1, "rank_in_cluster": 1}

>  <_RMSD_MCS_to_ref>  (832) 
0.7560415828511023

$$$$
ligand
     RDKit          3D

 43 45  0  0  0  0  0  0  0  0999 V2000
   18.9090   19.1540    7.5370 C   0  0  0  0  0  0  0  0  0  0  0  0
   18.7730   17.6460    7.6780 C   0  0  0  0  0  0  0  0  0  0  0  0
   20.0570   16.9990    8.0610 C   0  0  0  0  0  0  0  0  0  0  0  0
   20.3250   16.1670    9.1310 C   0  0  0  0  0  0  0  0  0  0  0  0
   21.6490   15.8580    8.9920 N   0  0  0  0  0  0  0  0  0  0  0  0
   22.5820   14.9790   10.0780 S   0  0  0  0  0  6  0  0  0  0  0  0
   21.9280   15.1720   11.3620 O   0  0  0  0  0  0  0  0  0  0  0  0
   22.7400   13.6670    9.4740 O   0  0  0  0  0  0  0  0  0  0  0  0
   24.1500   15.8170   10.0830 C   0  0  0  0  0  0  0  0  0  0  0  0
   24.9250   15.6690    8.9910 N   0  0  0  0  0  0  0  0  0  0  0  0
   26.0990   16.3240    9.0250 C   0  0  0  0  0  0  0  0  0  0  0  0
   26.5000   17.1000   10.0870 C   0  0  0  0  0  0  0  0  0  0  0  0
   25.6150   17.1750   11.1450 C   0  0  0  0  0  0  0  0  0  0  0  0
   25.9670   18.0030   12.3410 C   0  0  0  0  0  0  0  0  0  0  0  0
   27.0750   18.5120   12.4590 O   0  0  0  0  0  0  0  0  0  0  0  0
   24.9660   18.1300   13.2760 N   0  0  0  0  0  0  0  0  0  0  0  0
   25.1750   18.7760   14.5600 C   0  0  1  0  0  0  0  0  0  0  0  0
   26.1740   18.0140   15.4250 C   0  0  0  0  0  0  0  0  0  0  0  0
   26.3680   18.7480   16.7430 C   0  0  0  0  0  0  0  0  0  0  0  0
   26.7960   20.1790   16.5180 C   0  0  0  0  0  0  0  0  0  0  0  0
   27.5430   20.7720   17.2900 O   0  0  0  0  0  0  0  0  0  0  0  0
   26.2800   20.8080   15.4140 N   0  0  0  0  0  0  0  0  0  0  0  0
   25.6920   20.2000   14.3310 C   0  0  0  0  0  0  0  0  0  0  0  0
   25.5800   20.7890   13.2580 O   0  0  0  0  0  0  0  0  0  0  0  0
   24.4180   16.5420   11.1830 N   0  0  0  0  0  0  0  0  0  0  0  0
   22.1460   16.5100    7.9080 C   0  0  0  0  0  0  0  0  0  0  0  0
   21.1980   17.2060    7.3130 N   0  0  0  0  0  0  0  0  0  0  0  0
   18.9504   19.6134    8.5356 H   0  0  0  0  0  0  0  0  0  0  0  0
   19.8320   19.3891    6.9867 H   0  0  0  0  0  0  0  0  0  0  0  0
   18.0430   19.5504    6.9867 H   0  0  0  0  0  0  0  0  0  0  0  0
   18.0222   17.4289    8.4521 H   0  0  0  0  0  0  0  0  0  0  0  0
   18.4694   17.2416    6.7011 H   0  0  0  0  0  0  0  0  0  0  0  0
   19.6313   15.8303    9.9155 H   0  0  0  0  0  0  0  0  0  0  0  0
   26.7723   16.2345    8.1598 H   0  0  0  0  0  0  0  0  0  0  0  0
   27.4650   17.6279   10.0936 H   0  0  0  0  0  0  0  0  0  0  0  0
   24.0329   17.7527   13.0572 H   0  0  0  0  0  0  0  0  0  0  0  0
   24.2112   18.7929   15.0898 H   0  0  0  0  0  0  0  0  0  0  0  0
   25.7910   17.0018   15.6221 H   0  0  0  0  0  0  0  0  0  0  0  0
   27.1373   17.9458   14.8984 H   0  0  0  0  0  0  0  0  0  0  0  0
   25.4192   18.7413   17.2996 H   0  0  0  0  0  0  0  0  0  0  0  0
   27.1575   18.2355   17.3122 H   0  0  0  0  0  0  0  0  0  0  0  0
   26.3389   21.8361   15.3947 H   0  0  0  0  0  0  0  0  0  0  0  0
   23.1930   16.4633    7.5740 H   0  0  0  0  0  0  0  0  0  0  0  0
  1  2  1  0
  2  3  1  0
  3  4  2  0
  4  5  1  0
  5  6  1  0
  6  7  2  0
  6  8  2  0
  6  9  1  0
  9 10  2  0
 10 11  1  0
 11 12  2  0
 12 13  1  0
 13 14  1  0
 14 15  2  0
 14 16  1  0
 16 17  1  0
 17 18  1  0
 18 19  1  0
 19 20  1  0
 20 21  2  0
 20 22  1  0
 22 23  1  0
 23 24  2  0
 13 25  2  0
  5 26  1  0
 26 27  2  0
 27  3  1  0
 25  9  1  0
 23 17  1  0
  1 28  1  0
  1 29  1  0
  1 30  1  0
  2 31  1  0
  2 32  1  0
  4 33  1  0
 11 34  1  0
 12 35  1  0
 16 36  1  0
 17 37  1  1
 18 38  1  0
 18 39  1  0
 19 40  1  0
 19 41  1  0
 22 42  1  0
 26 43  1  0
M  END
>  <meeko>  (833) 
{"is_sidechain": [true], "free_energy": -10.47, "intermolecular_energy": 0.0, "internal_energy": -10.47, "cluster_size": 19, "cluster_id": 1, "rank_in_cluster": 1}

>  <_RMSD_MCS_to_ref>  (833) 
0.6051690305654737

$$$$
ligand
     RDKit          3D

 43 45  0  0  0  0  0  0  0  0999 V2000
   18.9090   19.1540    7.5370 C   0  0  0  0  0  0  0  0  0  0  0  0
   18.7730   17.6460    7.6780 C   0  0  0  0  0  0  0  0  0  0  0  0
   20.0880   16.9550    7.6080 C   0  0  0  0  0  0  0  0  0  0  0  0
   21.0460   16.8060    8.5920 C   0  0  0  0  0  0  0  0  0  0  0  0
   22.0390   16.0900    7.9880 N   0  0  0  0  0  0  0  0  0  0  0  0
   23.5240   15.6960    8.6590 S   0  0  0  0  0  6  0  0  0  0  0  0
   24.4050   16.8090    8.3570 O   0  0  0  0  0  0  0  0  0  0  0  0
   23.8140   14.3440    8.2170 O   0  0  0  0  0  0  0  0  0  0  0  0
   23.2910   15.6510   10.4010 C   0  0  0  0  0  0  0  0  0  0  0  0
   24.2580   16.1470   11.2530 C   0  0  0  0  0  0  0  0  0  0  0  0
   23.9840   16.0740   12.6140 C   0  0  0  0  0  0  0  0  0  0  0  0
   24.9040   16.5730   13.6610 C   0  0  0  0  0  0  0  0  0  0  0  0
   25.5010   15.7770   14.3770 O   0  0  0  0  0  0  0  0  0  0  0  0
   25.0630   17.9360   13.7630 N   0  0  0  0  0  0  0  0  0  0  0  0
   26.0500   18.5110   14.6730 C   0  0  2  0  0  0  0  0  0  0  0  0
   25.7900   18.1300   16.1260 C   0  0  0  0  0  0  0  0  0  0  0  0
   26.8240   18.8010   17.0180 C   0  0  0  0  0  0  0  0  0  0  0  0
   26.8310   20.2990   16.8190 C   0  0  0  0  0  0  0  0  0  0  0  0
   27.0680   21.0830   17.7330 O   0  0  0  0  0  0  0  0  0  0  0  0
   26.5890   20.7520   15.5470 N   0  0  0  0  0  0  0  0  0  0  0  0
   25.9940   20.0350   14.5390 C   0  0  0  0  0  0  0  0  0  0  0  0
   25.4590   20.5940   13.5820 O   0  0  0  0  0  0  0  0  0  0  0  0
   22.7690   15.5350   13.0130 C   0  0  0  0  0  0  0  0  0  0  0  0
   21.8570   15.0580   12.1330 N   0  0  0  0  0  0  0  0  0  0  0  0
   22.1210   15.1140   10.8050 N   0  0  0  0  0  0  0  0  0  0  0  0
   21.6980   15.8580    6.6940 C   0  0  0  0  0  0  0  0  0  0  0  0
   20.5060   16.3560    6.4350 N   0  0  0  0  0  0  0  0  0  0  0  0
   18.9504   19.6134    8.5356 H   0  0  0  0  0  0  0  0  0  0  0  0
   19.8320   19.3891    6.9867 H   0  0  0  0  0  0  0  0  0  0  0  0
   18.0430   19.5504    6.9867 H   0  0  0  0  0  0  0  0  0  0  0  0
   18.3059   17.4215    8.6483 H   0  0  0  0  0  0  0  0  0  0  0  0
   18.1555   17.2828    6.8432 H   0  0  0  0  0  0  0  0  0  0  0  0
   21.0156   17.1792    9.6263 H   0  0  0  0  0  0  0  0  0  0  0  0
   25.1967   16.5777   10.8743 H   0  0  0  0  0  0  0  0  0  0  0  0
   24.4775   18.5597   13.1893 H   0  0  0  0  0  0  0  0  0  0  0  0
   27.0401   18.1164   14.4011 H   0  0  0  0  0  0  0  0  0  0  0  0
   24.7828   18.4623   16.4178 H   0  0  0  0  0  0  0  0  0  0  0  0
   25.8620   17.0381   16.2377 H   0  0  0  0  0  0  0  0  0  0  0  0
   26.5876   18.5802   18.0694 H   0  0  0  0  0  0  0  0  0  0  0  0
   27.8175   18.4107   16.7524 H   0  0  0  0  0  0  0  0  0  0  0  0
   26.8796   21.7158   15.3289 H   0  0  0  0  0  0  0  0  0  0  0  0
   22.5374   15.4936   14.0876 H   0  0  0  0  0  0  0  0  0  0  0  0
   22.3285   15.3286    5.9645 H   0  0  0  0  0  0  0  0  0  0  0  0
  1  2  1  0
  2  3  1  0
  3  4  2  0
  4  5  1  0
  5  6  1  0
  6  7  2  0
  6  8  2  0
  6  9  1  0
  9 10  2  0
 10 11  1  0
 11 12  1  0
 12 13  2  0
 12 14  1  0
 14 15  1  0
 15 16  1  0
 16 17  1  0
 17 18  1  0
 18 19  2  0
 18 20  1  0
 20 21  1  0
 21 22  2  0
 11 23  2  0
 23 24  1  0
 24 25  2  0
  5 26  1  0
 26 27  2  0
 27  3  1  0
 25  9  1  0
 21 15  1  0
  1 28  1  0
  1 29  1  0
  1 30  1  0
  2 31  1  0
  2 32  1  0
  4 33  1  0
 10 34  1  0
 14 35  1  0
 15 36  1  6
 16 37  1  0
 16 38  1  0
 17 39  1  0
 17 40  1  0
 20 41  1  0
 23 42  1  0
 26 43  1  0
M  END
>  <meeko>  (834) 
{"is_sidechain": [true], "free_energy": -10.47, "intermolecular_energy": 0.0, "internal_energy": -10.47, "cluster_size": 20, "cluster_id": 1, "rank_in_cluster": 1}

>  <_RMSD_MCS_to_ref>  (834) 
0.8005639678793111

$$$$
ligand
     RDKit          3D

 47 50  0  0  0  0  0  0  0  0999 V2000
   18.9090   19.1540    7.5370 C   0  0  0  0  0  0  0  0  0  0  0  0
   18.7730   17.6460    7.6780 C   0  0  0  0  0  0  0  0  0  0  0  0
   20.0190   16.9310    7.2890 C   0  0  0  0  0  0  0  0  0  0  0  0
   20.7020   15.9420    7.9680 C   0  0  0  0  0  0  0  0  0  0  0  0
   21.7660   15.6580    7.1600 N   0  0  0  0  0  0  0  0  0  0  0  0
   23.0030   14.5820    7.5180 S   0  0  0  0  0  6  0  0  0  0  0  0
   23.8280   14.4720    6.3330 O   0  0  0  0  0  0  0  0  0  0  0  0
   22.3300   13.4350    8.0990 O   0  0  0  0  0  0  0  0  0  0  0  0
   23.9510   15.3700    8.7890 C   0  0  0  0  0  0  0  0  0  0  0  0
   25.0170   16.1840    8.3960 C   0  0  0  0  0  0  0  0  0  0  0  0
   25.7740   16.8050    9.3660 C   0  0  0  0  0  0  0  0  0  0  0  0
   25.5660   16.6940   10.6860 N   0  0  0  0  0  0  0  0  0  0  0  0
   24.5180   15.9130   11.0800 C   0  0  0  0  0  0  0  0  0  0  0  0
   24.1480   15.6850   12.4510 C   0  0  0  0  0  0  0  0  0  0  0  0
   24.7920   16.2130   13.6520 C   0  0  0  0  0  0  0  0  0  0  0  0
   24.7220   15.6440   14.7370 O   0  0  0  0  0  0  0  0  0  0  0  0
   25.4860   17.3870   13.4870 N   0  0  0  0  0  0  0  0  0  0  0  0
   26.2790   17.9790   14.5480 C   0  0  2  0  0  0  0  0  0  0  0  0
   25.5190   18.0240   15.8700 C   0  0  0  0  0  0  0  0  0  0  0  0
   26.3910   18.6670   16.9370 C   0  0  0  0  0  0  0  0  0  0  0  0
   26.8560   20.0390   16.5100 C   0  0  0  0  0  0  0  0  0  0  0  0
   27.0230   20.9560   17.3080 O   0  0  0  0  0  0  0  0  0  0  0  0
   27.1150   20.2120   15.1740 N   0  0  0  0  0  0  0  0  0  0  0  0
   26.6750   19.4060   14.1510 C   0  0  0  0  0  0  0  0  0  0  0  0
   26.6290   19.8250   12.9960 O   0  0  0  0  0  0  0  0  0  0  0  0
   23.0460   14.8560   12.5260 C   0  0  0  0  0  0  0  0  0  0  0  0
   22.4700   14.3730   11.0010 S   0  0  0  0  0  0  0  0  0  0  0  0
   23.6950   15.2460   10.1670 C   0  0  0  0  0  0  0  0  0  0  0  0
   21.7060   16.4340    6.0500 C   0  0  0  0  0  0  0  0  0  0  0  0
   20.6570   17.2290    6.1010 N   0  0  0  0  0  0  0  0  0  0  0  0
   18.9504   19.6134    8.5356 H   0  0  0  0  0  0  0  0  0  0  0  0
   19.8320   19.3891    6.9867 H   0  0  0  0  0  0  0  0  0  0  0  0
   18.0430   19.5504    6.9867 H   0  0  0  0  0  0  0  0  0  0  0  0
   18.5402   17.4077    8.7263 H   0  0  0  0  0  0  0  0  0  0  0  0
   17.9689   17.3147    7.0044 H   0  0  0  0  0  0  0  0  0  0  0  0
   20.4478   15.4873    8.9368 H   0  0  0  0  0  0  0  0  0  0  0  0
   25.2480   16.3267    7.3300 H   0  0  0  0  0  0  0  0  0  0  0  0
   26.6098   17.4379    9.0330 H   0  0  0  0  0  0  0  0  0  0  0  0
   25.4417   17.8650   12.5757 H   0  0  0  0  0  0  0  0  0  0  0  0
   27.1719   17.3521   14.6884 H   0  0  0  0  0  0  0  0  0  0  0  0
   24.5994   18.6143   15.7439 H   0  0  0  0  0  0  0  0  0  0  0  0
   25.2596   17.0003   16.1777 H   0  0  0  0  0  0  0  0  0  0  0  0
   25.8109   18.7583   17.8671 H   0  0  0  0  0  0  0  0  0  0  0  0
   27.2760   18.0324   17.0920 H   0  0  0  0  0  0  0  0  0  0  0  0
   27.6941   21.0227   14.9126 H   0  0  0  0  0  0  0  0  0  0  0  0
   22.5879   14.5406   13.4750 H   0  0  0  0  0  0  0  0  0  0  0  0
   22.4311   16.4040    5.2233 H   0  0  0  0  0  0  0  0  0  0  0  0
  1  2  1  0
  2  3  1  0
  3  4  2  0
  4  5  1  0
  5  6  1  0
  6  7  2  0
  6  8  2  0
  6  9  1  0
  9 10  2  0
 10 11  1  0
 11 12  2  0
 12 13  1  0
 13 14  1  0
 14 15  1  0
 15 16  2  0
 15 17  1  0
 17 18  1  0
 18 19  1  0
 19 20  1  0
 20 21  1  0
 21 22  2  0
 21 23  1  0
 23 24  1  0
 24 25  2  0
 14 26  2  0
 26 27  1  0
 27 28  1  0
  5 29  1  0
 29 30  2  0
 30  3  1  0
 28  9  1  0
 28 13  2  0
 24 18  1  0
  1 31  1  0
  1 32  1  0
  1 33  1  0
  2 34  1  0
  2 35  1  0
  4 36  1  0
 10 37  1  0
 11 38  1  0
 17 39  1  0
 18 40  1  1
 19 41  1  0
 19 42  1  0
 20 43  1  0
 20 44  1  0
 23 45  1  0
 26 46  1  0
 29 47  1  0
M  END
>  <meeko>  (835) 
{"is_sidechain": [true], "free_energy": -10.47, "intermolecular_energy": 0.0, "internal_energy": -10.47, "cluster_size": 18, "cluster_id": 1, "rank_in_cluster": 1}

>  <_RMSD_MCS_to_ref>  (835) 
1.1309038666286166

$$$$
ligand
     RDKit          3D

 49 52  0  0  0  0  0  0  0  0999 V2000
   18.9090   19.1540    7.5370 C   0  0  0  0  0  0  0  0  0  0  0  0
   18.7730   17.6460    7.6780 C   0  0  0  0  0  0  0  0  0  0  0  0
   20.0950   16.9650    7.7280 C   0  0  0  0  0  0  0  0  0  0  0  0
   20.9630   16.8300    8.7940 C   0  0  0  0  0  0  0  0  0  0  0  0
   22.0170   16.1290    8.2800 N   0  0  0  0  0  0  0  0  0  0  0  0
   23.3430   15.5820    9.1530 S   0  0  0  0  0  6  0  0  0  0  0  0
   24.2380   16.7290    9.1860 O   0  0  0  0  0  0  0  0  0  0  0  0
   23.7500   14.3220    8.5590 O   0  0  0  0  0  0  0  0  0  0  0  0
   22.7210   15.2890   10.7880 C   0  0  0  0  0  0  0  0  0  0  0  0
   23.4970   15.8450   11.7630 N   0  0  0  0  0  0  0  0  0  0  0  0
   23.0840   15.6700   13.0440 C   0  0  0  0  0  0  0  0  0  0  0  0
   23.9260   16.3200   14.0980 C   0  0  0  0  0  0  0  0  0  0  0  0
   24.2330   15.7310   15.1260 O   0  0  0  0  0  0  0  0  0  0  0  0
   24.2900   17.6230   13.8100 N   0  0  0  0  0  0  0  0  0  0  0  0
   24.7390   18.5130   14.8650 C   0  0  1  0  0  0  0  0  0  0  0  0
   25.8840   17.8900   15.6520 C   0  0  0  0  0  0  0  0  0  0  0  0
   26.3310   18.8490   16.7420 C   0  0  0  0  0  0  0  0  0  0  0  0
   26.7050   20.1970   16.1680 C   0  0  0  0  0  0  0  0  0  0  0  0
   27.6050   20.8850   16.6390 O   0  0  0  0  0  0  0  0  0  0  0  0
   25.9680   20.6350   15.0990 N   0  0  0  0  0  0  0  0  0  0  0  0
   25.2190   19.8430   14.2600 C   0  0  0  0  0  0  0  0  0  0  0  0
   24.9710   20.2060   13.1120 O   0  0  0  0  0  0  0  0  0  0  0  0
   21.9460   14.9680   13.3890 C   0  0  0  0  0  0  0  0  0  0  0  0
   21.1920   14.4210   12.3490 C   0  0  0  0  0  0  0  0  0  0  0  0
   19.9600   13.6660   12.6400 C   0  0  0  0  0  0  0  0  0  0  0  0
   19.5670   13.4850   13.7840 O   0  0  0  0  0  0  0  0  0  0  0  0
   19.2880   13.1850   11.5480 N   0  0  0  0  0  0  0  0  0  0  0  0
   19.7190   13.3750   10.2690 C   0  0  0  0  0  0  0  0  0  0  0  0
   20.7920   14.0220    9.9640 N   0  0  0  0  0  0  0  0  0  0  0  0
   21.5580   14.5670   11.0070 C   0  0  0  0  0  0  0  0  0  0  0  0
   21.7780   15.8590    6.9710 C   0  0  0  0  0  0  0  0  0  0  0  0
   20.6110   16.3500    6.6040 N   0  0  0  0  0  0  0  0  0  0  0  0
   18.9504   19.6134    8.5356 H   0  0  0  0  0  0  0  0  0  0  0  0
   19.8320   19.3891    6.9867 H   0  0  0  0  0  0  0  0  0  0  0  0
   18.0430   19.5504    6.9867 H   0  0  0  0  0  0  0  0  0  0  0  0
   18.2252   17.4249    8.6059 H   0  0  0  0  0  0  0  0  0  0  0  0
   18.2332   17.2715    6.7957 H   0  0  0  0  0  0  0  0  0  0  0  0
   20.8349   17.2017    9.8213 H   0  0  0  0  0  0  0  0  0  0  0  0
   24.2421   17.9643   12.8394 H   0  0  0  0  0  0  0  0  0  0  0  0
   23.8910   18.6900   15.5429 H   0  0  0  0  0  0  0  0  0  0  0  0
   25.5452   16.9483   16.1086 H   0  0  0  0  0  0  0  0  0  0  0  0
   26.7265   17.6871   14.9745 H   0  0  0  0  0  0  0  0  0  0  0  0
   25.5098   18.9813   17.4618 H   0  0  0  0  0  0  0  0  0  0  0  0
   27.2170   18.4241   17.2364 H   0  0  0  0  0  0  0  0  0  0  0  0
   25.9755   21.6469   14.9067 H   0  0  0  0  0  0  0  0  0  0  0  0
   21.6459   14.8448   14.4401 H   0  0  0  0  0  0  0  0  0  0  0  0
   18.4176   12.6557   11.7001 H   0  0  0  0  0  0  0  0  0  0  0  0
   19.1175   12.9525    9.4506 H   0  0  0  0  0  0  0  0  0  0  0  0
   22.4624   15.3077    6.3094 H   0  0  0  0  0  0  0  0  0  0  0  0
  1  2  1  0
  2  3  1  0
  3  4  2  0
  4  5  1  0
  5  6  1  0
  6  7  2  0
  6  8  2  0
  6  9  1  0
  9 10  2  0
 10 11  1  0
 11 12  1  0
 12 13  2  0
 12 14  1  0
 14 15  1  0
 15 16  1  0
 16 17  1  0
 17 18  1  0
 18 19  2  0
 18 20  1  0
 20 21  1  0
 21 22  2  0
 11 23  2  0
 23 24  1  0
 24 25  1  0
 25 26  2  0
 25 27  1  0
 27 28  1  0
 28 29  2  0
 29 30  1  0
  5 31  1  0
 31 32  2  0
 32  3  1  0
 30  9  1  0
 21 15  1  0
 30 24  2  0
  1 33  1  0
  1 34  1  0
  1 35  1  0
  2 36  1  0
  2 37  1  0
  4 38  1  0
 14 39  1  0
 15 40  1  1
 16 41  1  0
 16 42  1  0
 17 43  1  0
 17 44  1  0
 20 45  1  0
 23 46  1  0
 27 47  1  0
 28 48  1  0
 31 49  1  0
M  END
>  <meeko>  (836) 
{"is_sidechain": [true], "free_energy": -10.47, "intermolecular_energy": 0.0, "internal_energy": -10.47, "cluster_size": 20, "cluster_id": 1, "rank_in_cluster": 1}

>  <_RMSD_MCS_to_ref>  (836) 
0.3639537516406911

$$$$
ligand
     RDKit          3D

 46 49  0  0  0  0  0  0  0  0999 V2000
   18.9090   19.1540    7.5370 C   0  0  0  0  0  0  0  0  0  0  0  0
   18.7730   17.6460    7.6780 C   0  0  0  0  0  0  0  0  0  0  0  0
   20.0940   16.9670    7.7500 C   0  0  0  0  0  0  0  0  0  0  0  0
   21.1040   16.9300    6.8070 C   0  0  0  0  0  0  0  0  0  0  0  0
   22.0740   16.1620    7.3850 N   0  0  0  0  0  0  0  0  0  0  0  0
   23.5970   15.8470    6.7530 S   0  0  0  0  0  6  0  0  0  0  0  0
   23.4490   14.6530    5.9400 O   0  0  0  0  0  0  0  0  0  0  0  0
   24.0510   17.1090    6.1980 O   0  0  0  0  0  0  0  0  0  0  0  0
   24.6170   15.4510    8.1460 C   0  0  0  0  0  0  0  0  0  0  0  0
   24.7070   16.3400    9.2030 C   0  0  0  0  0  0  0  0  0  0  0  0
   25.5260   15.9920   10.2780 C   0  0  0  0  0  0  0  0  0  0  0  0
   25.6490   16.8990   11.4050 C   0  0  0  0  0  0  0  0  0  0  0  0
   24.7030   17.1840   12.3650 C   0  0  0  0  0  0  0  0  0  0  0  0
   25.3210   18.0920   13.1790 N   0  0  0  0  0  0  0  0  0  0  0  0
   24.7870   18.7280   14.3660 C   0  0  1  0  0  0  0  0  0  0  0  0
   25.2270   18.0920   15.6870 C   0  0  0  0  0  0  0  0  0  0  0  0
   26.6350   18.4990   16.0980 C   0  0  0  0  0  0  0  0  0  0  0  0
   26.8200   19.9960   16.0620 C   0  0  0  0  0  0  0  0  0  0  0  0
   27.6030   20.5800   16.8040 O   0  0  0  0  0  0  0  0  0  0  0  0
   26.0830   20.6850   15.1320 N   0  0  0  0  0  0  0  0  0  0  0  0
   25.0690   20.2140   14.3340 C   0  0  0  0  0  0  0  0  0  0  0  0
   24.4230   20.9860   13.6270 O   0  0  0  0  0  0  0  0  0  0  0  0
   26.5700   18.3480   12.7600 N   0  0  0  0  0  0  0  0  0  0  0  0
   26.7860   17.6180   11.6750 N   0  0  0  0  0  0  0  0  0  0  0  0
   26.2040   14.7670   10.2350 C   0  0  0  0  0  0  0  0  0  0  0  0
   26.0400   13.9460    9.1280 C   0  0  0  0  0  0  0  0  0  0  0  0
   25.2600   14.2590    8.0750 N   0  0  0  0  0  0  0  0  0  0  0  0
   21.6700   15.7980    8.6300 C   0  0  0  0  0  0  0  0  0  0  0  0
   20.4600   16.2570    8.8770 N   0  0  0  0  0  0  0  0  0  0  0  0
   18.9504   19.6134    8.5356 H   0  0  0  0  0  0  0  0  0  0  0  0
   19.8320   19.3891    6.9867 H   0  0  0  0  0  0  0  0  0  0  0  0
   18.0430   19.5504    6.9867 H   0  0  0  0  0  0  0  0  0  0  0  0
   18.2108   17.4255    8.5974 H   0  0  0  0  0  0  0  0  0  0  0  0
   18.2480   17.2696    6.7876 H   0  0  0  0  0  0  0  0  0  0  0  0
   21.1222   17.4096    5.8172 H   0  0  0  0  0  0  0  0  0  0  0  0
   24.1514   17.2893    9.1959 H   0  0  0  0  0  0  0  0  0  0  0  0
   23.6857   16.7755   12.4556 H   0  0  0  0  0  0  0  0  0  0  0  0
   23.6998   18.5632   14.3370 H   0  0  0  0  0  0  0  0  0  0  0  0
   24.5269   18.4023   16.4767 H   0  0  0  0  0  0  0  0  0  0  0  0
   25.2257   17.0011   15.5457 H   0  0  0  0  0  0  0  0  0  0  0  0
   26.8244   18.1416   17.1209 H   0  0  0  0  0  0  0  0  0  0  0  0
   27.3419   18.0505   15.3845 H   0  0  0  0  0  0  0  0  0  0  0  0
   26.3200   21.6809   15.0179 H   0  0  0  0  0  0  0  0  0  0  0  0
   26.8564   14.4604   11.0659 H   0  0  0  0  0  0  0  0  0  0  0  0
   26.5769   12.9861    9.1093 H   0  0  0  0  0  0  0  0  0  0  0  0
   22.2699   15.2027    9.3341 H   0  0  0  0  0  0  0  0  0  0  0  0
  1  2  1  0
  2  3  1  0
  3  4  2  0
  4  5  1  0
  5  6  1  0
  6  7  2  0
  6  8  2  0
  6  9  1  0
  9 10  2  0
 10 11  1  0
 11 12  1  0
 12 13  2  0
 13 14  1  0
 14 15  1  0
 15 16  1  0
 16 17  1  0
 17 18  1  0
 18 19  2  0
 18 20  1  0
 20 21  1  0
 21 22  2  0
 14 23  1  0
 23 24  2  0
 11 25  2  0
 25 26  1  0
 26 27  2  0
  5 28  1  0
 28 29  2  0
 29  3  1  0
 27  9  1  0
 24 12  1  0
 21 15  1  0
  1 30  1  0
  1 31  1  0
  1 32  1  0
  2 33  1  0
  2 34  1  0
  4 35  1  0
 10 36  1  0
 13 37  1  0
 15 38  1  6
 16 39  1  0
 16 40  1  0
 17 41  1  0
 17 42  1  0
 20 43  1  0
 25 44  1  0
 26 45  1  0
 28 46  1  0
M  END
>  <meeko>  (837) 
{"is_sidechain": [true], "free_energy": -10.46, "intermolecular_energy": 0.0, "internal_energy": -10.46, "cluster_size": 20, "cluster_id": 1, "rank_in_cluster": 1}

>  <_RMSD_MCS_to_ref>  (837) 
0.6553067135997389

$$$$
ligand
     RDKit          3D

 44 47  0  0  0  0  0  0  0  0999 V2000
   18.9090   19.1540    7.5370 C   0  0  0  0  0  0  0  0  0  0  0  0
   18.7730   17.6460    7.6780 C   0  0  0  0  0  0  0  0  0  0  0  0
   20.0720   16.9850    7.9840 C   0  0  0  0  0  0  0  0  0  0  0  0
   20.3710   16.0950    8.9960 C   0  0  0  0  0  0  0  0  0  0  0  0
   21.6790   15.7710    8.7820 N   0  0  0  0  0  0  0  0  0  0  0  0
   22.5820   14.6790    9.6810 S   0  0  0  0  0  6  0  0  0  0  0  0
   22.6140   13.4400    8.9290 O   0  0  0  0  0  0  0  0  0  0  0  0
   22.0080   14.7510   11.0140 O   0  0  0  0  0  0  0  0  0  0  0  0
   24.2200   15.3240    9.7580 C   0  0  0  0  0  0  0  0  0  0  0  0
   25.1160   14.9850    8.7290 C   0  0  0  0  0  0  0  0  0  0  0  0
   26.4160   15.4760    8.7380 C   0  0  0  0  0  0  0  0  0  0  0  0
   26.8500   16.3170    9.7630 C   0  0  0  0  0  0  0  0  0  0  0  0
   25.9410   16.6550   10.7820 C   0  0  0  0  0  0  0  0  0  0  0  0
   26.1980   17.6740   12.1450 S   0  0  0  0  0  0  0  0  0  0  0  0
   24.5960   17.3850   12.6570 C   0  0  0  0  0  0  0  0  0  0  0  0
   23.9500   18.1090   14.1150 S   0  0  0  0  0  0  0  0  0  0  0  0
   25.4910   18.5750   14.9710 C   0  0  2  0  0  0  0  0  0  0  0  0
   25.2810   18.4250   16.4760 C   0  0  0  0  0  0  0  0  0  0  0  0
   26.5550   18.8330   17.2030 C   0  0  0  0  0  0  0  0  0  0  0  0
   26.9350   20.2510   16.8620 C   0  0  0  0  0  0  0  0  0  0  0  0
   27.6070   20.9550   17.6090 O   0  0  0  0  0  0  0  0  0  0  0  0
   26.5290   20.7120   15.6350 N   0  0  0  0  0  0  0  0  0  0  0  0
   25.8960   20.0100   14.6330 C   0  0  0  0  0  0  0  0  0  0  0  0
   25.7310   20.5470   13.5380 O   0  0  0  0  0  0  0  0  0  0  0  0
   23.8690   16.6100   11.8830 N   0  0  0  0  0  0  0  0  0  0  0  0
   24.6280   16.1740   10.8050 C   0  0  0  0  0  0  0  0  0  0  0  0
   22.1330   16.4440    7.6960 C   0  0  0  0  0  0  0  0  0  0  0  0
   21.1890   17.2220    7.2020 N   0  0  0  0  0  0  0  0  0  0  0  0
   18.9504   19.6134    8.5356 H   0  0  0  0  0  0  0  0  0  0  0  0
   19.8320   19.3891    6.9867 H   0  0  0  0  0  0  0  0  0  0  0  0
   18.0430   19.5504    6.9867 H   0  0  0  0  0  0  0  0  0  0  0  0
   18.0660   17.4297    8.4925 H   0  0  0  0  0  0  0  0  0  0  0  0
   18.4136   17.2503    6.7166 H   0  0  0  0  0  0  0  0  0  0  0  0
   19.7064   15.7303    9.7930 H   0  0  0  0  0  0  0  0  0  0  0  0
   24.7859   14.3270    7.9116 H   0  0  0  0  0  0  0  0  0  0  0  0
   27.1089   15.1991    7.9298 H   0  0  0  0  0  0  0  0  0  0  0  0
   27.8786   16.7066    9.7741 H   0  0  0  0  0  0  0  0  0  0  0  0
   26.3035   17.9130   14.6370 H   0  0  0  0  0  0  0  0  0  0  0  0
   24.4509   19.0711   16.7977 H   0  0  0  0  0  0  0  0  0  0  0  0
   25.0398   17.3782   16.7127 H   0  0  0  0  0  0  0  0  0  0  0  0
   26.3920   18.7543   18.2880 H   0  0  0  0  0  0  0  0  0  0  0  0
   27.3699   18.1643   16.8887 H   0  0  0  0  0  0  0  0  0  0  0  0
   26.7211   21.7048   15.4392 H   0  0  0  0  0  0  0  0  0  0  0  0
   23.1487   16.3537    7.2836 H   0  0  0  0  0  0  0  0  0  0  0  0
  1  2  1  0
  2  3  1  0
  3  4  2  0
  4  5  1  0
  5  6  1  0
  6  7  2  0
  6  8  2  0
  6  9  1  0
  9 10  2  0
 10 11  1  0
 11 12  2  0
 12 13  1  0
 13 14  1  0
 14 15  1  0
 15 16  1  0
 16 17  1  0
 17 18  1  0
 18 19  1  0
 19 20  1  0
 20 21  2  0
 20 22  1  0
 22 23  1  0
 23 24  2  0
 15 25  2  0
 25 26  1  0
  5 27  1  0
 27 28  2  0
 28  3  1  0
 26  9  1  0
 26 13  2  0
 23 17  1  0
  1 29  1  0
  1 30  1  0
  1 31  1  0
  2 32  1  0
  2 33  1  0
  4 34  1  0
 10 35  1  0
 11 36  1  0
 12 37  1  0
 17 38  1  6
 18 39  1  0
 18 40  1  0
 19 41  1  0
 19 42  1  0
 22 43  1  0
 27 44  1  0
M  END
>  <meeko>  (838) 
{"is_sidechain": [true], "free_energy": -10.46, "intermolecular_energy": 0.0, "internal_energy": -10.46, "cluster_size": 5, "cluster_id": 1, "rank_in_cluster": 1}

>  <_RMSD_MCS_to_ref>  (838) 
0.8447231795091221

$$$$
ligand
     RDKit          3D

 52 55  0  0  0  0  0  0  0  0999 V2000
   18.9090   19.1540    7.5370 C   0  0  0  0  0  0  0  0  0  0  0  0
   18.7730   17.6460    7.6780 C   0  0  0  0  0  0  0  0  0  0  0  0
   20.0930   16.9590    7.6400 C   0  0  0  0  0  0  0  0  0  0  0  0
   21.0110   16.7870    8.6570 C   0  0  0  0  0  0  0  0  0  0  0  0
   22.0350   16.1010    8.0700 N   0  0  0  0  0  0  0  0  0  0  0  0
   23.4840   15.6830    8.8080 S   0  0  0  0  0  6  0  0  0  0  0  0
   23.8090   14.3840    8.2450 O   0  0  0  0  0  0  0  0  0  0  0  0
   24.3750   16.8180    8.6710 O   0  0  0  0  0  0  0  0  0  0  0  0
   23.1300   15.4480   10.5240 C   0  0  0  0  0  0  0  0  0  0  0  0
   24.0180   15.9980   11.4600 C   0  0  0  0  0  0  0  0  0  0  0  0
   23.7930   15.8020   12.8260 C   0  0  0  0  0  0  0  0  0  0  0  0
   24.7090   16.3500   13.8630 C   0  0  0  0  0  0  0  0  0  0  0  0
   25.2080   15.6070   14.7000 O   0  0  0  0  0  0  0  0  0  0  0  0
   24.9770   17.6990   13.8000 N   0  0  0  0  0  0  0  0  0  0  0  0
   25.9730   18.3040   14.6740 C   0  0  2  0  0  0  0  0  0  0  0  0
   25.6940   18.0250   16.1470 C   0  0  0  0  0  0  0  0  0  0  0  0
   26.7430   18.7160   17.0030 C   0  0  0  0  0  0  0  0  0  0  0  0
   26.8010   20.1970   16.7130 C   0  0  0  0  0  0  0  0  0  0  0  0
   27.0730   21.0270   17.5750 O   0  0  0  0  0  0  0  0  0  0  0  0
   26.5640   20.5800   15.4170 N   0  0  0  0  0  0  0  0  0  0  0  0
   25.9690   19.8190   14.4420 C   0  0  0  0  0  0  0  0  0  0  0  0
   25.4790   20.3340   13.4370 O   0  0  0  0  0  0  0  0  0  0  0  0
   22.6610   15.0950   13.2480 C   0  0  0  0  0  0  0  0  0  0  0  0
   21.7440   14.5810   12.3210 C   0  0  0  0  0  0  0  0  0  0  0  0
   22.0070   14.7300   10.9430 C   0  0  0  0  0  0  0  0  0  0  0  0
   21.1580   14.2380    9.9840 O   0  0  0  0  0  0  0  0  0  0  0  0
   20.2740   13.2170   10.4720 C   0  0  0  0  0  0  0  0  0  0  0  0
   19.6200   13.6370   11.7840 C   0  0  0  0  0  0  0  0  0  0  0  0
   20.6540   13.8240   12.7980 N   0  0  0  0  0  0  0  0  0  0  0  0
   21.7290   15.8720    6.7670 C   0  0  0  0  0  0  0  0  0  0  0  0
   20.5550   16.3890    6.4700 N   0  0  0  0  0  0  0  0  0  0  0  0
   18.9504   19.6134    8.5356 H   0  0  0  0  0  0  0  0  0  0  0  0
   19.8320   19.3891    6.9867 H   0  0  0  0  0  0  0  0  0  0  0  0
   18.0430   19.5504    6.9867 H   0  0  0  0  0  0  0  0  0  0  0  0
   18.2841   17.4221    8.6376 H   0  0  0  0  0  0  0  0  0  0  0  0
   18.1755   17.2790    6.8305 H   0  0  0  0  0  0  0  0  0  0  0  0
   20.9347   17.1252    9.7009 H   0  0  0  0  0  0  0  0  0  0  0  0
   24.8872   16.5807   11.1211 H   0  0  0  0  0  0  0  0  0  0  0  0
   24.4668   18.2879   13.1263 H   0  0  0  0  0  0  0  0  0  0  0  0
   26.9520   17.8646   14.4323 H   0  0  0  0  0  0  0  0  0  0  0  0
   24.6967   18.4075   16.4098 H   0  0  0  0  0  0  0  0  0  0  0  0
   25.7310   16.9405   16.3274 H   0  0  0  0  0  0  0  0  0  0  0  0
   26.4933   18.5684   18.0641 H   0  0  0  0  0  0  0  0  0  0  0  0
   27.7246   18.2782   16.7690 H   0  0  0  0  0  0  0  0  0  0  0  0
   26.8610   21.5295   15.1502 H   0  0  0  0  0  0  0  0  0  0  0  0
   22.4885   14.9405   14.3233 H   0  0  0  0  0  0  0  0  0  0  0  0
   19.4900   13.0327    9.7228 H   0  0  0  0  0  0  0  0  0  0  0  0
   20.8606   12.3038   10.6511 H   0  0  0  0  0  0  0  0  0  0  0  0
   19.0738   14.5805   11.6373 H   0  0  0  0  0  0  0  0  0  0  0  0
   18.9171   12.8573   12.1126 H   0  0  0  0  0  0  0  0  0  0  0  0
   20.5940   13.4456   13.7541 H   0  0  0  0  0  0  0  0  0  0  0  0
   22.3723   15.3300    6.0582 H   0  0  0  0  0  0  0  0  0  0  0  0
  1  2  1  0
  2  3  1  0
  3  4  2  0
  4  5  1  0
  5  6  1  0
  6  7  2  0
  6  8  2  0
  6  9  1  0
  9 10  2  0
 10 11  1  0
 11 12  1  0
 12 13  2  0
 12 14  1  0
 14 15  1  0
 15 16  1  0
 16 17  1  0
 17 18  1  0
 18 19  2  0
 18 20  1  0
 20 21  1  0
 21 22  2  0
 11 23  2  0
 23 24  1  0
 24 25  2  0
 25 26  1  0
 26 27  1  0
 27 28  1  0
 28 29  1  0
  5 30  1  0
 30 31  2  0
 31  3  1  0
 25  9  1  0
 21 15  1  0
 29 24  1  0
  1 32  1  0
  1 33  1  0
  1 34  1  0
  2 35  1  0
  2 36  1  0
  4 37  1  0
 10 38  1  0
 14 39  1  0
 15 40  1  6
 16 41  1  0
 16 42  1  0
 17 43  1  0
 17 44  1  0
 20 45  1  0
 23 46  1  0
 27 47  1  0
 27 48  1  0
 28 49  1  0
 28 50  1  0
 29 51  1  0
 30 52  1  0
M  END
>  <meeko>  (839) 
{"is_sidechain": [true], "free_energy": -10.46, "intermolecular_energy": 0.0, "internal_energy": -10.46, "cluster_size": 20, "cluster_id": 1, "rank_in_cluster": 1}

>  <_RMSD_MCS_to_ref>  (839) 
0.7033637434184072

$$$$
ligand
     RDKit          3D

 50 53  0  0  0  0  0  0  0  0999 V2000
   18.9090   19.1540    7.5370 C   0  0  0  0  0  0  0  0  0  0  0  0
   18.7730   17.6460    7.6780 C   0  0  0  0  0  0  0  0  0  0  0  0
   19.9040   16.9180    7.0410 C   0  0  0  0  0  0  0  0  0  0  0  0
   21.2550   17.2060    7.0800 C   0  0  0  0  0  0  0  0  0  0  0  0
   21.8270   16.2320    6.3130 N   0  0  0  0  0  0  0  0  0  0  0  0
   23.4740   15.9320    6.1780 S   0  0  0  0  0  6  0  0  0  0  0  0
   24.1070   17.2350    6.1110 O   0  0  0  0  0  0  0  0  0  0  0  0
   23.6190   14.9410    5.1310 O   0  0  0  0  0  0  0  0  0  0  0  0
   23.8900   15.1800    7.7300 C   0  0  0  0  0  0  0  0  0  0  0  0
   24.1860   13.8140    7.7820 C   0  0  0  0  0  0  0  0  0  0  0  0
   24.4950   13.2170    9.0100 C   0  0  0  0  0  0  0  0  0  0  0  0
   24.5270   13.9760   10.1860 C   0  0  0  0  0  0  0  0  0  0  0  0
   24.7620   13.3630   11.4280 N   0  0  0  0  0  0  0  0  0  0  0  0
   25.0070   14.0850   12.5570 N   0  0  0  0  0  0  0  0  0  0  0  0
   24.7450   15.3660   12.5700 C   0  0  0  0  0  0  0  0  0  0  0  0
   25.0460   16.1040   13.8560 C   0  0  0  0  0  0  0  0  0  0  0  0
   25.0590   15.5060   14.9200 O   0  0  0  0  0  0  0  0  0  0  0  0
   25.2380   17.4590   13.6990 N   0  0  0  0  0  0  0  0  0  0  0  0
   25.3380   18.3430   14.8490 C   0  0  1  0  0  0  0  0  0  0  0  0
   26.3140   17.8150   15.8950 C   0  0  0  0  0  0  0  0  0  0  0  0
   26.3980   18.7990   17.0540 C   0  0  0  0  0  0  0  0  0  0  0  0
   26.7790   20.1790   16.5750 C   0  0  0  0  0  0  0  0  0  0  0  0
   27.4510   20.9500   17.2540 O   0  0  0  0  0  0  0  0  0  0  0  0
   26.3050   20.5570   15.3440 N   0  0  0  0  0  0  0  0  0  0  0  0
   25.8080   19.7200   14.3740 C   0  0  0  0  0  0  0  0  0  0  0  0
   25.7340   20.0830   13.2000 O   0  0  0  0  0  0  0  0  0  0  0  0
   24.1820   16.0710   11.3680 C   0  0  0  0  0  0  0  0  0  0  0  0
   23.7230   17.1980   11.4560 O   0  0  0  0  0  0  0  0  0  0  0  0
   24.1990   15.3310   10.1060 C   0  0  0  0  0  0  0  0  0  0  0  0
   23.8760   15.9480    8.8940 C   0  0  0  0  0  0  0  0  0  0  0  0
   20.8620   15.3790    5.8830 C   0  0  0  0  0  0  0  0  0  0  0  0
   19.6770   15.7750    6.3010 N   0  0  0  0  0  0  0  0  0  0  0  0
   18.9504   19.6134    8.5356 H   0  0  0  0  0  0  0  0  0  0  0  0
   19.8320   19.3891    6.9867 H   0  0  0  0  0  0  0  0  0  0  0  0
   18.0430   19.5504    6.9867 H   0  0  0  0  0  0  0  0  0  0  0  0
   18.7452   17.3912    8.7477 H   0  0  0  0  0  0  0  0  0  0  0  0
   17.8461   17.3414    7.1700 H   0  0  0  0  0  0  0  0  0  0  0  0
   21.7551   18.0312    7.6082 H   0  0  0  0  0  0  0  0  0  0  0  0
   24.1760   13.2113    6.8619 H   0  0  0  0  0  0  0  0  0  0  0  0
   24.7150   12.1400    9.0514 H   0  0  0  0  0  0  0  0  0  0  0  0
   24.7486   12.3348   11.4869 H   0  0  0  0  0  0  0  0  0  0  0  0
   25.3120   17.8529   12.7502 H   0  0  0  0  0  0  0  0  0  0  0  0
   24.3452   18.4047   15.3185 H   0  0  0  0  0  0  0  0  0  0  0  0
   25.9623   16.8409   16.2659 H   0  0  0  0  0  0  0  0  0  0  0  0
   27.3092   17.6973   15.4413 H   0  0  0  0  0  0  0  0  0  0  0  0
   25.4187   18.8503   17.5523 H   0  0  0  0  0  0  0  0  0  0  0  0
   27.1719   18.4478   17.7524 H   0  0  0  0  0  0  0  0  0  0  0  0
   26.3235   21.5636   15.1264 H   0  0  0  0  0  0  0  0  0  0  0  0
   23.6164   17.0163    8.8591 H   0  0  0  0  0  0  0  0  0  0  0  0
   21.0441   14.4830    5.2714 H   0  0  0  0  0  0  0  0  0  0  0  0
  1  2  1  0
  2  3  1  0
  3  4  2  0
  4  5  1  0
  5  6  1  0
  6  7  2  0
  6  8  2  0
  6  9  1  0
  9 10  2  0
 10 11  1  0
 11 12  2  0
 12 13  1  0
 13 14  1  0
 14 15  2  0
 15 16  1  0
 16 17  2  0
 16 18  1  0
 18 19  1  0
 19 20  1  0
 20 21  1  0
 21 22  1  0
 22 23  2  0
 22 24  1  0
 24 25  1  0
 25 26  2  0
 15 27  1  0
 27 28  2  0
 27 29  1  0
 29 30  2  0
  5 31  1  0
 31 32  2  0
 32  3  1  0
 30  9  1  0
 29 12  1  0
 25 19  1  0
  1 33  1  0
  1 34  1  0
  1 35  1  0
  2 36  1  0
  2 37  1  0
  4 38  1  0
 10 39  1  0
 11 40  1  0
 13 41  1  0
 18 42  1  0
 19 43  1  1
 20 44  1  0
 20 45  1  0
 21 46  1  0
 21 47  1  0
 24 48  1  0
 30 49  1  0
 31 50  1  0
M  END
>  <meeko>  (840) 
{"is_sidechain": [true], "free_energy": -10.46, "intermolecular_energy": 0.0, "internal_energy": -10.46, "cluster_size": 19, "cluster_id": 1, "rank_in_cluster": 1}

>  <_RMSD_MCS_to_ref>  (840) 
0.5665524394675807

$$$$
ligand
     RDKit          3D

 45 47  0  0  0  0  0  0  0  0999 V2000
   18.9090   19.1540    7.5370 C   0  0  0  0  0  0  0  0  0  0  0  0
   18.7730   17.6460    7.6780 C   0  0  0  0  0  0  0  0  0  0  0  0
   20.0430   16.9350    7.3650 C   0  0  0  0  0  0  0  0  0  0  0  0
   21.0550   16.5480    8.2210 C   0  0  0  0  0  0  0  0  0  0  0  0
   21.9830   15.9690    7.4020 N   0  0  0  0  0  0  0  0  0  0  0  0
   23.3170   15.0740    7.9160 S   0  0  0  0  0  6  0  0  0  0  0  0
   22.7870   13.7580    8.2250 O   0  0  0  0  0  0  0  0  0  0  0  0
   24.3020   15.2620    6.8640 O   0  0  0  0  0  0  0  0  0  0  0  0
   23.9130   15.8520    9.3750 C   0  0  0  0  0  0  0  0  0  0  0  0
   25.1220   16.4330    9.3570 C   0  0  0  0  0  0  0  0  0  0  0  0
   25.6270   17.0770   10.5510 C   0  0  0  0  0  0  0  0  0  0  0  0
   24.9120   17.1240   11.6930 C   0  0  0  0  0  0  0  0  0  0  0  0
   25.5170   17.8090   12.8730 C   0  0  0  0  0  0  0  0  0  0  0  0
   26.7340   17.8890   13.0190 O   0  0  0  0  0  0  0  0  0  0  0  0
   24.6360   18.3320   13.7800 N   0  0  0  0  0  0  0  0  0  0  0  0
   25.0760   18.9770   15.0070 C   0  0  1  0  0  0  0  0  0  0  0  0
   26.1030   18.1270   15.7470 C   0  0  0  0  0  0  0  0  0  0  0  0
   26.5380   18.8420   17.0160 C   0  0  0  0  0  0  0  0  0  0  0  0
   27.0690   20.2240   16.7130 C   0  0  0  0  0  0  0  0  0  0  0  0
   27.9580   20.7460   17.3780 O   0  0  0  0  0  0  0  0  0  0  0  0
   26.4820   20.8920   15.6680 N   0  0  0  0  0  0  0  0  0  0  0  0
   25.6880   20.3450   14.6890 C   0  0  0  0  0  0  0  0  0  0  0  0
   25.4770   20.9540   13.6410 O   0  0  0  0  0  0  0  0  0  0  0  0
   23.5590   16.4920   11.6970 C   0  0  0  0  0  0  0  0  0  0  0  0
   22.8320   16.5030   12.6870 O   0  0  0  0  0  0  0  0  0  0  0  0
   23.1580   15.8900   10.5300 N   0  0  0  0  0  0  0  0  0  0  0  0
   21.5110   15.9650    6.1280 C   0  0  0  0  0  0  0  0  0  0  0  0
   20.3350   16.5550    6.0700 N   0  0  0  0  0  0  0  0  0  0  0  0
   18.9504   19.6134    8.5356 H   0  0  0  0  0  0  0  0  0  0  0  0
   19.8320   19.3891    6.9867 H   0  0  0  0  0  0  0  0  0  0  0  0
   18.0430   19.5504    6.9867 H   0  0  0  0  0  0  0  0  0  0  0  0
   18.4816   17.4118    8.7125 H   0  0  0  0  0  0  0  0  0  0  0  0
   18.0108   17.3072    6.9609 H   0  0  0  0  0  0  0  0  0  0  0  0
   21.1031   16.6764    9.3124 H   0  0  0  0  0  0  0  0  0  0  0  0
   25.7272   16.4201    8.4386 H   0  0  0  0  0  0  0  0  0  0  0  0
   26.6237   17.5418   10.5258 H   0  0  0  0  0  0  0  0  0  0  0  0
   23.6263   18.2666   13.5871 H   0  0  0  0  0  0  0  0  0  0  0  0
   24.1950   19.1005   15.6540 H   0  0  0  0  0  0  0  0  0  0  0  0
   25.6551   17.1570   16.0086 H   0  0  0  0  0  0  0  0  0  0  0  0
   26.9781   17.9662   15.1002 H   0  0  0  0  0  0  0  0  0  0  0  0
   25.6744   18.9301   17.6916 H   0  0  0  0  0  0  0  0  0  0  0  0
   27.3418   18.2566   17.4862 H   0  0  0  0  0  0  0  0  0  0  0  0
   26.6539   21.9060   15.6117 H   0  0  0  0  0  0  0  0  0  0  0  0
   22.2331   15.4370   10.5154 H   0  0  0  0  0  0  0  0  0  0  0  0
   22.0374   15.5299    5.2657 H   0  0  0  0  0  0  0  0  0  0  0  0
  1  2  1  0
  2  3  1  0
  3  4  2  0
  4  5  1  0
  5  6  1  0
  6  7  2  0
  6  8  2  0
  6  9  1  0
  9 10  2  0
 10 11  1  0
 11 12  2  0
 12 13  1  0
 13 14  2  0
 13 15  1  0
 15 16  1  0
 16 17  1  0
 17 18  1  0
 18 19  1  0
 19 20  2  0
 19 21  1  0
 21 22  1  0
 22 23  2  0
 12 24  1  0
 24 25  2  0
 24 26  1  0
  5 27  1  0
 27 28  2  0
 28  3  1  0
 26  9  1  0
 22 16  1  0
  1 29  1  0
  1 30  1  0
  1 31  1  0
  2 32  1  0
  2 33  1  0
  4 34  1  0
 10 35  1  0
 11 36  1  0
 15 37  1  0
 16 38  1  1
 17 39  1  0
 17 40  1  0
 18 41  1  0
 18 42  1  0
 21 43  1  0
 26 44  1  0
 27 45  1  0
M  END
>  <meeko>  (841) 
{"is_sidechain": [true], "free_energy": -10.46, "intermolecular_energy": 0.0, "internal_energy": -10.46, "cluster_size": 16, "cluster_id": 1, "rank_in_cluster": 1}

>  <_RMSD_MCS_to_ref>  (841) 
0.7533777273054995

$$$$
ligand
     RDKit          3D

 54 58  0  0  0  0  0  0  0  0999 V2000
   18.9090   19.1540    7.5370 C   0  0  0  0  0  0  0  0  0  0  0  0
   18.7730   17.6460    7.6780 C   0  0  0  0  0  0  0  0  0  0  0  0
   20.0930   16.9740    7.8080 C   0  0  0  0  0  0  0  0  0  0  0  0
   20.8870   16.8270    8.9300 C   0  0  0  0  0  0  0  0  0  0  0  0
   21.9920   16.1700    8.4710 N   0  0  0  0  0  0  0  0  0  0  0  0
   23.2060   15.5160    9.4310 S   0  0  0  0  0  6  0  0  0  0  0  0
   24.2920   16.4760    9.4770 O   0  0  0  0  0  0  0  0  0  0  0  0
   23.4180   14.1880    8.8850 O   0  0  0  0  0  0  0  0  0  0  0  0
   22.5230   15.3550   11.0660 C   0  0  0  0  0  0  0  0  0  0  0  0
   21.4240   14.4960   11.3200 C   0  0  0  0  0  0  0  0  0  0  0  0
   20.8170   13.6420   10.2970 C   0  0  0  0  0  0  0  0  0  0  0  0
   21.3340   12.4080    9.9310 C   0  0  0  0  0  0  0  0  0  0  0  0
   20.6730   11.6760    8.9530 C   0  0  0  0  0  0  0  0  0  0  0  0
   19.5360   12.2200    8.3900 C   0  0  0  0  0  0  0  0  0  0  0  0
   19.0580   13.4260    8.7540 N   0  0  0  0  0  0  0  0  0  0  0  0
   19.7080   14.1450    9.7140 N   0  0  0  0  0  0  0  0  0  0  0  0
   20.8970   14.4260   12.6390 C   0  0  0  0  0  0  0  0  0  0  0  0
   21.4290   15.1810   13.6840 C   0  0  0  0  0  0  0  0  0  0  0  0
   22.4860   16.0160   13.3880 C   0  0  0  0  0  0  0  0  0  0  0  0
   23.0350   16.1270   12.1100 C   0  0  0  0  0  0  0  0  0  0  0  0
   24.1600   17.1170   12.1470 C   0  0  0  0  0  0  0  0  0  0  0  0
   24.1610   17.5640   13.5340 N   0  0  0  0  0  0  0  0  0  0  0  0
   25.2720   18.2920   14.1360 C   0  0  2  0  0  0  0  0  0  0  0  0
   25.5000   17.9150   15.5960 C   0  0  0  0  0  0  0  0  0  0  0  0
   26.7190   18.6560   16.1230 C   0  0  0  0  0  0  0  0  0  0  0  0
   26.5760   20.1490   15.9390 C   0  0  0  0  0  0  0  0  0  0  0  0
   27.0300   20.9560   16.7440 O   0  0  0  0  0  0  0  0  0  0  0  0
   25.9280   20.5700   14.8050 N   0  0  0  0  0  0  0  0  0  0  0  0
   25.0710   19.8150   14.0380 C   0  0  0  0  0  0  0  0  0  0  0  0
   24.2140   20.3560   13.3430 O   0  0  0  0  0  0  0  0  0  0  0  0
   23.2300   16.8880   14.3010 C   0  0  0  0  0  0  0  0  0  0  0  0
   23.0420   16.9650   15.4990 O   0  0  0  0  0  0  0  0  0  0  0  0
   21.8230   15.8750    7.1570 C   0  0  0  0  0  0  0  0  0  0  0  0
   20.6800   16.3640    6.7180 N   0  0  0  0  0  0  0  0  0  0  0  0
   18.9504   19.6134    8.5356 H   0  0  0  0  0  0  0  0  0  0  0  0
   19.8320   19.3891    6.9867 H   0  0  0  0  0  0  0  0  0  0  0  0
   18.0430   19.5504    6.9867 H   0  0  0  0  0  0  0  0  0  0  0  0
   18.1736   17.4263    8.5738 H   0  0  0  0  0  0  0  0  0  0  0  0
   18.2869   17.2637    6.7683 H   0  0  0  0  0  0  0  0  0  0  0  0
   20.6768   17.1623    9.9564 H   0  0  0  0  0  0  0  0  0  0  0  0
   22.2470   12.0179   10.4046 H   0  0  0  0  0  0  0  0  0  0  0  0
   21.0450   10.6906    8.6360 H   0  0  0  0  0  0  0  0  0  0  0  0
   19.0013   11.6487    7.6169 H   0  0  0  0  0  0  0  0  0  0  0  0
   20.0465   13.7581   12.8405 H   0  0  0  0  0  0  0  0  0  0  0  0
   21.0218   15.1132   14.7036 H   0  0  0  0  0  0  0  0  0  0  0  0
   25.1155   16.6389   11.8854 H   0  0  0  0  0  0  0  0  0  0  0  0
   24.0359   17.9398   11.4275 H   0  0  0  0  0  0  0  0  0  0  0  0
   26.1625   18.0008   13.5596 H   0  0  0  0  0  0  0  0  0  0  0  0
   24.6164   18.1928   16.1894 H   0  0  0  0  0  0  0  0  0  0  0  0
   25.6662   16.8305   15.6745 H   0  0  0  0  0  0  0  0  0  0  0  0
   26.8361   18.4366   17.1945 H   0  0  0  0  0  0  0  0  0  0  0  0
   27.6009   18.3195   15.5582 H   0  0  0  0  0  0  0  0  0  0  0  0
   26.0987   21.5390   14.5005 H   0  0  0  0  0  0  0  0  0  0  0  0
   22.5391   15.3076    6.5444 H   0  0  0  0  0  0  0  0  0  0  0  0
  1  2  1  0
  2  3  1  0
  3  4  2  0
  4  5  1  0
  5  6  1  0
  6  7  2  0
  6  8  2  0
  6  9  1  0
  9 10  1  0
 10 11  1  0
 11 12  2  0
 12 13  1  0
 13 14  2  0
 14 15  1  0
 15 16  2  0
 10 17  2  0
 17 18  1  0
 18 19  2  0
 19 20  1  0
 20 21  1  0
 21 22  1  0
 22 23  1  0
 23 24  1  0
 24 25  1  0
 25 26  1  0
 26 27  2  0
 26 28  1  0
 28 29  1  0
 29 30  2  0
 22 31  1  0
 31 32  2  0
  5 33  1  0
 33 34  2  0
 34  3  1  0
 20  9  2  0
 29 23  1  0
 16 11  1  0
 31 19  1  0
  1 35  1  0
  1 36  1  0
  1 37  1  0
  2 38  1  0
  2 39  1  0
  4 40  1  0
 12 41  1  0
 13 42  1  0
 14 43  1  0
 17 44  1  0
 18 45  1  0
 21 46  1  0
 21 47  1  0
 23 48  1  6
 24 49  1  0
 24 50  1  0
 25 51  1  0
 25 52  1  0
 28 53  1  0
 33 54  1  0
M  END
>  <meeko>  (842) 
{"is_sidechain": [true], "free_energy": -10.46, "intermolecular_energy": 0.0, "internal_energy": -10.46, "cluster_size": 17, "cluster_id": 1, "rank_in_cluster": 1}

>  <_RMSD_MCS_to_ref>  (842) 
1.9775278337695616

$$$$
ligand
     RDKit          3D

 53 57  0  0  0  0  0  0  0  0999 V2000
   18.8250   19.0170    7.5350 C   0  0  0  0  0  0  0  0  0  0  0  0
   18.5200   17.5420    7.7330 C   0  0  0  0  0  0  0  0  0  0  0  0
   19.6760   16.6660    7.3960 C   0  0  0  0  0  0  0  0  0  0  0  0
   20.8830   16.5310    8.0540 C   0  0  0  0  0  0  0  0  0  0  0  0
   21.5740   15.6280    7.3010 N   0  0  0  0  0  0  0  0  0  0  0  0
   23.0950   15.0030    7.6170 S   0  0  0  0  0  6  0  0  0  0  0  0
   23.7560   15.9400    8.5070 O   0  0  0  0  0  0  0  0  0  0  0  0
   23.6280   14.6350    6.3190 O   0  0  0  0  0  0  0  0  0  0  0  0
   22.9160   13.5260    8.5330 C   0  0  0  0  0  0  0  0  0  0  0  0
   22.6910   12.3240    7.9690 N   0  0  0  0  0  0  0  0  0  0  0  0
   22.6010   11.4830    9.0100 N   0  0  0  0  0  0  0  0  0  0  0  0
   22.7320   12.1000   10.2180 C   0  0  0  0  0  0  0  0  0  0  0  0
   22.9520   13.4340    9.9510 C   0  0  0  0  0  0  0  0  0  0  0  0
   23.1460   14.4250   10.9870 C   0  0  0  0  0  0  0  0  0  0  0  0
   22.1350   15.3790   11.2390 C   0  0  0  0  0  0  0  0  0  0  0  0
   22.3120   16.3700   12.2070 C   0  0  0  0  0  0  0  0  0  0  0  0
   23.5080   16.3750   12.8980 C   0  0  0  0  0  0  0  0  0  0  0  0
   24.5160   15.4420   12.6660 C   0  0  0  0  0  0  0  0  0  0  0  0
   24.3460   14.4500   11.7160 C   0  0  0  0  0  0  0  0  0  0  0  0
   25.6950   15.7440   13.5260 C   0  0  0  0  0  0  0  0  0  0  0  0
   25.2290   16.8650   14.3300 N   0  0  0  0  0  0  0  0  0  0  0  0
   26.1570   17.6610   15.1260 C   0  0  2  0  0  0  0  0  0  0  0  0
   25.7360   17.8230   16.5870 C   0  0  0  0  0  0  0  0  0  0  0  0
   26.8000   18.6140   17.3320 C   0  0  0  0  0  0  0  0  0  0  0  0
   27.0450   19.9540   16.6780 C   0  0  0  0  0  0  0  0  0  0  0  0
   27.5090   20.9080   17.2970 O   0  0  0  0  0  0  0  0  0  0  0  0
   26.8030   20.0370   15.3300 N   0  0  0  0  0  0  0  0  0  0  0  0
   26.4000   19.0350   14.4790 C   0  0  0  0  0  0  0  0  0  0  0  0
   26.3460   19.2320   13.2660 O   0  0  0  0  0  0  0  0  0  0  0  0
   23.9800   17.3120   13.9210 C   0  0  0  0  0  0  0  0  0  0  0  0
   23.3720   18.3000   14.2850 O   0  0  0  0  0  0  0  0  0  0  0  0
   20.8150   15.2530    6.2400 C   0  0  0  0  0  0  0  0  0  0  0  0
   19.6430   15.8510    6.2790 N   0  0  0  0  0  0  0  0  0  0  0  0
   18.9260   19.5054    8.5155 H   0  0  0  0  0  0  0  0  0  0  0  0
   19.7645   19.1250    6.9731 H   0  0  0  0  0  0  0  0  0  0  0  0
   18.0054   19.4887    6.9731 H   0  0  0  0  0  0  0  0  0  0  0  0
   18.2487   17.3770    8.7862 H   0  0  0  0  0  0  0  0  0  0  0  0
   17.6950   17.2792    7.0545 H   0  0  0  0  0  0  0  0  0  0  0  0
   21.2115   17.0360    8.9743 H   0  0  0  0  0  0  0  0  0  0  0  0
   22.4478   10.4697    8.9065 H   0  0  0  0  0  0  0  0  0  0  0  0
   22.6737   11.6271   11.2094 H   0  0  0  0  0  0  0  0  0  0  0  0
   21.1969   15.3408   10.6658 H   0  0  0  0  0  0  0  0  0  0  0  0
   21.5303   17.1166   12.4110 H   0  0  0  0  0  0  0  0  0  0  0  0
   25.1307   13.7004   11.5366 H   0  0  0  0  0  0  0  0  0  0  0  0
   25.9544   14.8829   14.1594 H   0  0  0  0  0  0  0  0  0  0  0  0
   26.6064   15.9685   12.9524 H   0  0  0  0  0  0  0  0  0  0  0  0
   27.0993   17.0936   15.1395 H   0  0  0  0  0  0  0  0  0  0  0  0
   24.7773   18.3602   16.6357 H   0  0  0  0  0  0  0  0  0  0  0  0
   25.6224   16.8316   17.0498 H   0  0  0  0  0  0  0  0  0  0  0  0
   26.4667   18.7761   18.3677 H   0  0  0  0  0  0  0  0  0  0  0  0
   27.7382   18.0402   17.3110 H   0  0  0  0  0  0  0  0  0  0  0  0
   26.9401   20.9642   14.9029 H   0  0  0  0  0  0  0  0  0  0  0  0
   21.1343   14.5486    5.4578 H   0  0  0  0  0  0  0  0  0  0  0  0
  1  2  1  0
  2  3  1  0
  3  4  2  0
  4  5  1  0
  5  6  1  0
  6  7  2  0
  6  8  2  0
  6  9  1  0
  9 10  2  0
 10 11  1  0
 11 12  1  0
 12 13  2  0
 13 14  1  0
 14 15  2  0
 15 16  1  0
 16 17  2  0
 17 18  1  0
 18 19  2  0
 18 20  1  0
 20 21  1  0
 21 22  1  0
 22 23  1  0
 23 24  1  0
 24 25  1  0
 25 26  2  0
 25 27  1  0
 27 28  1  0
 28 29  2  0
 21 30  1  0
 30 31  2  0
  5 32  1  0
 32 33  2  0
 33  3  1  0
 13  9  1  0
 19 14  1  0
 28 22  1  0
 30 17  1  0
  1 34  1  0
  1 35  1  0
  1 36  1  0
  2 37  1  0
  2 38  1  0
  4 39  1  0
 11 40  1  0
 12 41  1  0
 15 42  1  0
 16 43  1  0
 19 44  1  0
 20 45  1  0
 20 46  1  0
 22 47  1  1
 23 48  1  0
 23 49  1  0
 24 50  1  0
 24 51  1  0
 27 52  1  0
 32 53  1  0
M  END
>  <meeko>  (843) 
{"is_sidechain": [true], "free_energy": -10.45, "intermolecular_energy": 0.0, "internal_energy": -10.45, "cluster_size": 17, "cluster_id": 1, "rank_in_cluster": 1}

>  <_RMSD_MCS_to_ref>  (843) 
1.19628863573972

$$$$
ligand
     RDKit          3D

 47 50  0  0  0  0  0  0  0  0999 V2000
   18.7970   18.8170    7.7190 C   0  0  0  0  0  0  0  0  0  0  0  0
   18.5280   17.3290    7.8810 C   0  0  0  0  0  0  0  0  0  0  0  0
   19.7870   16.5350    7.9350 C   0  0  0  0  0  0  0  0  0  0  0  0
   20.3590   15.8910    9.0140 C   0  0  0  0  0  0  0  0  0  0  0  0
   21.4890   15.3240    8.5040 N   0  0  0  0  0  0  0  0  0  0  0  0
   22.4980   14.2290    9.2830 S   0  0  0  0  0  6  0  0  0  0  0  0
   22.4330   13.0230    8.4780 O   0  0  0  0  0  0  0  0  0  0  0  0
   23.7450   14.9200    9.5390 O   0  0  0  0  0  0  0  0  0  0  0  0
   21.6940   13.9190   10.8280 C   0  0  0  0  0  0  0  0  0  0  0  0
   20.4560   13.2670   10.8130 C   0  0  0  0  0  0  0  0  0  0  0  0
   19.8190   13.0450   12.0170 C   0  0  0  0  0  0  0  0  0  0  0  0
   20.2930   13.4070   13.2210 N   0  0  0  0  0  0  0  0  0  0  0  0
   21.4960   14.0140   13.1940 C   0  0  0  0  0  0  0  0  0  0  0  0
   22.2280   14.5230   14.6440 S   0  0  0  0  0  0  0  0  0  0  0  0
   23.6020   15.1200   13.8240 C   0  0  0  0  0  0  0  0  0  0  0  0
   24.7180   15.7470   14.5170 C   0  0  0  0  0  0  0  0  0  0  0  0
   25.6560   15.1010   14.9800 O   0  0  0  0  0  0  0  0  0  0  0  0
   24.6790   17.1190   14.6220 N   0  0  0  0  0  0  0  0  0  0  0  0
   25.7900   17.8870   15.1590 C   0  0  2  0  0  0  0  0  0  0  0  0
   25.8490   17.8230   16.6820 C   0  0  0  0  0  0  0  0  0  0  0  0
   27.0090   18.6720   17.1800 C   0  0  0  0  0  0  0  0  0  0  0  0
   26.9050   20.0930   16.6780 C   0  0  0  0  0  0  0  0  0  0  0  0
   27.2880   21.0540   17.3390 O   0  0  0  0  0  0  0  0  0  0  0  0
   26.3830   20.2640   15.4210 N   0  0  0  0  0  0  0  0  0  0  0  0
   25.6330   19.3480   14.7280 C   0  0  0  0  0  0  0  0  0  0  0  0
   24.8920   19.6960   13.8080 O   0  0  0  0  0  0  0  0  0  0  0  0
   23.4900   14.9220   12.4590 C   0  0  0  0  0  0  0  0  0  0  0  0
   22.2600   14.2970   12.0670 C   0  0  0  0  0  0  0  0  0  0  0  0
   21.5760   15.6130    7.1800 C   0  0  0  0  0  0  0  0  0  0  0  0
   20.5520   16.3480    6.8010 N   0  0  0  0  0  0  0  0  0  0  0  0
   18.8815   19.2845    8.7111 H   0  0  0  0  0  0  0  0  0  0  0  0
   19.7359   18.9616    7.1643 H   0  0  0  0  0  0  0  0  0  0  0  0
   17.9682   19.2812    7.1643 H   0  0  0  0  0  0  0  0  0  0  0  0
   17.9676   17.1693    8.8140 H   0  0  0  0  0  0  0  0  0  0  0  0
   17.9518   16.9916    7.0068 H   0  0  0  0  0  0  0  0  0  0  0  0
   19.9879   15.8458   10.0485 H   0  0  0  0  0  0  0  0  0  0  0  0
   20.0022   12.9398    9.8659 H   0  0  0  0  0  0  0  0  0  0  0  0
   18.8467   12.5313   11.9887 H   0  0  0  0  0  0  0  0  0  0  0  0
   23.8340   17.6182   14.3095 H   0  0  0  0  0  0  0  0  0  0  0  0
   26.7228   17.4548   14.7677 H   0  0  0  0  0  0  0  0  0  0  0  0
   24.9073   18.2061   17.1020 H   0  0  0  0  0  0  0  0  0  0  0  0
   25.9945   16.7801   17.0001 H   0  0  0  0  0  0  0  0  0  0  0  0
   27.0013   18.6792   18.2799 H   0  0  0  0  0  0  0  0  0  0  0  0
   27.9453   18.2374   16.7999 H   0  0  0  0  0  0  0  0  0  0  0  0
   26.5715   21.1628   14.9546 H   0  0  0  0  0  0  0  0  0  0  0  0
   24.2707   15.2162   11.7421 H   0  0  0  0  0  0  0  0  0  0  0  0
   22.3882   15.2796    6.5173 H   0  0  0  0  0  0  0  0  0  0  0  0
  1  2  1  0
  2  3  1  0
  3  4  2  0
  4  5  1  0
  5  6  1  0
  6  7  2  0
  6  8  2  0
  6  9  1  0
  9 10  2  0
 10 11  1  0
 11 12  2  0
 12 13  1  0
 13 14  1  0
 14 15  1  0
 15 16  1  0
 16 17  2  0
 16 18  1  0
 18 19  1  0
 19 20  1  0
 20 21  1  0
 21 22  1  0
 22 23  2  0
 22 24  1  0
 24 25  1  0
 25 26  2  0
 15 27  2  0
 27 28  1  0
  5 29  1  0
 29 30  2  0
 30  3  1  0
 28  9  1  0
 28 13  2  0
 25 19  1  0
  1 31  1  0
  1 32  1  0
  1 33  1  0
  2 34  1  0
  2 35  1  0
  4 36  1  0
 10 37  1  0
 11 38  1  0
 18 39  1  0
 19 40  1  6
 20 41  1  0
 20 42  1  0
 21 43  1  0
 21 44  1  0
 24 45  1  0
 27 46  1  0
 29 47  1  0
M  END
>  <meeko>  (844) 
{"is_sidechain": [true], "free_energy": -10.45, "intermolecular_energy": 0.0, "internal_energy": -10.45, "cluster_size": 17, "cluster_id": 1, "rank_in_cluster": 1}

>  <_RMSD_MCS_to_ref>  (844) 
0.5886019216942988

$$$$
ligand
     RDKit          3D

 52 56  0  0  0  0  0  0  0  0999 V2000
   18.9090   19.1530    7.5370 C   0  0  0  0  0  0  0  0  0  0  0  0
   18.7730   17.6470    7.6780 C   0  0  0  0  0  0  0  0  0  0  0  0
   20.0850   16.9470    7.6020 C   0  0  0  0  0  0  0  0  0  0  0  0
   20.6370   16.0380    8.4840 C   0  0  0  0  0  0  0  0  0  0  0  0
   21.8390   15.7210    7.9260 N   0  0  0  0  0  0  0  0  0  0  0  0
   22.9860   14.6600    8.5340 S   0  0  0  0  0  6  0  0  0  0  0  0
   23.7050   14.2080    7.3570 O   0  0  0  0  0  0  0  0  0  0  0  0
   22.2960   13.7320    9.4060 O   0  0  0  0  0  0  0  0  0  0  0  0
   24.0920   15.6520    9.5160 C   0  0  0  0  0  0  0  0  0  0  0  0
   23.6270   16.0320   10.7880 C   0  0  0  0  0  0  0  0  0  0  0  0
   24.4670   16.7840   11.5830 C   0  0  0  0  0  0  0  0  0  0  0  0
   25.7300   17.1840   11.1680 C   0  0  0  0  0  0  0  0  0  0  0  0
   26.1940   16.8310    9.9140 C   0  0  0  0  0  0  0  0  0  0  0  0
   25.3770   16.0500    9.0620 C   0  0  0  0  0  0  0  0  0  0  0  0
   25.9130   15.7450    7.7370 C   0  0  0  0  0  0  0  0  0  0  0  0
   26.7140   14.7060    7.3050 C   0  0  0  0  0  0  0  0  0  0  0  0
   26.9470   14.8060    5.9040 C   0  0  0  0  0  0  0  0  0  0  0  0
   26.3700   15.8220    5.2700 N   0  0  0  0  0  0  0  0  0  0  0  0
   25.5040   16.7070    6.3730 S   0  0  0  0  0  0  0  0  0  0  0  0
   26.3770   18.0110   12.2290 C   0  0  0  0  0  0  0  0  0  0  0  0
   25.4130   17.9420   13.3190 N   0  0  0  0  0  0  0  0  0  0  0  0
   25.5300   18.8090   14.4890 C   0  0  2  0  0  0  0  0  0  0  0  0
   26.3550   20.0720   14.2410 C   0  0  0  0  0  0  0  0  0  0  0  0
   26.3580   20.9250   15.5000 C   0  0  0  0  0  0  0  0  0  0  0  0
   26.8810   20.1490   16.6870 C   0  0  0  0  0  0  0  0  0  0  0  0
   27.3610   20.7050   17.6710 O   0  0  0  0  0  0  0  0  0  0  0  0
   26.7170   18.7870   16.6550 N   0  0  0  0  0  0  0  0  0  0  0  0
   26.0800   18.0350   15.6960 C   0  0  0  0  0  0  0  0  0  0  0  0
   25.8860   16.8330   15.8750 O   0  0  0  0  0  0  0  0  0  0  0  0
   24.2400   17.3130   12.9320 C   0  0  0  0  0  0  0  0  0  0  0  0
   23.1950   17.2060   13.5420 O   0  0  0  0  0  0  0  0  0  0  0  0
   21.9720   16.3770    6.7450 C   0  0  0  0  0  0  0  0  0  0  0  0
   20.9350   17.1580    6.5330 N   0  0  0  0  0  0  0  0  0  0  0  0
   18.9505   19.6125    8.5356 H   0  0  0  0  0  0  0  0  0  0  0  0
   19.8320   19.3879    6.9867 H   0  0  0  0  0  0  0  0  0  0  0  0
   18.0430   19.5494    6.9867 H   0  0  0  0  0  0  0  0  0  0  0  0
   18.3099   17.4240    8.6505 H   0  0  0  0  0  0  0  0  0  0  0  0
   18.1532   17.2875    6.8434 H   0  0  0  0  0  0  0  0  0  0  0  0
   20.2052   15.6575    9.4215 H   0  0  0  0  0  0  0  0  0  0  0  0
   22.6260   15.7390   11.1375 H   0  0  0  0  0  0  0  0  0  0  0  0
   27.1911   17.1549    9.5810 H   0  0  0  0  0  0  0  0  0  0  0  0
   27.1156   13.9126    7.9525 H   0  0  0  0  0  0  0  0  0  0  0  0
   27.5750   14.0768    5.3712 H   0  0  0  0  0  0  0  0  0  0  0  0
   27.3460   17.5851   12.5285 H   0  0  0  0  0  0  0  0  0  0  0  0
   26.5998   19.0389   11.9069 H   0  0  0  0  0  0  0  0  0  0  0  0
   24.5074   19.1483   14.7105 H   0  0  0  0  0  0  0  0  0  0  0  0
   27.3873   19.7921   13.9842 H   0  0  0  0  0  0  0  0  0  0  0  0
   25.9148   20.6427   13.4100 H   0  0  0  0  0  0  0  0  0  0  0  0
   26.9987   21.8040   15.3359 H   0  0  0  0  0  0  0  0  0  0  0  0
   25.3237   21.2322   15.7141 H   0  0  0  0  0  0  0  0  0  0  0  0
   27.1201   18.2642   17.4456 H   0  0  0  0  0  0  0  0  0  0  0  0
   22.8270   16.2704    6.0612 H   0  0  0  0  0  0  0  0  0  0  0  0
  1  2  1  0
  2  3  1  0
  3  4  2  0
  4  5  1  0
  5  6  1  0
  6  7  2  0
  6  8  2  0
  6  9  1  0
  9 10  2  0
 10 11  1  0
 11 12  2  0
 12 13  1  0
 13 14  2  0
 14 15  1  0
 15 16  2  0
 16 17  1  0
 17 18  2  0
 18 19  1  0
 12 20  1  0
 20 21  1  0
 21 22  1  0
 22 23  1  0
 23 24  1  0
 24 25  1  0
 25 26  2  0
 25 27  1  0
 27 28  1  0
 28 29  2  0
 21 30  1  0
 30 31  2  0
  5 32  1  0
 32 33  2  0
 33  3  1  0
 14  9  1  0
 19 15  1  0
 28 22  1  0
 30 11  1  0
  1 34  1  0
  1 35  1  0
  1 36  1  0
  2 37  1  0
  2 38  1  0
  4 39  1  0
 10 40  1  0
 13 41  1  0
 16 42  1  0
 17 43  1  0
 20 44  1  0
 20 45  1  0
 22 46  1  1
 23 47  1  0
 23 48  1  0
 24 49  1  0
 24 50  1  0
 27 51  1  0
 32 52  1  0
M  END
>  <meeko>  (845) 
{"is_sidechain": [true], "free_energy": -10.45, "intermolecular_energy": 0.0, "internal_energy": -10.45, "cluster_size": 19, "cluster_id": 2, "rank_in_cluster": 1}

>  <_RMSD_MCS_to_ref>  (845) 
1.7587925150827517

$$$$
ligand
     RDKit          3D

 46 49  0  0  0  0  0  0  0  0999 V2000
   18.9090   19.1540    7.5370 C   0  0  0  0  0  0  0  0  0  0  0  0
   18.7730   17.6460    7.6780 C   0  0  0  0  0  0  0  0  0  0  0  0
   20.0420   16.9350    7.3640 C   0  0  0  0  0  0  0  0  0  0  0  0
   21.0350   16.5080    8.2250 C   0  0  0  0  0  0  0  0  0  0  0  0
   21.9670   15.9390    7.4050 N   0  0  0  0  0  0  0  0  0  0  0  0
   23.2880   15.0290    7.9030 S   0  0  0  0  0  6  0  0  0  0  0  0
   24.3920   15.4430    7.0600 O   0  0  0  0  0  0  0  0  0  0  0  0
   22.8260   13.6580    7.9620 O   0  0  0  0  0  0  0  0  0  0  0  0
   23.5880   15.5930    9.5360 C   0  0  0  0  0  0  0  0  0  0  0  0
   24.6950   16.3690    9.7970 C   0  0  0  0  0  0  0  0  0  0  0  0
   24.9710   16.8390   11.0300 N   0  0  0  0  0  0  0  0  0  0  0  0
   24.1310   16.5000   12.0560 C   0  0  0  0  0  0  0  0  0  0  0  0
   24.3150   16.9300   13.3780 C   0  0  0  0  0  0  0  0  0  0  0  0
   25.4810   17.6740   13.6790 N   0  0  0  0  0  0  0  0  0  0  0  0
   25.4290   18.5060   14.8870 C   0  0  1  0  0  0  0  0  0  0  0  0
   26.3380   17.9130   15.9610 C   0  0  0  0  0  0  0  0  0  0  0  0
   26.3490   18.8180   17.1810 C   0  0  0  0  0  0  0  0  0  0  0  0
   26.7930   20.2150   16.8210 C   0  0  0  0  0  0  0  0  0  0  0  0
   27.3490   20.9570   17.6250 O   0  0  0  0  0  0  0  0  0  0  0  0
   26.4910   20.6470   15.5540 N   0  0  0  0  0  0  0  0  0  0  0  0
   25.9180   19.9230   14.5370 C   0  0  0  0  0  0  0  0  0  0  0  0
   25.7790   20.4160   13.4170 O   0  0  0  0  0  0  0  0  0  0  0  0
   23.4800   16.6000   14.3880 N   0  0  0  0  0  0  0  0  0  0  0  0
   22.4330   15.8330   14.0700 C   0  0  0  0  0  0  0  0  0  0  0  0
   22.1430   15.3670   12.8500 N   0  0  0  0  0  0  0  0  0  0  0  0
   22.9910   15.7040   11.8700 C   0  0  0  0  0  0  0  0  0  0  0  0
   22.7380   15.2490   10.5850 C   0  0  0  0  0  0  0  0  0  0  0  0
   21.5210   15.9870    6.1230 C   0  0  0  0  0  0  0  0  0  0  0  0
   20.3560   16.5960    6.0630 N   0  0  0  0  0  0  0  0  0  0  0  0
   18.9504   19.6134    8.5356 H   0  0  0  0  0  0  0  0  0  0  0  0
   19.8320   19.3891    6.9867 H   0  0  0  0  0  0  0  0  0  0  0  0
   18.0430   19.5504    6.9867 H   0  0  0  0  0  0  0  0  0  0  0  0
   18.4825   17.4118    8.7128 H   0  0  0  0  0  0  0  0  0  0  0  0
   18.0102   17.3074    6.9614 H   0  0  0  0  0  0  0  0  0  0  0  0
   21.0673   16.6044    9.3203 H   0  0  0  0  0  0  0  0  0  0  0  0
   25.3782   16.6141    8.9704 H   0  0  0  0  0  0  0  0  0  0  0  0
   26.3200   17.6337   13.0829 H   0  0  0  0  0  0  0  0  0  0  0  0
   24.3966   18.5438   15.2648 H   0  0  0  0  0  0  0  0  0  0  0  0
   25.9650   16.9185   16.2471 H   0  0  0  0  0  0  0  0  0  0  0  0
   27.3602   17.8248   15.5643 H   0  0  0  0  0  0  0  0  0  0  0  0
   25.3346   18.8619   17.6042 H   0  0  0  0  0  0  0  0  0  0  0  0
   27.0579   18.4055   17.9140 H   0  0  0  0  0  0  0  0  0  0  0  0
   26.7207   21.6282   15.3408 H   0  0  0  0  0  0  0  0  0  0  0  0
   21.7472   15.5600   14.8856 H   0  0  0  0  0  0  0  0  0  0  0  0
   21.8614   14.6129   10.3926 H   0  0  0  0  0  0  0  0  0  0  0  0
   22.0583   15.5746    5.2563 H   0  0  0  0  0  0  0  0  0  0  0  0
  1  2  1  0
  2  3  1  0
  3  4  2  0
  4  5  1  0
  5  6  1  0
  6  7  2  0
  6  8  2  0
  6  9  1  0
  9 10  2  0
 10 11  1  0
 11 12  2  0
 12 13  1  0
 13 14  1  0
 14 15  1  0
 15 16  1  0
 16 17  1  0
 17 18  1  0
 18 19  2  0
 18 20  1  0
 20 21  1  0
 21 22  2  0
 13 23  2  0
 23 24  1  0
 24 25  2  0
 25 26  1  0
 26 27  2  0
  5 28  1  0
 28 29  2  0
 29  3  1  0
 27  9  1  0
 26 12  1  0
 21 15  1  0
  1 30  1  0
  1 31  1  0
  1 32  1  0
  2 33  1  0
  2 34  1  0
  4 35  1  0
 10 36  1  0
 14 37  1  0
 15 38  1  1
 16 39  1  0
 16 40  1  0
 17 41  1  0
 17 42  1  0
 20 43  1  0
 24 44  1  0
 27 45  1  0
 28 46  1  0
M  END
>  <meeko>  (846) 
{"is_sidechain": [true], "free_energy": -10.45, "intermolecular_energy": 0.0, "internal_energy": -10.45, "cluster_size": 20, "cluster_id": 1, "rank_in_cluster": 1}

>  <_RMSD_MCS_to_ref>  (846) 
0.7005311476935833

$$$$
ligand
     RDKit          3D

 45 48  0  0  0  0  0  0  0  0999 V2000
   18.9090   19.1540    7.5370 C   0  0  0  0  0  0  0  0  0  0  0  0
   18.7730   17.6460    7.6780 C   0  0  0  0  0  0  0  0  0  0  0  0
   20.0440   16.9360    7.3700 C   0  0  0  0  0  0  0  0  0  0  0  0
   21.0250   16.4970    8.2360 C   0  0  0  0  0  0  0  0  0  0  0  0
   21.9670   15.9390    7.4210 N   0  0  0  0  0  0  0  0  0  0  0  0
   23.3390   15.1150    7.9110 S   0  0  0  0  0  6  0  0  0  0  0  0
   24.4020   15.5140    7.0080 O   0  0  0  0  0  0  0  0  0  0  0  0
   22.9390   13.7350    8.1100 O   0  0  0  0  0  0  0  0  0  0  0  0
   23.8200   15.6790    9.4620 C   0  0  0  0  0  0  0  0  0  0  0  0
   24.9460   16.4690    9.6880 N   0  0  0  0  0  0  0  0  0  0  0  0
   24.9650   16.6940   10.9910 C   0  0  0  0  0  0  0  0  0  0  0  0
   23.9130   16.0860   11.6170 N   0  0  0  0  0  0  0  0  0  0  0  0
   23.4310   15.9600   12.9090 C   0  0  0  0  0  0  0  0  0  0  0  0
   24.0600   16.6020   14.0850 C   0  0  0  0  0  0  0  0  0  0  0  0
   24.2300   15.9760   15.1260 O   0  0  0  0  0  0  0  0  0  0  0  0
   24.3920   17.9240   13.9500 N   0  0  0  0  0  0  0  0  0  0  0  0
   24.8770   18.7050   15.0810 C   0  0  1  0  0  0  0  0  0  0  0  0
   25.9550   17.9730   15.8730 C   0  0  0  0  0  0  0  0  0  0  0  0
   26.4460   18.8640   17.0040 C   0  0  0  0  0  0  0  0  0  0  0  0
   26.9350   20.1950   16.4810 C   0  0  0  0  0  0  0  0  0  0  0  0
   27.8720   20.8000   16.9920 O   0  0  0  0  0  0  0  0  0  0  0  0
   26.2580   20.7200   15.4090 N   0  0  0  0  0  0  0  0  0  0  0  0
   25.4600   20.0160   14.5440 C   0  0  0  0  0  0  0  0  0  0  0  0
   25.2270   20.4240   13.4070 O   0  0  0  0  0  0  0  0  0  0  0  0
   22.2980   15.2270   12.9280 C   0  0  0  0  0  0  0  0  0  0  0  0
   21.8140   14.6420   11.3290 S   0  0  0  0  0  0  0  0  0  0  0  0
   23.1890   15.4480   10.6510 C   0  0  0  0  0  0  0  0  0  0  0  0
   21.5290   15.9900    6.1360 C   0  0  0  0  0  0  0  0  0  0  0  0
   20.3720   16.6150    6.0670 N   0  0  0  0  0  0  0  0  0  0  0  0
   18.9504   19.6134    8.5356 H   0  0  0  0  0  0  0  0  0  0  0  0
   19.8320   19.3891    6.9867 H   0  0  0  0  0  0  0  0  0  0  0  0
   18.0430   19.5504    6.9867 H   0  0  0  0  0  0  0  0  0  0  0  0
   18.4779   17.4120    8.7115 H   0  0  0  0  0  0  0  0  0  0  0  0
   18.0135   17.3066    6.9583 H   0  0  0  0  0  0  0  0  0  0  0  0
   21.0434   16.5783    9.3328 H   0  0  0  0  0  0  0  0  0  0  0  0
   25.7300   17.2940   11.5055 H   0  0  0  0  0  0  0  0  0  0  0  0
   24.2969   18.3760   13.0294 H   0  0  0  0  0  0  0  0  0  0  0  0
   24.0314   18.8844   15.7612 H   0  0  0  0  0  0  0  0  0  0  0  0
   25.5365   17.0459   16.2918 H   0  0  0  0  0  0  0  0  0  0  0  0
   26.7960   17.7278   15.2078 H   0  0  0  0  0  0  0  0  0  0  0  0
   25.6191   19.0376   17.7083 H   0  0  0  0  0  0  0  0  0  0  0  0
   27.2844   18.3585   17.5055 H   0  0  0  0  0  0  0  0  0  0  0  0
   26.3579   21.7310   15.2393 H   0  0  0  0  0  0  0  0  0  0  0  0
   21.7313   15.0141   13.8464 H   0  0  0  0  0  0  0  0  0  0  0  0
   22.0659   15.5681    5.2736 H   0  0  0  0  0  0  0  0  0  0  0  0
  1  2  1  0
  2  3  1  0
  3  4  2  0
  4  5  1  0
  5  6  1  0
  6  7  2  0
  6  8  2  0
  6  9  1  0
  9 10  1  0
 10 11  2  0
 11 12  1  0
 12 13  1  0
 13 14  1  0
 14 15  2  0
 14 16  1  0
 16 17  1  0
 17 18  1  0
 18 19  1  0
 19 20  1  0
 20 21  2  0
 20 22  1  0
 22 23  1  0
 23 24  2  0
 13 25  2  0
 25 26  1  0
 26 27  1  0
  5 28  1  0
 28 29  2  0
 29  3  1  0
 27  9  2  0
 27 12  1  0
 23 17  1  0
  1 30  1  0
  1 31  1  0
  1 32  1  0
  2 33  1  0
  2 34  1  0
  4 35  1  0
 11 36  1  0
 16 37  1  0
 17 38  1  1
 18 39  1  0
 18 40  1  0
 19 41  1  0
 19 42  1  0
 22 43  1  0
 25 44  1  0
 28 45  1  0
M  END
>  <meeko>  (847) 
{"is_sidechain": [true], "free_energy": -10.45, "intermolecular_energy": 0.0, "internal_energy": -10.45, "cluster_size": 11, "cluster_id": 1, "rank_in_cluster": 1}

>  <_RMSD_MCS_to_ref>  (847) 
0.4892628241662254

$$$$
ligand
     RDKit          3D

 48 51  0  0  0  0  0  0  0  0999 V2000
   18.9090   19.1540    7.5370 C   0  0  0  0  0  0  0  0  0  0  0  0
   18.7730   17.6460    7.6780 C   0  0  0  0  0  0  0  0  0  0  0  0
   20.0710   16.9450    7.4800 C   0  0  0  0  0  0  0  0  0  0  0  0
   20.7000   16.0310    8.3010 C   0  0  0  0  0  0  0  0  0  0  0  0
   21.8430   15.7080    7.6280 N   0  0  0  0  0  0  0  0  0  0  0  0
   23.0510   14.6780    8.1990 S   0  0  0  0  0  6  0  0  0  0  0  0
   22.2960   13.6330    8.8740 O   0  0  0  0  0  0  0  0  0  0  0  0
   23.8590   14.3480    7.0390 O   0  0  0  0  0  0  0  0  0  0  0  0
   24.0140   15.5110    9.3550 C   0  0  0  0  0  0  0  0  0  0  0  0
   25.1560   16.0930    8.9470 C   0  0  0  0  0  0  0  0  0  0  0  0
   25.9980   16.8330    9.9280 C   0  0  0  0  0  0  0  0  0  0  0  0
   27.0430   17.3570    9.5670 O   0  0  0  0  0  0  0  0  0  0  0  0
   25.5460   16.8860   11.2240 N   0  0  0  0  0  0  0  0  0  0  0  0
   24.3590   16.2840   11.6000 C   0  0  0  0  0  0  0  0  0  0  0  0
   23.7260   16.2160   12.8240 C   0  0  0  0  0  0  0  0  0  0  0  0
   24.2040   16.8070   14.0590 C   0  0  0  0  0  0  0  0  0  0  0  0
   24.1570   16.2000   15.1260 O   0  0  0  0  0  0  0  0  0  0  0  0
   24.6990   18.0830   13.9600 N   0  0  0  0  0  0  0  0  0  0  0  0
   25.0850   18.8430   15.1410 C   0  0  1  0  0  0  0  0  0  0  0  0
   26.0830   18.0930   16.0160 C   0  0  0  0  0  0  0  0  0  0  0  0
   26.4740   18.9640   17.2000 C   0  0  0  0  0  0  0  0  0  0  0  0
   27.0130   20.3010   16.7460 C   0  0  0  0  0  0  0  0  0  0  0  0
   27.8990   20.8940   17.3510 O   0  0  0  0  0  0  0  0  0  0  0  0
   26.4390   20.8450   15.6240 N   0  0  0  0  0  0  0  0  0  0  0  0
   25.7180   20.1590   14.6800 C   0  0  0  0  0  0  0  0  0  0  0  0
   25.5880   20.5860   13.5340 O   0  0  0  0  0  0  0  0  0  0  0  0
   22.5660   15.4690   12.5330 C   0  0  0  0  0  0  0  0  0  0  0  0
   22.4820   15.0980   11.2530 N   0  0  0  0  0  0  0  0  0  0  0  0
   23.5910   15.6020   10.6670 N   0  0  0  0  0  0  0  0  0  0  0  0
   21.8980   16.4190    6.4730 C   0  0  0  0  0  0  0  0  0  0  0  0
   20.8270   17.1770    6.3480 N   0  0  0  0  0  0  0  0  0  0  0  0
   18.9504   19.6134    8.5356 H   0  0  0  0  0  0  0  0  0  0  0  0
   19.8320   19.3891    6.9867 H   0  0  0  0  0  0  0  0  0  0  0  0
   18.0430   19.5504    6.9867 H   0  0  0  0  0  0  0  0  0  0  0  0
   18.3963   17.4167    8.6857 H   0  0  0  0  0  0  0  0  0  0  0  0
   18.0770   17.2950    6.9019 H   0  0  0  0  0  0  0  0  0  0  0  0
   20.3585   15.6500    9.2748 H   0  0  0  0  0  0  0  0  0  0  0  0
   25.4666   16.0228    7.8941 H   0  0  0  0  0  0  0  0  0  0  0  0
   26.1036   17.3853   11.9316 H   0  0  0  0  0  0  0  0  0  0  0  0
   24.7999   18.5130   13.0295 H   0  0  0  0  0  0  0  0  0  0  0  0
   24.1826   19.0165   15.7456 H   0  0  0  0  0  0  0  0  0  0  0  0
   25.6237   17.1625   16.3811 H   0  0  0  0  0  0  0  0  0  0  0  0
   26.9796   17.8524   15.4259 H   0  0  0  0  0  0  0  0  0  0  0  0
   25.5878   19.1305   17.8301 H   0  0  0  0  0  0  0  0  0  0  0  0
   27.2629   18.4463   17.7654 H   0  0  0  0  0  0  0  0  0  0  0  0
   26.5604   21.8574   15.4781 H   0  0  0  0  0  0  0  0  0  0  0  0
   21.8051   15.2167   13.2863 H   0  0  0  0  0  0  0  0  0  0  0  0
   22.7204   16.3695    5.7442 H   0  0  0  0  0  0  0  0  0  0  0  0
  1  2  1  0
  2  3  1  0
  3  4  2  0
  4  5  1  0
  5  6  1  0
  6  7  2  0
  6  8  2  0
  6  9  1  0
  9 10  2  0
 10 11  1  0
 11 12  2  0
 11 13  1  0
 13 14  1  0
 14 15  2  0
 15 16  1  0
 16 17  2  0
 16 18  1  0
 18 19  1  0
 19 20  1  0
 20 21  1  0
 21 22  1  0
 22 23  2  0
 22 24  1  0
 24 25  1  0
 25 26  2  0
 15 27  1  0
 27 28  2  0
 28 29  1  0
  5 30  1  0
 30 31  2  0
 31  3  1  0
 29  9  1  0
 29 14  1  0
 25 19  1  0
  1 32  1  0
  1 33  1  0
  1 34  1  0
  2 35  1  0
  2 36  1  0
  4 37  1  0
 10 38  1  0
 13 39  1  0
 18 40  1  0
 19 41  1  1
 20 42  1  0
 20 43  1  0
 21 44  1  0
 21 45  1  0
 24 46  1  0
 27 47  1  0
 30 48  1  0
M  END
>  <meeko>  (848) 
{"is_sidechain": [true], "free_energy": -10.45, "intermolecular_energy": 0.0, "internal_energy": -10.45, "cluster_size": 8, "cluster_id": 1, "rank_in_cluster": 1}

>  <_RMSD_MCS_to_ref>  (848) 
0.7058442541461329

$$$$
ligand
     RDKit          3D

 55 59  0  0  0  0  0  0  0  0999 V2000
   18.9090   19.1540    7.5370 C   0  0  0  0  0  0  0  0  0  0  0  0
   18.7730   17.6460    7.6780 C   0  0  0  0  0  0  0  0  0  0  0  0
   20.0860   16.9520    7.5840 C   0  0  0  0  0  0  0  0  0  0  0  0
   20.6150   15.9880    8.4190 C   0  0  0  0  0  0  0  0  0  0  0  0
   21.8450   15.7290    7.8920 N   0  0  0  0  0  0  0  0  0  0  0  0
   23.0010   14.6770    8.4980 S   0  0  0  0  0  6  0  0  0  0  0  0
   22.3180   13.7420    9.3690 O   0  0  0  0  0  0  0  0  0  0  0  0
   23.7210   14.2380    7.3170 O   0  0  0  0  0  0  0  0  0  0  0  0
   24.1090   15.6640    9.4880 C   0  0  0  0  0  0  0  0  0  0  0  0
   23.6340   16.0410   10.7570 C   0  0  0  0  0  0  0  0  0  0  0  0
   24.4700   16.7890   11.5590 C   0  0  0  0  0  0  0  0  0  0  0  0
   25.7390   17.1830   11.1570 C   0  0  0  0  0  0  0  0  0  0  0  0
   26.2120   16.8300    9.9050 C   0  0  0  0  0  0  0  0  0  0  0  0
   25.4000   16.0590    9.0370 C   0  0  0  0  0  0  0  0  0  0  0  0
   25.9550   15.7430    7.7140 C   0  0  0  0  0  0  0  0  0  0  0  0
   26.7290   14.5970    7.5090 C   0  0  0  0  0  0  0  0  0  0  0  0
   27.2120   14.3360    6.2360 C   0  0  0  0  0  0  0  0  0  0  0  0
   26.9690   15.1210    5.1680 N   0  0  0  0  0  0  0  0  0  0  0  0
   26.2050   16.2120    5.3750 C   0  0  0  0  0  0  0  0  0  0  0  0
   25.6780   16.5570    6.6090 C   0  0  0  0  0  0  0  0  0  0  0  0
   26.3800   18.0050   12.2240 C   0  0  0  0  0  0  0  0  0  0  0  0
   25.4080   17.9370   13.3060 N   0  0  0  0  0  0  0  0  0  0  0  0
   25.5200   18.7990   14.4800 C   0  0  2  0  0  0  0  0  0  0  0  0
   26.3410   20.0650   14.2390 C   0  0  0  0  0  0  0  0  0  0  0  0
   26.3390   20.9140   15.5030 C   0  0  0  0  0  0  0  0  0  0  0  0
   26.8630   20.1340   16.6860 C   0  0  0  0  0  0  0  0  0  0  0  0
   27.3380   20.6880   17.6740 O   0  0  0  0  0  0  0  0  0  0  0  0
   26.7070   18.7720   16.6480 N   0  0  0  0  0  0  0  0  0  0  0  0
   26.0700   18.0210   15.6860 C   0  0  0  0  0  0  0  0  0  0  0  0
   25.8770   16.8190   15.8610 O   0  0  0  0  0  0  0  0  0  0  0  0
   24.2350   17.3140   12.9080 C   0  0  0  0  0  0  0  0  0  0  0  0
   23.1850   17.2120   13.5110 O   0  0  0  0  0  0  0  0  0  0  0  0
   22.0090   16.4590    6.7590 C   0  0  0  0  0  0  0  0  0  0  0  0
   20.9720   17.2470    6.5640 N   0  0  0  0  0  0  0  0  0  0  0  0
   18.9504   19.6134    8.5356 H   0  0  0  0  0  0  0  0  0  0  0  0
   19.8320   19.3891    6.9867 H   0  0  0  0  0  0  0  0  0  0  0  0
   18.0430   19.5504    6.9867 H   0  0  0  0  0  0  0  0  0  0  0  0
   18.3225   17.4208    8.6559 H   0  0  0  0  0  0  0  0  0  0  0  0
   18.1406   17.2854    6.8534 H   0  0  0  0  0  0  0  0  0  0  0  0
   20.1503   15.5332    9.3062 H   0  0  0  0  0  0  0  0  0  0  0  0
   22.6298   15.7491   11.0981 H   0  0  0  0  0  0  0  0  0  0  0  0
   27.2155   17.1472    9.5849 H   0  0  0  0  0  0  0  0  0  0  0  0
   26.9508   13.9146    8.3428 H   0  0  0  0  0  0  0  0  0  0  0  0
   27.8287   13.4370    6.0894 H   0  0  0  0  0  0  0  0  0  0  0  0
   25.9879   16.8646    4.5166 H   0  0  0  0  0  0  0  0  0  0  0  0
   25.0526   17.4552    6.7187 H   0  0  0  0  0  0  0  0  0  0  0  0
   27.3452   17.5753   12.5300 H   0  0  0  0  0  0  0  0  0  0  0  0
   26.6086   19.0329   11.9058 H   0  0  0  0  0  0  0  0  0  0  0  0
   24.4959   19.1341   14.7011 H   0  0  0  0  0  0  0  0  0  0  0  0
   27.3747   19.7895   13.9830 H   0  0  0  0  0  0  0  0  0  0  0  0
   25.9004   20.6377   13.4096 H   0  0  0  0  0  0  0  0  0  0  0  0
   26.9768   21.7960   15.3438 H   0  0  0  0  0  0  0  0  0  0  0  0
   25.3036   21.2176   15.7170 H   0  0  0  0  0  0  0  0  0  0  0  0
   27.1160   18.2474   17.4344 H   0  0  0  0  0  0  0  0  0  0  0  0
   22.8853   16.4004    6.0967 H   0  0  0  0  0  0  0  0  0  0  0  0
  1  2  1  0
  2  3  1  0
  3  4  2  0
  4  5  1  0
  5  6  1  0
  6  7  2  0
  6  8  2  0
  6  9  1  0
  9 10  2  0
 10 11  1  0
 11 12  2  0
 12 13  1  0
 13 14  2  0
 14 15  1  0
 15 16  2  0
 16 17  1  0
 17 18  2  0
 18 19  1  0
 19 20  2  0
 12 21  1  0
 21 22  1  0
 22 23  1  0
 23 24  1  0
 24 25  1  0
 25 26  1  0
 26 27  2  0
 26 28  1  0
 28 29  1  0
 29 30  2  0
 22 31  1  0
 31 32  2  0
  5 33  1  0
 33 34  2  0
 34  3  1  0
 14  9  1  0
 20 15  1  0
 29 23  1  0
 31 11  1  0
  1 35  1  0
  1 36  1  0
  1 37  1  0
  2 38  1  0
  2 39  1  0
  4 40  1  0
 10 41  1  0
 13 42  1  0
 16 43  1  0
 17 44  1  0
 19 45  1  0
 20 46  1  0
 21 47  1  0
 21 48  1  0
 23 49  1  1
 24 50  1  0
 24 51  1  0
 25 52  1  0
 25 53  1  0
 28 54  1  0
 33 55  1  0
M  END
>  <meeko>  (849) 
{"is_sidechain": [true], "free_energy": -10.45, "intermolecular_energy": 0.0, "internal_energy": -10.45, "cluster_size": 13, "cluster_id": 2, "rank_in_cluster": 1}

>  <_RMSD_MCS_to_ref>  (849) 
1.7615667426722412

$$$$
ligand
     RDKit          3D

 52 56  0  0  0  0  0  0  0  0999 V2000
   18.8250   19.0170    7.5350 C   0  0  0  0  0  0  0  0  0  0  0  0
   18.5200   17.5420    7.7330 C   0  0  0  0  0  0  0  0  0  0  0  0
   19.7520   16.7350    7.9400 C   0  0  0  0  0  0  0  0  0  0  0  0
   20.0420   15.8350    8.9480 C   0  0  0  0  0  0  0  0  0  0  0  0
   21.3080   15.4110    8.6620 N   0  0  0  0  0  0  0  0  0  0  0  0
   22.1360   14.1810    9.4480 S   0  0  0  0  0  6  0  0  0  0  0  0
   21.1490   13.1260    9.5920 O   0  0  0  0  0  0  0  0  0  0  0  0
   23.3680   13.9590    8.7160 O   0  0  0  0  0  0  0  0  0  0  0  0
   22.5400   14.7880   11.0690 C   0  0  0  0  0  0  0  0  0  0  0  0
   23.8020   15.3790   11.2440 C   0  0  0  0  0  0  0  0  0  0  0  0
   24.0980   15.8960   12.4890 C   0  0  0  0  0  0  0  0  0  0  0  0
   23.1990   15.8680   13.5510 C   0  0  0  0  0  0  0  0  0  0  0  0
   21.9460   15.3010   13.3870 C   0  0  0  0  0  0  0  0  0  0  0  0
   21.6040   14.7560   12.1310 C   0  0  0  0  0  0  0  0  0  0  0  0
   20.3030   14.1330   12.0040 C   0  0  0  0  0  0  0  0  0  0  0  0
   20.0390   12.8210   12.3410 C   0  0  0  0  0  0  0  0  0  0  0  0
   18.3870   12.4710   12.0310 S   0  0  0  0  0  0  0  0  0  0  0  0
   18.1710   14.0790   11.4750 C   0  0  0  0  0  0  0  0  0  0  0  0
   19.2380   14.8490   11.5050 N   0  0  0  0  0  0  0  0  0  0  0  0
   23.8010   16.5200   14.7510 C   0  0  0  0  0  0  0  0  0  0  0  0
   25.1490   16.8380   14.2940 N   0  0  0  0  0  0  0  0  0  0  0  0
   26.0520   17.7270   15.0160 C   0  0  2  0  0  0  0  0  0  0  0  0
   25.8620   17.6530   16.5280 C   0  0  0  0  0  0  0  0  0  0  0  0
   26.8930   18.5400   17.2110 C   0  0  0  0  0  0  0  0  0  0  0  0
   26.8150   19.9590   16.6970 C   0  0  0  0  0  0  0  0  0  0  0  0
   26.9940   20.9320   17.4250 O   0  0  0  0  0  0  0  0  0  0  0  0
   26.5450   20.1140   15.3610 N   0  0  0  0  0  0  0  0  0  0  0  0
   25.9060   19.1910   14.5660 C   0  0  0  0  0  0  0  0  0  0  0  0
   25.2620   19.5540   13.5850 O   0  0  0  0  0  0  0  0  0  0  0  0
   25.3240   16.5580   12.9480 C   0  0  0  0  0  0  0  0  0  0  0  0
   26.2900   16.7940   12.2500 O   0  0  0  0  0  0  0  0  0  0  0  0
   21.7060   15.9630    7.4860 C   0  0  0  0  0  0  0  0  0  0  0  0
   20.7970   16.8060    7.0390 N   0  0  0  0  0  0  0  0  0  0  0  0
   18.9260   19.5054    8.5155 H   0  0  0  0  0  0  0  0  0  0  0  0
   19.7645   19.1250    6.9731 H   0  0  0  0  0  0  0  0  0  0  0  0
   18.0054   19.4887    6.9731 H   0  0  0  0  0  0  0  0  0  0  0  0
   17.8712   17.4299    8.6142 H   0  0  0  0  0  0  0  0  0  0  0  0
   18.0256   17.1747    6.8216 H   0  0  0  0  0  0  0  0  0  0  0  0
   19.4003   15.5303    9.7878 H   0  0  0  0  0  0  0  0  0  0  0  0
   24.5279   15.4280   10.4190 H   0  0  0  0  0  0  0  0  0  0  0  0
   21.2297   15.2759   14.2215 H   0  0  0  0  0  0  0  0  0  0  0  0
   20.7736   12.1093   12.7458 H   0  0  0  0  0  0  0  0  0  0  0  0
   17.1983   14.4451   11.1147 H   0  0  0  0  0  0  0  0  0  0  0  0
   23.2496   17.4309   15.0272 H   0  0  0  0  0  0  0  0  0  0  0  0
   23.7806   15.8873   15.6506 H   0  0  0  0  0  0  0  0  0  0  0  0
   27.0640   17.3728   14.7704 H   0  0  0  0  0  0  0  0  0  0  0  0
   24.8506   17.9986   16.7881 H   0  0  0  0  0  0  0  0  0  0  0  0
   25.9911   16.6136   16.8641 H   0  0  0  0  0  0  0  0  0  0  0  0
   26.7057   18.5396   18.2949 H   0  0  0  0  0  0  0  0  0  0  0  0
   27.8954   18.1434   16.9920 H   0  0  0  0  0  0  0  0  0  0  0  0
   26.8453   20.9934   14.9168 H   0  0  0  0  0  0  0  0  0  0  0  0
   22.6551   15.7376    6.9777 H   0  0  0  0  0  0  0  0  0  0  0  0
  1  2  1  0
  2  3  1  0
  3  4  2  0
  4  5  1  0
  5  6  1  0
  6  7  2  0
  6  8  2  0
  6  9  1  0
  9 10  2  0
 10 11  1  0
 11 12  2  0
 12 13  1  0
 13 14  2  0
 14 15  1  0
 15 16  2  0
 16 17  1  0
 17 18  1  0
 18 19  2  0
 12 20  1  0
 20 21  1  0
 21 22  1  0
 22 23  1  0
 23 24  1  0
 24 25  1  0
 25 26  2  0
 25 27  1  0
 27 28  1  0
 28 29  2  0
 21 30  1  0
 30 31  2  0
  5 32  1  0
 32 33  2  0
 33  3  1  0
 14  9  1  0
 19 15  1  0
 28 22  1  0
 30 11  1  0
  1 34  1  0
  1 35  1  0
  1 36  1  0
  2 37  1  0
  2 38  1  0
  4 39  1  0
 10 40  1  0
 13 41  1  0
 16 42  1  0
 18 43  1  0
 20 44  1  0
 20 45  1  0
 22 46  1  1
 23 47  1  0
 23 48  1  0
 24 49  1  0
 24 50  1  0
 27 51  1  0
 32 52  1  0
M  END
>  <meeko>  (850) 
{"is_sidechain": [true], "free_energy": -10.44, "intermolecular_energy": 0.0, "internal_energy": -10.44, "cluster_size": 11, "cluster_id": 1, "rank_in_cluster": 1}

>  <_RMSD_MCS_to_ref>  (850) 
1.9944095617500435

$$$$
ligand
     RDKit          3D

 49 52  0  0  0  0  0  0  0  0999 V2000
   18.7970   18.8170    7.7190 C   0  0  0  0  0  0  0  0  0  0  0  0
   18.5280   17.3290    7.8810 C   0  0  0  0  0  0  0  0  0  0  0  0
   19.7810   16.5280    7.8600 C   0  0  0  0  0  0  0  0  0  0  0  0
   20.1380   15.4510    8.6470 C   0  0  0  0  0  0  0  0  0  0  0  0
   21.3810   15.1050    8.1990 N   0  0  0  0  0  0  0  0  0  0  0  0
   22.3270   13.8550    8.8030 S   0  0  0  0  0  6  0  0  0  0  0  0
   21.3640   12.8750    9.2760 O   0  0  0  0  0  0  0  0  0  0  0  0
   23.3060   13.5280    7.7860 O   0  0  0  0  0  0  0  0  0  0  0  0
   23.1710   14.4810   10.2130 C   0  0  0  0  0  0  0  0  0  0  0  0
   22.6300   14.2750   11.4900 C   0  0  0  0  0  0  0  0  0  0  0  0
   23.2880   14.7720   12.6300 C   0  0  0  0  0  0  0  0  0  0  0  0
   24.4920   15.4820   12.5120 C   0  0  0  0  0  0  0  0  0  0  0  0
   25.2140   16.0210   13.6990 C   0  0  0  0  0  0  0  0  0  0  0  0
   25.5360   15.2820   14.6210 O   0  0  0  0  0  0  0  0  0  0  0  0
   25.5170   17.3630   13.6760 N   0  0  0  0  0  0  0  0  0  0  0  0
   26.3470   17.9640   14.7130 C   0  0  2  0  0  0  0  0  0  0  0  0
   25.7400   17.8070   16.1030 C   0  0  0  0  0  0  0  0  0  0  0  0
   26.6320   18.4930   17.1250 C   0  0  0  0  0  0  0  0  0  0  0  0
   26.8600   19.9440   16.7700 C   0  0  0  0  0  0  0  0  0  0  0  0
   26.9910   20.8180   17.6220 O   0  0  0  0  0  0  0  0  0  0  0  0
   26.9460   20.2440   15.4350 N   0  0  0  0  0  0  0  0  0  0  0  0
   26.5030   19.4560   14.4020 C   0  0  0  0  0  0  0  0  0  0  0  0
   26.2620   19.9310   13.2920 O   0  0  0  0  0  0  0  0  0  0  0  0
   25.0180   15.6520   11.2370 C   0  0  0  0  0  0  0  0  0  0  0  0
   24.3660   15.1620   10.0940 C   0  0  0  0  0  0  0  0  0  0  0  0
   25.0750   15.4580    8.9210 N   0  0  0  0  0  0  0  0  0  0  0  0
   26.1390   16.1060    9.2910 C   0  0  0  0  0  0  0  0  0  0  0  0
   26.2720   16.3250   10.7850 C   0  0  0  0  0  0  0  0  0  0  0  0
   21.7460   15.9500    7.2010 C   0  0  0  0  0  0  0  0  0  0  0  0
   20.7900   16.8260    6.9640 N   0  0  0  0  0  0  0  0  0  0  0  0
   18.8815   19.2845    8.7111 H   0  0  0  0  0  0  0  0  0  0  0  0
   19.7359   18.9616    7.1643 H   0  0  0  0  0  0  0  0  0  0  0  0
   17.9682   19.2812    7.1643 H   0  0  0  0  0  0  0  0  0  0  0  0
   18.0173   17.1634    8.8411 H   0  0  0  0  0  0  0  0  0  0  0  0
   17.9040   17.0037    7.0355 H   0  0  0  0  0  0  0  0  0  0  0  0
   19.5544   14.9793    9.4513 H   0  0  0  0  0  0  0  0  0  0  0  0
   21.6858   13.7217   11.6012 H   0  0  0  0  0  0  0  0  0  0  0  0
   22.8530   14.6017   13.6259 H   0  0  0  0  0  0  0  0  0  0  0  0
   25.1517   17.9522   12.9142 H   0  0  0  0  0  0  0  0  0  0  0  0
   27.3190   17.4489   14.7161 H   0  0  0  0  0  0  0  0  0  0  0  0
   24.7408   18.2666   16.1210 H   0  0  0  0  0  0  0  0  0  0  0  0
   25.6559   16.7380   16.3481 H   0  0  0  0  0  0  0  0  0  0  0  0
   26.1527   18.4372   18.1135 H   0  0  0  0  0  0  0  0  0  0  0  0
   27.6056   17.9812   17.1346 H   0  0  0  0  0  0  0  0  0  0  0  0
   27.3828   21.1425   15.1843 H   0  0  0  0  0  0  0  0  0  0  0  0
   26.8885   16.4691    8.5724 H   0  0  0  0  0  0  0  0  0  0  0  0
   27.1703   15.8393   11.1939 H   0  0  0  0  0  0  0  0  0  0  0  0
   26.3841   17.3731   11.0996 H   0  0  0  0  0  0  0  0  0  0  0  0
   22.7057   15.9093    6.6649 H   0  0  0  0  0  0  0  0  0  0  0  0
  1  2  1  0
  2  3  1  0
  3  4  2  0
  4  5  1  0
  5  6  1  0
  6  7  2  0
  6  8  2  0
  6  9  1  0
  9 10  2  0
 10 11  1  0
 11 12  2  0
 12 13  1  0
 13 14  2  0
 13 15  1  0
 15 16  1  0
 16 17  1  0
 17 18  1  0
 18 19  1  0
 19 20  2  0
 19 21  1  0
 21 22  1  0
 22 23  2  0
 12 24  1  0
 24 25  2  0
 25 26  1  0
 26 27  2  0
 27 28  1  0
  5 29  1  0
 29 30  2  0
 30  3  1  0
 25  9  1  0
 22 16  1  0
 28 24  1  0
  1 31  1  0
  1 32  1  0
  1 33  1  0
  2 34  1  0
  2 35  1  0
  4 36  1  0
 10 37  1  0
 11 38  1  0
 15 39  1  0
 16 40  1  1
 17 41  1  0
 17 42  1  0
 18 43  1  0
 18 44  1  0
 21 45  1  0
 27 46  1  0
 28 47  1  0
 28 48  1  0
 29 49  1  0
M  END
>  <meeko>  (851) 
{"is_sidechain": [true], "free_energy": -10.44, "intermolecular_energy": 0.0, "internal_energy": -10.44, "cluster_size": 15, "cluster_id": 1, "rank_in_cluster": 1}

>  <_RMSD_MCS_to_ref>  (851) 
0.8918377405983423

$$$$
ligand
     RDKit          3D

 48 51  0  0  0  0  0  0  0  0999 V2000
   18.7970   18.8170    7.7190 C   0  0  0  0  0  0  0  0  0  0  0  0
   18.5280   17.3290    7.8810 C   0  0  0  0  0  0  0  0  0  0  0  0
   19.7830   16.5480    8.0580 C   0  0  0  0  0  0  0  0  0  0  0  0
   20.1030   15.6270    9.0340 C   0  0  0  0  0  0  0  0  0  0  0  0
   21.3750   15.2370    8.7240 N   0  0  0  0  0  0  0  0  0  0  0  0
   22.2080   13.9600    9.4310 S   0  0  0  0  0  6  0  0  0  0  0  0
   23.5780   14.0920    8.9700 O   0  0  0  0  0  0  0  0  0  0  0  0
   21.4170   12.7730    9.1720 O   0  0  0  0  0  0  0  0  0  0  0  0
   22.1360   14.3290   11.1590 C   0  0  0  0  0  0  0  0  0  0  0  0
   20.9780   13.9530   11.8570 C   0  0  0  0  0  0  0  0  0  0  0  0
   20.8510   14.2610   13.2080 C   0  0  0  0  0  0  0  0  0  0  0  0
   21.8780   14.9400   13.8620 C   0  0  0  0  0  0  0  0  0  0  0  0
   23.0460   15.3060   13.1850 C   0  0  0  0  0  0  0  0  0  0  0  0
   24.0350   15.9820   13.9180 N   0  0  0  0  0  0  0  0  0  0  0  0
   25.1500   16.3120   13.3310 C   0  0  0  0  0  0  0  0  0  0  0  0
   26.1660   16.9670   13.9980 N   0  0  0  0  0  0  0  0  0  0  0  0
   25.9110   18.0270   14.9650 C   0  0  1  0  0  0  0  0  0  0  0  0
   26.5230   17.6640   16.3150 C   0  0  0  0  0  0  0  0  0  0  0  0
   26.2980   18.7990   17.3010 C   0  0  0  0  0  0  0  0  0  0  0  0
   26.8650   20.0970   16.7800 C   0  0  0  0  0  0  0  0  0  0  0  0
   27.2920   20.9740   17.5250 O   0  0  0  0  0  0  0  0  0  0  0  0
   26.8380   20.2760   15.4210 N   0  0  0  0  0  0  0  0  0  0  0  0
   26.5370   19.3350   14.4650 C   0  0  0  0  0  0  0  0  0  0  0  0
   26.7500   19.5580   13.2730 O   0  0  0  0  0  0  0  0  0  0  0  0
   25.3940   15.9890   11.8390 C   0  0  0  0  0  0  0  0  0  0  0  0
   26.4460   16.3230   11.3110 O   0  0  0  0  0  0  0  0  0  0  0  0
   24.3780   15.3450   11.1830 N   0  0  0  0  0  0  0  0  0  0  0  0
   23.1820   14.9860   11.8210 C   0  0  0  0  0  0  0  0  0  0  0  0
   21.7680   15.8680    7.5890 C   0  0  0  0  0  0  0  0  0  0  0  0
   20.8250   16.6800    7.1600 N   0  0  0  0  0  0  0  0  0  0  0  0
   18.8815   19.2845    8.7111 H   0  0  0  0  0  0  0  0  0  0  0  0
   19.7359   18.9616    7.1643 H   0  0  0  0  0  0  0  0  0  0  0  0
   17.9682   19.2812    7.1643 H   0  0  0  0  0  0  0  0  0  0  0  0
   17.8892   17.1783    8.7637 H   0  0  0  0  0  0  0  0  0  0  0  0
   18.0343   16.9728    6.9649 H   0  0  0  0  0  0  0  0  0  0  0  0
   19.4767   15.2847    9.8710 H   0  0  0  0  0  0  0  0  0  0  0  0
   20.1716   13.4154   11.3367 H   0  0  0  0  0  0  0  0  0  0  0  0
   19.9438   13.9699   13.7578 H   0  0  0  0  0  0  0  0  0  0  0  0
   21.7681   15.1919   14.9271 H   0  0  0  0  0  0  0  0  0  0  0  0
   27.1408   16.6963   13.8049 H   0  0  0  0  0  0  0  0  0  0  0  0
   24.8242   18.1512   15.0808 H   0  0  0  0  0  0  0  0  0  0  0  0
   26.0486   16.7481   16.6972 H   0  0  0  0  0  0  0  0  0  0  0  0
   27.6032   17.4967   16.1922 H   0  0  0  0  0  0  0  0  0  0  0  0
   25.2174   18.9208   17.4670 H   0  0  0  0  0  0  0  0  0  0  0  0
   26.8100   18.5488   18.2419 H   0  0  0  0  0  0  0  0  0  0  0  0
   27.0687   21.2196   15.0785 H   0  0  0  0  0  0  0  0  0  0  0  0
   24.4970   15.1164   10.1857 H   0  0  0  0  0  0  0  0  0  0  0  0
   22.7401   15.7213    7.0956 H   0  0  0  0  0  0  0  0  0  0  0  0
  1  2  1  0
  2  3  1  0
  3  4  2  0
  4  5  1  0
  5  6  1  0
  6  7  2  0
  6  8  2  0
  6  9  1  0
  9 10  2  0
 10 11  1  0
 11 12  2  0
 12 13  1  0
 13 14  1  0
 14 15  2  0
 15 16  1  0
 16 17  1  0
 17 18  1  0
 18 19  1  0
 19 20  1  0
 20 21  2  0
 20 22  1  0
 22 23  1  0
 23 24  2  0
 15 25  1  0
 25 26  2  0
 25 27  1  0
 27 28  1  0
  5 29  1  0
 29 30  2  0
 30  3  1  0
 28  9  1  0
 28 13  2  0
 23 17  1  0
  1 31  1  0
  1 32  1  0
  1 33  1  0
  2 34  1  0
  2 35  1  0
  4 36  1  0
 10 37  1  0
 11 38  1  0
 12 39  1  0
 16 40  1  0
 17 41  1  1
 18 42  1  0
 18 43  1  0
 19 44  1  0
 19 45  1  0
 22 46  1  0
 27 47  1  0
 29 48  1  0
M  END
>  <meeko>  (852) 
{"is_sidechain": [true], "free_energy": -10.44, "intermolecular_energy": 0.0, "internal_energy": -10.44, "cluster_size": 13, "cluster_id": 1, "rank_in_cluster": 1}

>  <_RMSD_MCS_to_ref>  (852) 
1.0169877635011695

$$$$
ligand
     RDKit          3D

 47 50  0  0  0  0  0  0  0  0999 V2000
   18.7970   18.8170    7.7190 C   0  0  0  0  0  0  0  0  0  0  0  0
   18.5280   17.3290    7.8810 C   0  0  0  0  0  0  0  0  0  0  0  0
   19.7640   16.5150    7.7210 C   0  0  0  0  0  0  0  0  0  0  0  0
   20.7140   16.1830    8.6660 C   0  0  0  0  0  0  0  0  0  0  0  0
   21.6110   15.4130    7.9830 N   0  0  0  0  0  0  0  0  0  0  0  0
   23.0840   14.8630    8.5650 S   0  0  0  0  0  6  0  0  0  0  0  0
   24.0210   15.9550    8.3690 O   0  0  0  0  0  0  0  0  0  0  0  0
   23.2780   13.5480    7.9810 O   0  0  0  0  0  0  0  0  0  0  0  0
   22.9320   14.6320   10.3040 C   0  0  0  0  0  0  0  0  0  0  0  0
   21.9890   13.9440   10.9080 N   0  0  0  0  0  0  0  0  0  0  0  0
   22.1880   14.0000   12.2770 C   0  0  0  0  0  0  0  0  0  0  0  0
   21.3490   13.3910   13.2330 C   0  0  0  0  0  0  0  0  0  0  0  0
   21.6280   13.5200   14.5930 C   0  0  0  0  0  0  0  0  0  0  0  0
   22.7390   14.2410   15.0090 C   0  0  0  0  0  0  0  0  0  0  0  0
   23.6110   14.8470   14.0820 C   0  0  0  0  0  0  0  0  0  0  0  0
   24.7740   15.5930   14.6250 C   0  0  0  0  0  0  0  0  0  0  0  0
   25.8330   15.0110   14.8320 O   0  0  0  0  0  0  0  0  0  0  0  0
   24.6210   16.9420   14.8260 N   0  0  0  0  0  0  0  0  0  0  0  0
   25.7390   17.7920   15.2130 C   0  0  2  0  0  0  0  0  0  0  0  0
   26.0320   17.7160   16.7060 C   0  0  0  0  0  0  0  0  0  0  0  0
   27.1800   18.6530   17.0460 C   0  0  0  0  0  0  0  0  0  0  0  0
   26.8860   20.0660   16.6000 C   0  0  0  0  0  0  0  0  0  0  0  0
   27.2850   21.0490   17.2170 O   0  0  0  0  0  0  0  0  0  0  0  0
   26.1690   20.2080   15.4390 N   0  0  0  0  0  0  0  0  0  0  0  0
   25.3980   19.2390   14.8450 C   0  0  0  0  0  0  0  0  0  0  0  0
   24.4980   19.5330   14.0590 O   0  0  0  0  0  0  0  0  0  0  0  0
   23.3120   14.7270   12.7080 C   0  0  0  0  0  0  0  0  0  0  0  0
   24.0950   15.3690   11.3000 S   0  0  0  0  0  0  0  0  0  0  0  0
   21.2380   15.3460    6.6800 C   0  0  0  0  0  0  0  0  0  0  0  0
   20.1030   15.9870    6.4910 N   0  0  0  0  0  0  0  0  0  0  0  0
   18.8815   19.2845    8.7111 H   0  0  0  0  0  0  0  0  0  0  0  0
   19.7359   18.9616    7.1643 H   0  0  0  0  0  0  0  0  0  0  0  0
   17.9682   19.2812    7.1643 H   0  0  0  0  0  0  0  0  0  0  0  0
   18.1135   17.1508    8.8842 H   0  0  0  0  0  0  0  0  0  0  0  0
   17.8193   17.0259    7.0963 H   0  0  0  0  0  0  0  0  0  0  0  0
   20.7419   16.4726    9.7268 H   0  0  0  0  0  0  0  0  0  0  0  0
   20.4725   12.8129   12.9050 H   0  0  0  0  0  0  0  0  0  0  0  0
   20.9675   13.0502   15.3367 H   0  0  0  0  0  0  0  0  0  0  0  0
   22.9432   14.3416   16.0852 H   0  0  0  0  0  0  0  0  0  0  0  0
   23.6904   17.3649   14.6998 H   0  0  0  0  0  0  0  0  0  0  0  0
   26.6355   17.4420   14.6802 H   0  0  0  0  0  0  0  0  0  0  0  0
   25.1363   18.0136   17.2710 H   0  0  0  0  0  0  0  0  0  0  0  0
   26.3087   16.6854   16.9732 H   0  0  0  0  0  0  0  0  0  0  0  0
   27.3375   18.6464   18.1346 H   0  0  0  0  0  0  0  0  0  0  0  0
   28.0807   18.3034   16.5202 H   0  0  0  0  0  0  0  0  0  0  0  0
   26.2129   21.1242   14.9704 H   0  0  0  0  0  0  0  0  0  0  0  0
   21.8044   14.8286    5.8917 H   0  0  0  0  0  0  0  0  0  0  0  0
  1  2  1  0
  2  3  1  0
  3  4  2  0
  4  5  1  0
  5  6  1  0
  6  7  2  0
  6  8  2  0
  6  9  1  0
  9 10  2  0
 10 11  1  0
 11 12  2  0
 12 13  1  0
 13 14  2  0
 14 15  1  0
 15 16  1  0
 16 17  2  0
 16 18  1  0
 18 19  1  0
 19 20  1  0
 20 21  1  0
 21 22  1  0
 22 23  2  0
 22 24  1  0
 24 25  1  0
 25 26  2  0
 15 27  2  0
 27 28  1  0
  5 29  1  0
 29 30  2  0
 30  3  1  0
 28  9  1  0
 27 11  1  0
 25 19  1  0
  1 31  1  0
  1 32  1  0
  1 33  1  0
  2 34  1  0
  2 35  1  0
  4 36  1  0
 12 37  1  0
 13 38  1  0
 14 39  1  0
 18 40  1  0
 19 41  1  6
 20 42  1  0
 20 43  1  0
 21 44  1  0
 21 45  1  0
 24 46  1  0
 29 47  1  0
M  END
>  <meeko>  (853) 
{"is_sidechain": [true], "free_energy": -10.44, "intermolecular_energy": 0.0, "internal_energy": -10.44, "cluster_size": 16, "cluster_id": 1, "rank_in_cluster": 1}

>  <_RMSD_MCS_to_ref>  (853) 
0.6957727917774431

$$$$
ligand
     RDKit          3D

 51 55  0  0  0  0  0  0  0  0999 V2000
   18.7970   18.8170    7.7190 C   0  0  0  0  0  0  0  0  0  0  0  0
   18.5280   17.3290    7.8810 C   0  0  0  0  0  0  0  0  0  0  0  0
   19.7800   16.5480    8.0650 C   0  0  0  0  0  0  0  0  0  0  0  0
   20.0890   15.6170    9.0370 C   0  0  0  0  0  0  0  0  0  0  0  0
   21.3490   15.2030    8.7160 N   0  0  0  0  0  0  0  0  0  0  0  0
   22.3110   14.1660    9.6170 S   0  0  0  0  0  6  0  0  0  0  0  0
   21.4460   13.0770   10.0280 O   0  0  0  0  0  0  0  0  0  0  0  0
   23.5150   13.9600    8.8330 O   0  0  0  0  0  0  0  0  0  0  0  0
   22.8130   14.9840   11.0850 C   0  0  0  0  0  0  0  0  0  0  0  0
   22.0740   14.9360   12.1880 N   0  0  0  0  0  0  0  0  0  0  0  0
   22.7430   15.6610   13.1240 C   0  0  0  0  0  0  0  0  0  0  0  0
   23.9020   16.1730   12.5990 C   0  0  0  0  0  0  0  0  0  0  0  0
   24.9290   16.9910   13.1860 C   0  0  0  0  0  0  0  0  0  0  0  0
   24.8560   17.4200   14.4910 N   0  0  0  0  0  0  0  0  0  0  0  0
   25.9810   18.0710   15.1600 C   0  0  2  0  0  0  0  0  0  0  0  0
   25.8260   17.9790   16.6750 C   0  0  0  0  0  0  0  0  0  0  0  0
   26.9710   18.7140   17.3510 C   0  0  0  0  0  0  0  0  0  0  0  0
   27.0410   20.1530   16.8960 C   0  0  0  0  0  0  0  0  0  0  0  0
   27.4340   21.0570   17.6270 O   0  0  0  0  0  0  0  0  0  0  0  0
   26.6800   20.4030   15.5960 N   0  0  0  0  0  0  0  0  0  0  0  0
   26.0110   19.5490   14.7540 C   0  0  0  0  0  0  0  0  0  0  0  0
   25.4720   19.9610   13.7260 O   0  0  0  0  0  0  0  0  0  0  0  0
   25.9500   17.3290   12.4520 N   0  0  0  0  0  0  0  0  0  0  0  0
   26.0380   16.9030   11.1130 C   0  0  0  0  0  0  0  0  0  0  0  0
   27.1670   17.3110   10.3950 C   0  0  0  0  0  0  0  0  0  0  0  0
   27.3380   16.9400    9.0640 C   0  0  0  0  0  0  0  0  0  0  0  0
   26.3730   16.1560    8.4410 C   0  0  0  0  0  0  0  0  0  0  0  0
   25.2370   15.7370    9.1410 C   0  0  0  0  0  0  0  0  0  0  0  0
   25.0640   16.1050   10.4780 C   0  0  0  0  0  0  0  0  0  0  0  0
   23.9580   15.7380   11.2860 N   0  0  0  0  0  0  0  0  0  0  0  0
   21.7890   15.9070    7.6420 C   0  0  0  0  0  0  0  0  0  0  0  0
   20.8470   16.7160    7.2020 N   0  0  0  0  0  0  0  0  0  0  0  0
   18.8815   19.2845    8.7111 H   0  0  0  0  0  0  0  0  0  0  0  0
   19.7359   18.9616    7.1643 H   0  0  0  0  0  0  0  0  0  0  0  0
   17.9682   19.2812    7.1643 H   0  0  0  0  0  0  0  0  0  0  0  0
   17.8846   17.1791    8.7606 H   0  0  0  0  0  0  0  0  0  0  0  0
   18.0398   16.9724    6.9621 H   0  0  0  0  0  0  0  0  0  0  0  0
   19.4625   15.2850    9.8780 H   0  0  0  0  0  0  0  0  0  0  0  0
   22.4020   15.8153   14.1584 H   0  0  0  0  0  0  0  0  0  0  0  0
   23.9800   17.2779   15.0138 H   0  0  0  0  0  0  0  0  0  0  0  0
   26.9138   17.5688   14.8637 H   0  0  0  0  0  0  0  0  0  0  0  0
   24.8709   18.4359   16.9735 H   0  0  0  0  0  0  0  0  0  0  0  0
   25.8403   16.9222   16.9798 H   0  0  0  0  0  0  0  0  0  0  0  0
   26.8200   18.6891   18.4403 H   0  0  0  0  0  0  0  0  0  0  0  0
   27.9134   18.2164   17.0786 H   0  0  0  0  0  0  0  0  0  0  0  0
   26.9367   21.3241   15.2131 H   0  0  0  0  0  0  0  0  0  0  0  0
   27.9290   17.9325   10.8880 H   0  0  0  0  0  0  0  0  0  0  0  0
   28.2304   17.2648    8.5089 H   0  0  0  0  0  0  0  0  0  0  0  0
   26.5043   15.8630    7.3889 H   0  0  0  0  0  0  0  0  0  0  0  0
   24.4793   15.1175    8.6389 H   0  0  0  0  0  0  0  0  0  0  0  0
   22.7923   15.8148    7.2006 H   0  0  0  0  0  0  0  0  0  0  0  0
  1  2  1  0
  2  3  1  0
  3  4  2  0
  4  5  1  0
  5  6  1  0
  6  7  2  0
  6  8  2  0
  6  9  1  0
  9 10  2  0
 10 11  1  0
 11 12  2  0
 12 13  1  0
 13 14  1  0
 14 15  1  0
 15 16  1  0
 16 17  1  0
 17 18  1  0
 18 19  2  0
 18 20  1  0
 20 21  1  0
 21 22  2  0
 13 23  2  0
 23 24  1  0
 24 25  2  0
 25 26  1  0
 26 27  2  0
 27 28  1  0
 28 29  2  0
 29 30  1  0
  5 31  1  0
 31 32  2  0
 32  3  1  0
 30  9  1  0
 30 12  1  0
 21 15  1  0
 29 24  1  0
  1 33  1  0
  1 34  1  0
  1 35  1  0
  2 36  1  0
  2 37  1  0
  4 38  1  0
 11 39  1  0
 14 40  1  0
 15 41  1  6
 16 42  1  0
 16 43  1  0
 17 44  1  0
 17 45  1  0
 20 46  1  0
 25 47  1  0
 26 48  1  0
 27 49  1  0
 28 50  1  0
 31 51  1  0
M  END
>  <meeko>  (854) 
{"is_sidechain": [true], "free_energy": -10.44, "intermolecular_energy": 0.0, "internal_energy": -10.44, "cluster_size": 19, "cluster_id": 1, "rank_in_cluster": 1}

>  <_RMSD_MCS_to_ref>  (854) 
0.670490533531649

$$$$
ligand
     RDKit          3D

 55 59  0  0  0  0  0  0  0  0999 V2000
   18.7970   18.8170    7.7190 C   0  0  0  0  0  0  0  0  0  0  0  0
   18.5280   17.3290    7.8810 C   0  0  0  0  0  0  0  0  0  0  0  0
   19.7310   16.5040    7.5880 C   0  0  0  0  0  0  0  0  0  0  0  0
   20.1670   15.3520    8.2120 C   0  0  0  0  0  0  0  0  0  0  0  0
   21.2990   15.0090    7.5290 N   0  0  0  0  0  0  0  0  0  0  0  0
   22.3890   13.8060    7.9630 S   0  0  0  0  0  6  0  0  0  0  0  0
   21.8810   12.5760    7.3890 O   0  0  0  0  0  0  0  0  0  0  0  0
   23.6990   14.3340    7.6370 O   0  0  0  0  0  0  0  0  0  0  0  0
   22.2280   13.7130    9.7250 C   0  0  0  0  0  0  0  0  0  0  0  0
   21.4030   12.7380   10.2930 C   0  0  0  0  0  0  0  0  0  0  0  0
   21.3130   12.7070   11.6720 C   0  0  0  0  0  0  0  0  0  0  0  0
   22.0190   13.6090   12.4650 C   0  0  0  0  0  0  0  0  0  0  0  0
   22.8480   14.5950   11.9310 C   0  0  0  0  0  0  0  0  0  0  0  0
   23.6000   15.5510   12.7620 C   0  0  0  0  0  0  0  0  0  0  0  0
   22.9870   16.2350   13.8190 C   0  0  0  0  0  0  0  0  0  0  0  0
   23.6960   17.1600   14.5990 C   0  0  0  0  0  0  0  0  0  0  0  0
   25.0460   17.4380   14.3560 C   0  0  0  0  0  0  0  0  0  0  0  0
   25.7770   18.3730   15.1670 N   0  0  0  0  0  0  0  0  0  0  0  0
   26.6080   17.8800   16.2630 C   0  0  0  0  0  0  0  0  0  0  0  0
   26.5600   18.8250   17.4450 C   0  0  0  0  0  0  0  0  0  0  0  0
   26.9230   20.2030   16.9900 C   0  0  0  0  0  0  0  0  0  0  0  0
   27.3670   21.0550   17.7540 O   0  0  0  0  0  0  0  0  0  0  0  0
   26.6460   20.4870   15.6820 N   0  0  0  0  0  0  0  0  0  0  0  0
   25.8960   19.7230   14.8200 C   0  0  0  0  0  0  0  0  0  0  0  0
   25.4150   20.2750   13.8340 O   0  0  0  0  0  0  0  0  0  0  0  0
   25.6620   16.7490   13.3010 C   0  0  0  0  0  0  0  0  0  0  0  0
   24.9510   15.8250   12.5180 C   0  0  0  0  0  0  0  0  0  0  0  0
   22.9310   14.6370   10.5260 C   0  0  0  0  0  0  0  0  0  0  0  0
   21.8050   13.4040   13.8100 O   0  0  0  0  0  0  0  0  0  0  0  0
   20.6580   12.5250   13.8540 C   0  0  0  0  0  0  0  0  0  0  0  0
   20.5740   11.7600   12.5380 C   0  0  0  0  0  0  0  0  0  0  0  0
   21.5440   15.9440    6.5760 C   0  0  0  0  0  0  0  0  0  0  0  0
   20.6020   16.8650    6.5770 N   0  0  0  0  0  0  0  0  0  0  0  0
   18.8815   19.2845    8.7111 H   0  0  0  0  0  0  0  0  0  0  0  0
   19.7359   18.9616    7.1643 H   0  0  0  0  0  0  0  0  0  0  0  0
   17.9682   19.2812    7.1643 H   0  0  0  0  0  0  0  0  0  0  0  0
   18.2109   17.1373    8.9167 H   0  0  0  0  0  0  0  0  0  0  0  0
   17.7435   17.0481    7.1630 H   0  0  0  0  0  0  0  0  0  0  0  0
   19.7077   14.8299    9.0643 H   0  0  0  0  0  0  0  0  0  0  0  0
   20.8475   12.0238    9.6675 H   0  0  0  0  0  0  0  0  0  0  0  0
   21.9272   16.0427   14.0422 H   0  0  0  0  0  0  0  0  0  0  0  0
   23.1795   17.6786   15.4201 H   0  0  0  0  0  0  0  0  0  0  0  0
   26.2408   16.8917   16.5769 H   0  0  0  0  0  0  0  0  0  0  0  0
   27.6479   17.8097   15.9113 H   0  0  0  0  0  0  0  0  0  0  0  0
   25.5447   18.8331   17.8682 H   0  0  0  0  0  0  0  0  0  0  0  0
   27.2722   18.4907   18.2138 H   0  0  0  0  0  0  0  0  0  0  0  0
   27.0387   21.3612   15.3044 H   0  0  0  0  0  0  0  0  0  0  0  0
   26.7237   16.9362   13.0824 H   0  0  0  0  0  0  0  0  0  0  0  0
   25.4662   15.3060   11.6963 H   0  0  0  0  0  0  0  0  0  0  0  0
   23.5552   15.4041   10.0445 H   0  0  0  0  0  0  0  0  0  0  0  0
   20.7677   11.8156   14.6875 H   0  0  0  0  0  0  0  0  0  0  0  0
   19.7412   13.1144   14.0027 H   0  0  0  0  0  0  0  0  0  0  0  0
   21.0719   10.7809   12.5975 H   0  0  0  0  0  0  0  0  0  0  0  0
   19.5577   11.5064   12.2023 H   0  0  0  0  0  0  0  0  0  0  0  0
   22.4093   15.9341    5.8969 H   0  0  0  0  0  0  0  0  0  0  0  0
  1  2  1  0
  2  3  1  0
  3  4  2  0
  4  5  1  0
  5  6  1  0
  6  7  2  0
  6  8  2  0
  6  9  1  0
  9 10  2  0
 10 11  1  0
 11 12  2  0
 12 13  1  0
 13 14  1  0
 14 15  2  0
 15 16  1  0
 16 17  2  0
 17 18  1  0
 18 19  1  0
 19 20  1  0
 20 21  1  0
 21 22  2  0
 21 23  1  0
 23 24  1  0
 24 25  2  0
 17 26  1  0
 26 27  2  0
 13 28  2  0
 12 29  1  0
 29 30  1  0
 30 31  1  0
  5 32  1  0
 32 33  2  0
 33  3  1  0
 28  9  1  0
 31 11  1  0
 27 14  1  0
 24 18  1  0
  1 34  1  0
  1 35  1  0
  1 36  1  0
  2 37  1  0
  2 38  1  0
  4 39  1  0
 10 40  1  0
 15 41  1  0
 16 42  1  0
 19 43  1  0
 19 44  1  0
 20 45  1  0
 20 46  1  0
 23 47  1  0
 26 48  1  0
 27 49  1  0
 28 50  1  0
 30 51  1  0
 30 52  1  0
 31 53  1  0
 31 54  1  0
 32 55  1  0
M  END
>  <meeko>  (855) 
{"is_sidechain": [true], "free_energy": -10.44, "intermolecular_energy": 0.0, "internal_energy": -10.44, "cluster_size": 19, "cluster_id": 1, "rank_in_cluster": 1}

>  <_RMSD_MCS_to_ref>  (855) 
0.5948349561012701

$$$$
ligand
     RDKit          3D

 55 59  0  0  0  0  0  0  0  0999 V2000
   18.7970   18.8170    7.7190 C   0  0  0  0  0  0  0  0  0  0  0  0
   18.5280   17.3290    7.8810 C   0  0  0  0  0  0  0  0  0  0  0  0
   19.4150   16.5000    7.0210 C   0  0  0  0  0  0  0  0  0  0  0  0
   19.6620   15.1430    7.0800 C   0  0  0  0  0  0  0  0  0  0  0  0
   20.5330   14.9160    6.0540 N   0  0  0  0  0  0  0  0  0  0  0  0
   21.3730   13.4880    5.7740 S   0  0  0  0  0  6  0  0  0  0  0  0
   21.7530   13.5190    4.3760 O   0  0  0  0  0  0  0  0  0  0  0  0
   20.5570   12.4290    6.3370 O   0  0  0  0  0  0  0  0  0  0  0  0
   22.8280   13.6580    6.7620 C   0  0  0  0  0  0  0  0  0  0  0  0
   24.0240   13.0960    6.3300 C   0  0  0  0  0  0  0  0  0  0  0  0
   25.1240   13.2650    7.1420 C   0  0  0  0  0  0  0  0  0  0  0  0
   25.0900   13.9320    8.3180 N   0  0  0  0  0  0  0  0  0  0  0  0
   23.9080   14.4490    8.7440 C   0  0  0  0  0  0  0  0  0  0  0  0
   23.9470   15.1480   10.0470 C   0  0  0  0  0  0  0  0  0  0  0  0
   22.7600   15.4500   10.7700 C   0  0  0  0  0  0  0  0  0  0  0  0
   22.7930   16.1200   11.9980 C   0  0  0  0  0  0  0  0  0  0  0  0
   24.0290   16.4720   12.4970 C   0  0  0  0  0  0  0  0  0  0  0  0
   25.2140   16.1890   11.8270 C   0  0  0  0  0  0  0  0  0  0  0  0
   25.1870   15.5300   10.6090 C   0  0  0  0  0  0  0  0  0  0  0  0
   26.3760   16.7090   12.6040 C   0  0  0  0  0  0  0  0  0  0  0  0
   25.7490   17.2100   13.8200 N   0  0  0  0  0  0  0  0  0  0  0  0
   26.4960   18.0120   14.7830 C   0  0  2  0  0  0  0  0  0  0  0  0
   25.9940   17.8750   16.2200 C   0  0  0  0  0  0  0  0  0  0  0  0
   26.8770   18.7000   17.1430 C   0  0  0  0  0  0  0  0  0  0  0  0
   26.9200   20.1470   16.7120 C   0  0  0  0  0  0  0  0  0  0  0  0
   27.1990   21.0540   17.4920 O   0  0  0  0  0  0  0  0  0  0  0  0
   26.7150   20.4000   15.3790 N   0  0  0  0  0  0  0  0  0  0  0  0
   26.5370   19.4890   14.3630 C   0  0  0  0  0  0  0  0  0  0  0  0
   26.5200   19.8630   13.1910 O   0  0  0  0  0  0  0  0  0  0  0  0
   24.3640   17.1730   13.7410 C   0  0  0  0  0  0  0  0  0  0  0  0
   23.5480   17.6350   14.5140 O   0  0  0  0  0  0  0  0  0  0  0  0
   22.7520   14.3310    7.9810 C   0  0  0  0  0  0  0  0  0  0  0  0
   20.8220   16.0940    5.4440 C   0  0  0  0  0  0  0  0  0  0  0  0
   20.1490   17.0790    6.0040 N   0  0  0  0  0  0  0  0  0  0  0  0
   18.8815   19.2845    8.7111 H   0  0  0  0  0  0  0  0  0  0  0  0
   19.7359   18.9616    7.1643 H   0  0  0  0  0  0  0  0  0  0  0  0
   17.9682   19.2812    7.1643 H   0  0  0  0  0  0  0  0  0  0  0  0
   18.6941   17.0515    8.9324 H   0  0  0  0  0  0  0  0  0  0  0  0
   17.4884   17.1389    7.5758 H   0  0  0  0  0  0  0  0  0  0  0  0
   19.2508   14.4117    7.7914 H   0  0  0  0  0  0  0  0  0  0  0  0
   24.0891   12.5413    5.3823 H   0  0  0  0  0  0  0  0  0  0  0  0
   26.0821   12.8340    6.8161 H   0  0  0  0  0  0  0  0  0  0  0  0
   21.7883   15.1483   10.3519 H   0  0  0  0  0  0  0  0  0  0  0  0
   21.8681   16.3568   12.5443 H   0  0  0  0  0  0  0  0  0  0  0  0
   26.1256   15.3049   10.0815 H   0  0  0  0  0  0  0  0  0  0  0  0
   27.0937   15.9064   12.8293 H   0  0  0  0  0  0  0  0  0  0  0  0
   26.9554   17.4729   12.0647 H   0  0  0  0  0  0  0  0  0  0  0  0
   27.5187   17.6071   14.7745 H   0  0  0  0  0  0  0  0  0  0  0  0
   24.9573   18.2373   16.2829 H   0  0  0  0  0  0  0  0  0  0  0  0
   26.0306   16.8183   16.5234 H   0  0  0  0  0  0  0  0  0  0  0  0
   26.4780   18.6426   18.1665 H   0  0  0  0  0  0  0  0  0  0  0  0
   27.8986   18.2944   17.1005 H   0  0  0  0  0  0  0  0  0  0  0  0
   26.6915   21.3927   15.1055 H   0  0  0  0  0  0  0  0  0  0  0  0
   21.8004   14.7581    8.3303 H   0  0  0  0  0  0  0  0  0  0  0  0
   21.5194   16.2099    4.6013 H   0  0  0  0  0  0  0  0  0  0  0  0
  1  2  1  0
  2  3  1  0
  3  4  2  0
  4  5  1  0
  5  6  1  0
  6  7  2  0
  6  8  2  0
  6  9  1  0
  9 10  2  0
 10 11  1  0
 11 12  2  0
 12 13  1  0
 13 14  1  0
 14 15  2  0
 15 16  1  0
 16 17  2  0
 17 18  1  0
 18 19  2  0
 18 20  1  0
 20 21  1  0
 21 22  1  0
 22 23  1  0
 23 24  1  0
 24 25  1  0
 25 26  2  0
 25 27  1  0
 27 28  1  0
 28 29  2  0
 21 30  1  0
 30 31  2  0
 13 32  2  0
  5 33  1  0
 33 34  2  0
 34  3  1  0
 32  9  1  0
 19 14  1  0
 28 22  1  0
 30 17  1  0
  1 35  1  0
  1 36  1  0
  1 37  1  0
  2 38  1  0
  2 39  1  0
  4 40  1  0
 10 41  1  0
 11 42  1  0
 15 43  1  0
 16 44  1  0
 19 45  1  0
 20 46  1  0
 20 47  1  0
 22 48  1  1
 23 49  1  0
 23 50  1  0
 24 51  1  0
 24 52  1  0
 27 53  1  0
 32 54  1  0
 33 55  1  0
M  END
>  <meeko>  (856) 
{"is_sidechain": [true], "free_energy": -10.44, "intermolecular_energy": 0.0, "internal_energy": -10.44, "cluster_size": 6, "cluster_id": 1, "rank_in_cluster": 1}

>  <_RMSD_MCS_to_ref>  (856) 
0.896236420941607

$$$$
ligand
     RDKit          3D

 51 55  0  0  0  0  0  0  0  0999 V2000
   18.9090   19.1530    7.5370 C   0  0  0  0  0  0  0  0  0  0  0  0
   18.7730   17.6470    7.6780 C   0  0  0  0  0  0  0  0  0  0  0  0
   20.0600   16.9380    7.4390 C   0  0  0  0  0  0  0  0  0  0  0  0
   21.0550   16.6200    8.3410 C   0  0  0  0  0  0  0  0  0  0  0  0
   21.9920   15.9700    7.5930 N   0  0  0  0  0  0  0  0  0  0  0  0
   23.2930   15.0870    8.1790 S   0  0  0  0  0  6  0  0  0  0  0  0
   23.9660   15.9340    9.1440 O   0  0  0  0  0  0  0  0  0  0  0  0
   23.9480   14.5410    7.0080 O   0  0  0  0  0  0  0  0  0  0  0  0
   22.6510   13.7120    9.0920 C   0  0  0  0  0  0  0  0  0  0  0  0
   22.2370   12.5850    8.4220 O   0  0  0  0  0  0  0  0  0  0  0  0
   21.7300   11.6530    9.3050 N   0  0  0  0  0  0  0  0  0  0  0  0
   21.8430   12.2070   10.5090 C   0  0  0  0  0  0  0  0  0  0  0  0
   22.4250   13.4880   10.4440 C   0  0  0  0  0  0  0  0  0  0  0  0
   22.6990   14.4290   11.5050 C   0  0  0  0  0  0  0  0  0  0  0  0
   21.7110   14.7030   12.4820 C   0  0  0  0  0  0  0  0  0  0  0  0
   21.9600   15.5990   13.5290 C   0  0  0  0  0  0  0  0  0  0  0  0
   23.1990   16.2060   13.5590 C   0  0  0  0  0  0  0  0  0  0  0  0
   24.1610   15.9510   12.6010 C   0  0  0  0  0  0  0  0  0  0  0  0
   23.9460   15.0680   11.5590 C   0  0  0  0  0  0  0  0  0  0  0  0
   25.3400   16.7450   12.9390 C   0  0  0  0  0  0  0  0  0  0  0  0
   26.3820   16.7090   12.3160 O   0  0  0  0  0  0  0  0  0  0  0  0
   25.0190   17.4710   14.0530 N   0  0  0  0  0  0  0  0  0  0  0  0
   25.9510   18.2930   14.8130 C   0  0  2  0  0  0  0  0  0  0  0  0
   25.8970   18.0720   16.3220 C   0  0  0  0  0  0  0  0  0  0  0  0
   26.9390   18.9540   16.9950 C   0  0  0  0  0  0  0  0  0  0  0  0
   26.7370   20.4100   16.6380 C   0  0  0  0  0  0  0  0  0  0  0  0
   27.0870   21.3210   17.3820 O   0  0  0  0  0  0  0  0  0  0  0  0
   26.1950   20.6710   15.4040 N   0  0  0  0  0  0  0  0  0  0  0  0
   25.7070   19.7690   14.4870 C   0  0  0  0  0  0  0  0  0  0  0  0
   25.1690   20.1590   13.4510 O   0  0  0  0  0  0  0  0  0  0  0  0
   23.7650   17.1630   14.5070 C   0  0  0  0  0  0  0  0  0  0  0  0
   23.1850   17.5740   15.4940 O   0  0  0  0  0  0  0  0  0  0  0  0
   21.5650   15.8960    6.3070 C   0  0  0  0  0  0  0  0  0  0  0  0
   20.3880   16.4710    6.1810 N   0  0  0  0  0  0  0  0  0  0  0  0
   18.9505   19.6125    8.5356 H   0  0  0  0  0  0  0  0  0  0  0  0
   19.8320   19.3879    6.9867 H   0  0  0  0  0  0  0  0  0  0  0  0
   18.0430   19.5494    6.9867 H   0  0  0  0  0  0  0  0  0  0  0  0
   18.4264   17.4170    8.6963 H   0  0  0  0  0  0  0  0  0  0  0  0
   18.0535   17.3020    6.9209 H   0  0  0  0  0  0  0  0  0  0  0  0
   21.0854   16.8406    9.4182 H   0  0  0  0  0  0  0  0  0  0  0  0
   21.5208   11.7231   11.4428 H   0  0  0  0  0  0  0  0  0  0  0  0
   20.7327   14.2042   12.4174 H   0  0  0  0  0  0  0  0  0  0  0  0
   21.1998   15.8102   14.2955 H   0  0  0  0  0  0  0  0  0  0  0  0
   24.7215   14.8747   10.8032 H   0  0  0  0  0  0  0  0  0  0  0  0
   26.9611   17.9845   14.5054 H   0  0  0  0  0  0  0  0  0  0  0  0
   24.8964   18.3336   16.6965 H   0  0  0  0  0  0  0  0  0  0  0  0
   26.1052   17.0159   16.5483 H   0  0  0  0  0  0  0  0  0  0  0  0
   26.8571   18.8374   18.0857 H   0  0  0  0  0  0  0  0  0  0  0  0
   27.9350   18.6448   16.6453 H   0  0  0  0  0  0  0  0  0  0  0  0
   26.1480   21.6632   15.1315 H   0  0  0  0  0  0  0  0  0  0  0  0
   22.1236   15.4225    5.4862 H   0  0  0  0  0  0  0  0  0  0  0  0
  1  2  1  0
  2  3  1  0
  3  4  2  0
  4  5  1  0
  5  6  1  0
  6  7  2  0
  6  8  2  0
  6  9  1  0
  9 10  1  0
 10 11  1  0
 11 12  2  0
 12 13  1  0
 13 14  1  0
 14 15  2  0
 15 16  1  0
 16 17  2  0
 17 18  1  0
 18 19  2  0
 18 20  1  0
 20 21  2  0
 20 22  1  0
 22 23  1  0
 23 24  1  0
 24 25  1  0
 25 26  1  0
 26 27  2  0
 26 28  1  0
 28 29  1  0
 29 30  2  0
 22 31  1  0
 31 32  2  0
  5 33  1  0
 33 34  2  0
 34  3  1  0
 13  9  2  0
 19 14  1  0
 29 23  1  0
 31 17  1  0
  1 35  1  0
  1 36  1  0
  1 37  1  0
  2 38  1  0
  2 39  1  0
  4 40  1  0
 12 41  1  0
 15 42  1  0
 16 43  1  0
 19 44  1  0
 23 45  1  6
 24 46  1  0
 24 47  1  0
 25 48  1  0
 25 49  1  0
 28 50  1  0
 33 51  1  0
M  END
>  <meeko>  (857) 
{"is_sidechain": [true], "free_energy": -10.44, "intermolecular_energy": 0.0, "internal_energy": -10.44, "cluster_size": 19, "cluster_id": 1, "rank_in_cluster": 1}

>  <_RMSD_MCS_to_ref>  (857) 
1.6468333089200073

$$$$
ligand
     RDKit          3D

 47 50  0  0  0  0  0  0  0  0999 V2000
   18.9090   19.1540    7.5370 C   0  0  0  0  0  0  0  0  0  0  0  0
   18.7730   17.6460    7.6780 C   0  0  0  0  0  0  0  0  0  0  0  0
   20.0950   16.9640    7.7170 C   0  0  0  0  0  0  0  0  0  0  0  0
   21.1780   17.1210    6.8750 C   0  0  0  0  0  0  0  0  0  0  0  0
   22.1210   16.2730    7.3820 N   0  0  0  0  0  0  0  0  0  0  0  0
   23.5850   15.8820    6.6540 S   0  0  0  0  0  6  0  0  0  0  0  0
   23.3310   14.6750    5.8900 O   0  0  0  0  0  0  0  0  0  0  0  0
   24.0660   17.1030    6.0390 O   0  0  0  0  0  0  0  0  0  0  0  0
   24.6360   15.4810    8.0210 C   0  0  0  0  0  0  0  0  0  0  0  0
   25.3570   14.2850    8.0070 C   0  0  0  0  0  0  0  0  0  0  0  0
   26.1840   13.9760    9.0830 C   0  0  0  0  0  0  0  0  0  0  0  0
   26.2770   14.8540   10.1680 C   0  0  0  0  0  0  0  0  0  0  0  0
   25.5400   16.0500   10.2010 C   0  0  0  0  0  0  0  0  0  0  0  0
   25.6550   16.9300   11.3510 C   0  0  0  0  0  0  0  0  0  0  0  0
   24.6860   17.2140   12.2890 C   0  0  0  0  0  0  0  0  0  0  0  0
   25.2980   18.0850   13.1430 N   0  0  0  0  0  0  0  0  0  0  0  0
   24.7440   18.6990   14.3340 C   0  0  1  0  0  0  0  0  0  0  0  0
   25.2060   18.0620   15.6470 C   0  0  0  0  0  0  0  0  0  0  0  0
   26.6080   18.4980   16.0500 C   0  0  0  0  0  0  0  0  0  0  0  0
   26.7580   19.9980   16.0250 C   0  0  0  0  0  0  0  0  0  0  0  0
   27.5430   20.5920   16.7600 O   0  0  0  0  0  0  0  0  0  0  0  0
   25.9900   20.6810   15.1170 N   0  0  0  0  0  0  0  0  0  0  0  0
   24.9850   20.1920   14.3180 C   0  0  0  0  0  0  0  0  0  0  0  0
   24.3140   20.9560   13.6230 O   0  0  0  0  0  0  0  0  0  0  0  0
   26.5670   18.3230   12.7700 N   0  0  0  0  0  0  0  0  0  0  0  0
   26.7990   17.6150   11.6740 N   0  0  0  0  0  0  0  0  0  0  0  0
   24.7140   16.3570    9.1120 C   0  0  0  0  0  0  0  0  0  0  0  0
   21.5990   15.6090    8.4450 C   0  0  0  0  0  0  0  0  0  0  0  0
   20.3690   16.0160    8.6830 N   0  0  0  0  0  0  0  0  0  0  0  0
   18.9504   19.6134    8.5356 H   0  0  0  0  0  0  0  0  0  0  0  0
   19.8320   19.3891    6.9867 H   0  0  0  0  0  0  0  0  0  0  0  0
   18.0430   19.5504    6.9867 H   0  0  0  0  0  0  0  0  0  0  0  0
   18.2325   17.4246    8.6101 H   0  0  0  0  0  0  0  0  0  0  0  0
   18.2259   17.2725    6.7998 H   0  0  0  0  0  0  0  0  0  0  0  0
   21.2620   17.7784    5.9971 H   0  0  0  0  0  0  0  0  0  0  0  0
   25.2722   13.5947    7.1548 H   0  0  0  0  0  0  0  0  0  0  0  0
   26.7643   13.0416    9.0802 H   0  0  0  0  0  0  0  0  0  0  0  0
   26.9388   14.6038   11.0103 H   0  0  0  0  0  0  0  0  0  0  0  0
   23.6572   16.8279   12.3380 H   0  0  0  0  0  0  0  0  0  0  0  0
   23.6610   18.5095   14.3009 H   0  0  0  0  0  0  0  0  0  0  0  0
   24.5049   18.3506   16.4440 H   0  0  0  0  0  0  0  0  0  0  0  0
   25.2267   16.9723   15.4985 H   0  0  0  0  0  0  0  0  0  0  0  0
   26.8141   18.1367   17.0683 H   0  0  0  0  0  0  0  0  0  0  0  0
   27.3191   18.0717   15.3271 H   0  0  0  0  0  0  0  0  0  0  0  0
   26.1919   21.6865   15.0222 H   0  0  0  0  0  0  0  0  0  0  0  0
   24.1260   17.2867    9.1133 H   0  0  0  0  0  0  0  0  0  0  0  0
   22.1287   14.8395    9.0258 H   0  0  0  0  0  0  0  0  0  0  0  0
  1  2  1  0
  2  3  1  0
  3  4  2  0
  4  5  1  0
  5  6  1  0
  6  7  2  0
  6  8  2  0
  6  9  1  0
  9 10  2  0
 10 11  1  0
 11 12  2  0
 12 13  1  0
 13 14  1  0
 14 15  2  0
 15 16  1  0
 16 17  1  0
 17 18  1  0
 18 19  1  0
 19 20  1  0
 20 21  2  0
 20 22  1  0
 22 23  1  0
 23 24  2  0
 16 25  1  0
 25 26  2  0
 13 27  2  0
  5 28  1  0
 28 29  2  0
 29  3  1  0
 27  9  1  0
 26 14  1  0
 23 17  1  0
  1 30  1  0
  1 31  1  0
  1 32  1  0
  2 33  1  0
  2 34  1  0
  4 35  1  0
 10 36  1  0
 11 37  1  0
 12 38  1  0
 15 39  1  0
 17 40  1  6
 18 41  1  0
 18 42  1  0
 19 43  1  0
 19 44  1  0
 22 45  1  0
 27 46  1  0
 28 47  1  0
M  END
>  <meeko>  (858) 
{"is_sidechain": [true], "free_energy": -10.44, "intermolecular_energy": 0.0, "internal_energy": -10.44, "cluster_size": 20, "cluster_id": 1, "rank_in_cluster": 1}

>  <_RMSD_MCS_to_ref>  (858) 
0.6618201333360066

$$$$
ligand
     RDKit          3D

 45 49  0  0  0  0  0  0  0  0999 V2000
   18.9090   19.1540    7.5370 C   0  0  0  0  0  0  0  0  0  0  0  0
   18.7730   17.6460    7.6780 C   0  0  0  0  0  0  0  0  0  0  0  0
   20.0950   16.9630    7.7050 C   0  0  0  0  0  0  0  0  0  0  0  0
   20.7730   16.4230    8.7800 C   0  0  0  0  0  0  0  0  0  0  0  0
   21.9310   15.9420    8.2390 N   0  0  0  0  0  0  0  0  0  0  0  0
   23.0570   14.9780    9.0260 S   0  0  0  0  0  6  0  0  0  0  0  0
   24.2600   15.0280    8.2190 O   0  0  0  0  0  0  0  0  0  0  0  0
   22.3750   13.7350    9.3320 O   0  0  0  0  0  0  0  0  0  0  0  0
   23.3600   15.8430   10.5450 C   0  0  0  0  0  0  0  0  0  0  0  0
   24.5750   16.5410   10.7170 C   0  0  0  0  0  0  0  0  0  0  0  0
   24.8300   17.2350   11.9060 C   0  0  0  0  0  0  0  0  0  0  0  0
   23.8470   17.2180   12.8750 C   0  0  0  0  0  0  0  0  0  0  0  0
   22.6610   16.5300   12.6980 C   0  0  0  0  0  0  0  0  0  0  0  0
   22.3770   15.8370   11.5420 C   0  0  0  0  0  0  0  0  0  0  0  0
   21.8300   16.5990   13.8020 O   0  0  0  0  0  0  0  0  0  0  0  0
   22.5930   17.3500   14.7060 C   0  0  0  0  0  0  0  0  0  0  0  0
   22.2260   17.5800   15.8510 O   0  0  0  0  0  0  0  0  0  0  0  0
   23.7790   17.7810   14.1320 N   0  0  0  0  0  0  0  0  0  0  0  0
   24.8630   18.4750   14.8340 C   0  0  1  0  0  0  0  0  0  0  0  0
   24.8770   18.3120   16.4030 C   0  0  0  0  0  0  0  0  0  0  0  0
   26.4240   18.4740   16.2390 C   0  0  1  0  0  0  0  0  0  0  0  0
   26.2170   17.6630   14.9220 C   0  0  0  0  0  0  0  0  0  0  0  0
   26.8850   19.9670   15.9990 C   0  0  0  0  0  0  0  0  0  0  0  0
   27.7460   20.5790   16.6260 O   0  0  0  0  0  0  0  0  0  0  0  0
   26.1800   20.5810   14.9840 N   0  0  0  0  0  0  0  0  0  0  0  0
   25.0870   19.9990   14.3650 C   0  0  0  0  0  0  0  0  0  0  0  0
   24.3900   20.6540   13.5930 O   0  0  0  0  0  0  0  0  0  0  0  0
   21.9140   16.1490    6.8970 C   0  0  0  0  0  0  0  0  0  0  0  0
   20.8150   16.7780    6.5400 N   0  0  0  0  0  0  0  0  0  0  0  0
   18.9504   19.6134    8.5356 H   0  0  0  0  0  0  0  0  0  0  0  0
   19.8320   19.3891    6.9867 H   0  0  0  0  0  0  0  0  0  0  0  0
   18.0430   19.5504    6.9867 H   0  0  0  0  0  0  0  0  0  0  0  0
   18.2404   17.4243    8.6146 H   0  0  0  0  0  0  0  0  0  0  0  0
   18.2180   17.2736    6.8044 H   0  0  0  0  0  0  0  0  0  0  0  0
   20.4533   16.3882    9.8319 H   0  0  0  0  0  0  0  0  0  0  0  0
   25.3253   16.5396    9.9126 H   0  0  0  0  0  0  0  0  0  0  0  0
   25.7768   17.7728   12.0619 H   0  0  0  0  0  0  0  0  0  0  0  0
   21.4238   15.3045   11.4085 H   0  0  0  0  0  0  0  0  0  0  0  0
   24.3752   19.1131   16.9656 H   0  0  0  0  0  0  0  0  0  0  0  0
   24.4055   17.4707   16.9320 H   0  0  0  0  0  0  0  0  0  0  0  0
   27.1491   18.1935   17.0172 H   0  0  0  0  0  0  0  0  0  0  0  0
   26.9435   17.8680   14.1219 H   0  0  0  0  0  0  0  0  0  0  0  0
   26.2738   16.5658   14.8671 H   0  0  0  0  0  0  0  0  0  0  0  0
   26.4809   21.5155   14.6725 H   0  0  0  0  0  0  0  0  0  0  0  0
   22.7087   15.8344    6.2046 H   0  0  0  0  0  0  0  0  0  0  0  0
  1  2  1  0
  2  3  1  0
  3  4  2  0
  4  5  1  0
  5  6  1  0
  6  7  2  0
  6  8  2  0
  6  9  1  0
  9 10  1  0
 10 11  2  0
 11 12  1  0
 12 13  2  0
 13 14  1  0
 13 15  1  0
 15 16  1  0
 16 17  2  0
 16 18  1  0
 19 18  1  6
 19 20  1  0
 20 21  1  0
 21 22  1  0
 21 23  1  0
 23 24  2  0
 23 25  1  0
 25 26  1  0
 26 27  2  0
  5 28  1  0
 28 29  2  0
 29  3  1  0
 14  9  2  0
 22 19  1  0
 18 12  1  0
 26 19  1  0
  1 30  1  0
  1 31  1  0
  1 32  1  0
  2 33  1  0
  2 34  1  0
  4 35  1  0
 10 36  1  0
 11 37  1  0
 14 38  1  0
 20 39  1  0
 20 40  1  0
 21 41  1  1
 22 42  1  0
 22 43  1  0
 25 44  1  0
 28 45  1  0
M  END
>  <meeko>  (859) 
{"is_sidechain": [true], "free_energy": -10.44, "intermolecular_energy": 0.0, "internal_energy": -10.44, "cluster_size": 20, "cluster_id": 1, "rank_in_cluster": 1}

>  <_RMSD_MCS_to_ref>  (859) 
0.7346407285197305

$$$$
ligand
     RDKit          3D

 58 62  0  0  0  0  0  0  0  0999 V2000
   18.9090   19.1540    7.5370 C   0  0  0  0  0  0  0  0  0  0  0  0
   18.7730   17.6460    7.6780 C   0  0  0  0  0  0  0  0  0  0  0  0
   20.0660   16.9440    7.4580 C   0  0  0  0  0  0  0  0  0  0  0  0
   20.5980   15.8750    8.1520 C   0  0  0  0  0  0  0  0  0  0  0  0
   21.8050   15.6570    7.5580 N   0  0  0  0  0  0  0  0  0  0  0  0
   22.9770   14.5480    8.0160 S   0  0  0  0  0  6  0  0  0  0  0  0
   23.7260   14.2800    6.8020 O   0  0  0  0  0  0  0  0  0  0  0  0
   22.3100   13.4770    8.7280 O   0  0  0  0  0  0  0  0  0  0  0  0
   24.0520   15.4170    9.1270 C   0  0  0  0  0  0  0  0  0  0  0  0
   23.5230   15.8520   10.3520 C   0  0  0  0  0  0  0  0  0  0  0  0
   24.3630   16.5540   11.1960 C   0  0  0  0  0  0  0  0  0  0  0  0
   25.6850   16.8520   10.8750 C   0  0  0  0  0  0  0  0  0  0  0  0
   26.2130   16.4460    9.6640 C   0  0  0  0  0  0  0  0  0  0  0  0
   25.3800   15.7340    8.7780 C   0  0  0  0  0  0  0  0  0  0  0  0
   25.9940   15.2760    7.5230 C   0  0  0  0  0  0  0  0  0  0  0  0
   26.4570   14.1420    7.5150 O   0  0  0  0  0  0  0  0  0  0  0  0
   26.0410   16.1550    6.4680 N   0  0  0  0  0  0  0  0  0  0  0  0
   25.3790   17.4500    6.3850 C   0  0  0  0  0  0  0  0  0  0  0  0
   25.6640   17.8590    4.9820 C   0  0  0  0  0  0  0  0  0  0  0  0
   26.3360   16.9070    4.3260 C   0  0  0  0  0  0  0  0  0  0  0  0
   26.5930   15.7250    5.1960 C   0  0  0  0  0  0  0  0  0  0  0  0
   26.3160   17.6300   11.9810 C   0  0  0  0  0  0  0  0  0  0  0  0
   25.2650   17.6600   12.9890 N   0  0  0  0  0  0  0  0  0  0  0  0
   25.3620   18.5330   14.1560 C   0  0  2  0  0  0  0  0  0  0  0  0
   26.0550   19.8660   13.8760 C   0  0  0  0  0  0  0  0  0  0  0  0
   26.0430   20.7130   15.1390 C   0  0  0  0  0  0  0  0  0  0  0  0
   26.6950   19.9860   16.2940 C   0  0  0  0  0  0  0  0  0  0  0  0
   27.1730   20.5800   17.2550 O   0  0  0  0  0  0  0  0  0  0  0  0
   26.6550   18.6140   16.2600 N   0  0  0  0  0  0  0  0  0  0  0  0
   26.0410   17.8090   15.3280 C   0  0  0  0  0  0  0  0  0  0  0  0
   25.9700   16.5920   15.5050 O   0  0  0  0  0  0  0  0  0  0  0  0
   24.0780   17.1200   12.5180 C   0  0  0  0  0  0  0  0  0  0  0  0
   22.9830   17.1080   13.0450 O   0  0  0  0  0  0  0  0  0  0  0  0
   21.9660   16.5430    6.5400 C   0  0  0  0  0  0  0  0  0  0  0  0
   20.9280   17.3480    6.4560 N   0  0  0  0  0  0  0  0  0  0  0  0
   18.9504   19.6134    8.5356 H   0  0  0  0  0  0  0  0  0  0  0  0
   19.8320   19.3891    6.9867 H   0  0  0  0  0  0  0  0  0  0  0  0
   18.0430   19.5504    6.9867 H   0  0  0  0  0  0  0  0  0  0  0  0
   18.4124   17.4157    8.6914 H   0  0  0  0  0  0  0  0  0  0  0  0
   18.0639   17.2971    6.9129 H   0  0  0  0  0  0  0  0  0  0  0  0
   20.1497   15.3250    8.9925 H   0  0  0  0  0  0  0  0  0  0  0  0
   22.4796   15.6423   10.6299 H   0  0  0  0  0  0  0  0  0  0  0  0
   27.2562   16.6727    9.3987 H   0  0  0  0  0  0  0  0  0  0  0  0
   24.2972   17.3571    6.5615 H   0  0  0  0  0  0  0  0  0  0  0  0
   25.7287   18.1738    7.1359 H   0  0  0  0  0  0  0  0  0  0  0  0
   25.3608   18.8204    4.5418 H   0  0  0  0  0  0  0  0  0  0  0  0
   26.6581   16.9864    3.2772 H   0  0  0  0  0  0  0  0  0  0  0  0
   26.0749   14.8313    4.8180 H   0  0  0  0  0  0  0  0  0  0  0  0
   27.6536   15.4380    5.2492 H   0  0  0  0  0  0  0  0  0  0  0  0
   27.2154   17.1228   12.3602 H   0  0  0  0  0  0  0  0  0  0  0  0
   26.6558   18.6300   11.6736 H   0  0  0  0  0  0  0  0  0  0  0  0
   24.3255   18.7791   14.4299 H   0  0  0  0  0  0  0  0  0  0  0  0
   27.0945   19.6820   13.5667 H   0  0  0  0  0  0  0  0  0  0  0  0
   25.5239   20.3959   13.0716 H   0  0  0  0  0  0  0  0  0  0  0  0
   26.5908   21.6478   14.9489 H   0  0  0  0  0  0  0  0  0  0  0  0
   24.9969   20.9227   15.4067 H   0  0  0  0  0  0  0  0  0  0  0  0
   27.1441   18.1281   17.0253 H   0  0  0  0  0  0  0  0  0  0  0  0
   22.8432   16.5820    5.8774 H   0  0  0  0  0  0  0  0  0  0  0  0
  1  2  1  0
  2  3  1  0
  3  4  2  0
  4  5  1  0
  5  6  1  0
  6  7  2  0
  6  8  2  0
  6  9  1  0
  9 10  2  0
 10 11  1  0
 11 12  2  0
 12 13  1  0
 13 14  2  0
 14 15  1  0
 15 16  2  0
 15 17  1  0
 17 18  1  0
 18 19  1  0
 19 20  2  0
 20 21  1  0
 12 22  1  0
 22 23  1  0
 23 24  1  0
 24 25  1  0
 25 26  1  0
 26 27  1  0
 27 28  2  0
 27 29  1  0
 29 30  1  0
 30 31  2  0
 23 32  1  0
 32 33  2  0
  5 34  1  0
 34 35  2  0
 35  3  1  0
 14  9  1  0
 21 17  1  0
 30 24  1  0
 32 11  1  0
  1 36  1  0
  1 37  1  0
  1 38  1  0
  2 39  1  0
  2 40  1  0
  4 41  1  0
 10 42  1  0
 13 43  1  0
 18 44  1  0
 18 45  1  0
 19 46  1  0
 20 47  1  0
 21 48  1  0
 21 49  1  0
 22 50  1  0
 22 51  1  0
 24 52  1  1
 25 53  1  0
 25 54  1  0
 26 55  1  0
 26 56  1  0
 29 57  1  0
 34 58  1  0
M  END
>  <meeko>  (860) 
{"is_sidechain": [true], "free_energy": -10.44, "intermolecular_energy": 0.0, "internal_energy": -10.44, "cluster_size": 15, "cluster_id": 2, "rank_in_cluster": 1}

>  <_RMSD_MCS_to_ref>  (860) 
1.7599932607194204

$$$$
ligand
     RDKit          3D

 56 60  0  0  0  0  0  0  0  0999 V2000
   18.9090   19.1540    7.5370 C   0  0  0  0  0  0  0  0  0  0  0  0
   18.7730   17.6460    7.6780 C   0  0  0  0  0  0  0  0  0  0  0  0
   19.8670   16.9160    6.9800 C   0  0  0  0  0  0  0  0  0  0  0  0
   21.0830   16.4930    7.4780 C   0  0  0  0  0  0  0  0  0  0  0  0
   21.6810   15.8720    6.4200 N   0  0  0  0  0  0  0  0  0  0  0  0
   23.2810   15.3610    6.3490 S   0  0  0  0  0  6  0  0  0  0  0  0
   23.3140   14.2660    5.4000 O   0  0  0  0  0  0  0  0  0  0  0  0
   24.0650   16.5680    6.1750 O   0  0  0  0  0  0  0  0  0  0  0  0
   23.5860   14.7050    7.9660 C   0  0  0  0  0  0  0  0  0  0  0  0
   23.6380   13.3240    8.1560 C   0  0  0  0  0  0  0  0  0  0  0  0
   23.8680   12.8170    9.4350 C   0  0  0  0  0  0  0  0  0  0  0  0
   24.0760   13.6740   10.5310 C   0  0  0  0  0  0  0  0  0  0  0  0
   24.0040   15.0600   10.3160 C   0  0  0  0  0  0  0  0  0  0  0  0
   23.7500   15.5830    9.0420 C   0  0  0  0  0  0  0  0  0  0  0  0
   24.2250   15.9810   11.4600 C   0  0  0  0  0  0  0  0  0  0  0  0
   24.1620   17.1960   11.2900 O   0  0  0  0  0  0  0  0  0  0  0  0
   24.5460   15.3910   12.7870 C   0  0  0  0  0  0  0  0  0  0  0  0
   24.8330   16.1790   14.0180 C   0  0  0  0  0  0  0  0  0  0  0  0
   24.9270   15.6480   15.1220 O   0  0  0  0  0  0  0  0  0  0  0  0
   24.9790   17.5290   13.8400 N   0  0  0  0  0  0  0  0  0  0  0  0
   25.1990   18.4410   14.9500 C   0  0  1  0  0  0  0  0  0  0  0  0
   26.1980   17.8720   15.9520 C   0  0  0  0  0  0  0  0  0  0  0  0
   26.3980   18.8620   17.0890 C   0  0  0  0  0  0  0  0  0  0  0  0
   26.8340   20.2120   16.5700 C   0  0  0  0  0  0  0  0  0  0  0  0
   27.5820   20.9500   17.2040 O   0  0  0  0  0  0  0  0  0  0  0  0
   26.3220   20.5980   15.3570 N   0  0  0  0  0  0  0  0  0  0  0  0
   25.7180   19.7860   14.4280 C   0  0  0  0  0  0  0  0  0  0  0  0
   25.5930   20.1530   13.2610 O   0  0  0  0  0  0  0  0  0  0  0  0
   24.5970   14.0510   12.8600 C   0  0  0  0  0  0  0  0  0  0  0  0
   24.3470   13.1760   11.8220 N   0  0  0  0  0  0  0  0  0  0  0  0
   24.6030   11.7340   11.8740 C   0  0  0  0  0  0  0  0  0  0  0  0
   23.6850   11.0080   10.8940 C   0  0  0  0  0  0  0  0  0  0  0  0
   23.8960   11.4470    9.5440 O   0  0  0  0  0  0  0  0  0  0  0  0
   20.8700   15.9630    5.3340 C   0  0  0  0  0  0  0  0  0  0  0  0
   19.7530   16.5870    5.6440 N   0  0  0  0  0  0  0  0  0  0  0  0
   18.9504   19.6134    8.5356 H   0  0  0  0  0  0  0  0  0  0  0  0
   19.8320   19.3891    6.9867 H   0  0  0  0  0  0  0  0  0  0  0  0
   18.0430   19.5504    6.9867 H   0  0  0  0  0  0  0  0  0  0  0  0
   18.7990   17.3861    8.7466 H   0  0  0  0  0  0  0  0  0  0  0  0
   17.8197   17.3479    7.2171 H   0  0  0  0  0  0  0  0  0  0  0  0
   21.4795   16.6261    8.4954 H   0  0  0  0  0  0  0  0  0  0  0  0
   23.4989   12.6411    7.3050 H   0  0  0  0  0  0  0  0  0  0  0  0
   23.6804   16.6702    8.8897 H   0  0  0  0  0  0  0  0  0  0  0  0
   24.9312   17.9118   12.8850 H   0  0  0  0  0  0  0  0  0  0  0  0
   24.2355   18.5822   15.4616 H   0  0  0  0  0  0  0  0  0  0  0  0
   25.8127   16.9239   16.3553 H   0  0  0  0  0  0  0  0  0  0  0  0
   27.1597   17.6935   15.4488 H   0  0  0  0  0  0  0  0  0  0  0  0
   25.4501   18.9770   17.6351 H   0  0  0  0  0  0  0  0  0  0  0  0
   27.1847   18.4743   17.7530 H   0  0  0  0  0  0  0  0  0  0  0  0
   26.3982   21.5972   15.1190 H   0  0  0  0  0  0  0  0  0  0  0  0
   24.8614   13.6117   13.8332 H   0  0  0  0  0  0  0  0  0  0  0  0
   25.6515   11.5397   11.6040 H   0  0  0  0  0  0  0  0  0  0  0  0
   24.4075   11.3678   12.8927 H   0  0  0  0  0  0  0  0  0  0  0  0
   23.8839    9.9277   10.9527 H   0  0  0  0  0  0  0  0  0  0  0  0
   22.6439   11.2327   11.1688 H   0  0  0  0  0  0  0  0  0  0  0  0
   21.1126   15.5703    4.3355 H   0  0  0  0  0  0  0  0  0  0  0  0
  1  2  1  0
  2  3  1  0
  3  4  2  0
  4  5  1  0
  5  6  1  0
  6  7  2  0
  6  8  2  0
  6  9  1  0
  9 10  2  0
 10 11  1  0
 11 12  2  0
 12 13  1  0
 13 14  2  0
 13 15  1  0
 15 16  2  0
 15 17  1  0
 17 18  1  0
 18 19  2  0
 18 20  1  0
 20 21  1  0
 21 22  1  0
 22 23  1  0
 23 24  1  0
 24 25  2  0
 24 26  1  0
 26 27  1  0
 27 28  2  0
 17 29  2  0
 29 30  1  0
 30 31  1  0
 31 32  1  0
 32 33  1  0
  5 34  1  0
 34 35  2  0
 35  3  1  0
 14  9  1  0
 27 21  1  0
 33 11  1  0
 30 12  1  0
  1 36  1  0
  1 37  1  0
  1 38  1  0
  2 39  1  0
  2 40  1  0
  4 41  1  0
 10 42  1  0
 14 43  1  0
 20 44  1  0
 21 45  1  1
 22 46  1  0
 22 47  1  0
 23 48  1  0
 23 49  1  0
 26 50  1  0
 29 51  1  0
 31 52  1  0
 31 53  1  0
 32 54  1  0
 32 55  1  0
 34 56  1  0
M  END
>  <meeko>  (861) 
{"is_sidechain": [true], "free_energy": -10.44, "intermolecular_energy": 0.0, "internal_energy": -10.44, "cluster_size": 17, "cluster_id": 1, "rank_in_cluster": 1}

>  <_RMSD_MCS_to_ref>  (861) 
0.5099856207123225

$$$$
ligand
     RDKit          3D

 48 51  0  0  0  0  0  0  0  0999 V2000
   18.9090   19.1540    7.5370 C   0  0  0  0  0  0  0  0  0  0  0  0
   18.7730   17.6460    7.6780 C   0  0  0  0  0  0  0  0  0  0  0  0
   19.8760   16.9160    6.9960 C   0  0  0  0  0  0  0  0  0  0  0  0
   20.9700   16.2790    7.5490 C   0  0  0  0  0  0  0  0  0  0  0  0
   21.6340   15.7600    6.4740 N   0  0  0  0  0  0  0  0  0  0  0  0
   23.1900   15.1030    6.5070 S   0  0  0  0  0  6  0  0  0  0  0  0
   23.0530   13.8300    5.8220 O   0  0  0  0  0  0  0  0  0  0  0  0
   24.0360   16.1500    5.9630 O   0  0  0  0  0  0  0  0  0  0  0  0
   23.5640   14.8250    8.1940 C   0  0  0  0  0  0  0  0  0  0  0  0
   23.5370   13.4700    8.7490 C   0  0  0  0  0  0  0  0  0  0  0  0
   23.8130   13.2940   10.0540 C   0  0  0  0  0  0  0  0  0  0  0  0
   24.1190   14.4020   10.8390 N   0  0  0  0  0  0  0  0  0  0  0  0
   24.4280   14.4700   12.1700 C   0  0  0  0  0  0  0  0  0  0  0  0
   24.6430   15.8060   12.4410 C   0  0  0  0  0  0  0  0  0  0  0  0
   24.9960   16.3900   13.7340 C   0  0  0  0  0  0  0  0  0  0  0  0
   25.1620   15.7250   14.7520 O   0  0  0  0  0  0  0  0  0  0  0  0
   25.1110   17.7570   13.6900 N   0  0  0  0  0  0  0  0  0  0  0  0
   25.2940   18.5620   14.8810 C   0  0  1  0  0  0  0  0  0  0  0  0
   26.3110   17.9450   15.8350 C   0  0  0  0  0  0  0  0  0  0  0  0
   26.4750   18.8410   17.0540 C   0  0  0  0  0  0  0  0  0  0  0  0
   26.8620   20.2460   16.6530 C   0  0  0  0  0  0  0  0  0  0  0  0
   27.5840   20.9530   17.3490 O   0  0  0  0  0  0  0  0  0  0  0  0
   26.3340   20.7160   15.4780 N   0  0  0  0  0  0  0  0  0  0  0  0
   25.7690   19.9620   14.4770 C   0  0  0  0  0  0  0  0  0  0  0  0
   25.6440   20.4150   13.3410 O   0  0  0  0  0  0  0  0  0  0  0  0
   24.4700   16.5650   11.2900 N   0  0  0  0  0  0  0  0  0  0  0  0
   24.1600   15.7030   10.3460 C   0  0  0  0  0  0  0  0  0  0  0  0
   23.8690   15.8930    8.9640 C   0  0  0  0  0  0  0  0  0  0  0  0
   20.9960   16.1320    5.3340 C   0  0  0  0  0  0  0  0  0  0  0  0
   19.9120   16.8240    5.6180 N   0  0  0  0  0  0  0  0  0  0  0  0
   18.9504   19.6134    8.5356 H   0  0  0  0  0  0  0  0  0  0  0  0
   19.8320   19.3891    6.9867 H   0  0  0  0  0  0  0  0  0  0  0  0
   18.0430   19.5504    6.9867 H   0  0  0  0  0  0  0  0  0  0  0  0
   18.7851   17.3876    8.7472 H   0  0  0  0  0  0  0  0  0  0  0  0
   17.8264   17.3465    7.2045 H   0  0  0  0  0  0  0  0  0  0  0  0
   21.2438   16.2063    8.6119 H   0  0  0  0  0  0  0  0  0  0  0  0
   23.2947   12.6091    8.1086 H   0  0  0  0  0  0  0  0  0  0  0  0
   23.7970   12.2865   10.4953 H   0  0  0  0  0  0  0  0  0  0  0  0
   24.4920   13.6314   12.8790 H   0  0  0  0  0  0  0  0  0  0  0  0
   25.0655   18.2287   12.7755 H   0  0  0  0  0  0  0  0  0  0  0  0
   24.3275   18.6150   15.4035 H   0  0  0  0  0  0  0  0  0  0  0  0
   25.9588   16.9530   16.1543 H   0  0  0  0  0  0  0  0  0  0  0  0
   27.2790   17.8441   15.3224 H   0  0  0  0  0  0  0  0  0  0  0  0
   25.5235   18.8746   17.6050 H   0  0  0  0  0  0  0  0  0  0  0  0
   27.2750   18.4266   17.6852 H   0  0  0  0  0  0  0  0  0  0  0  0
   26.3637   21.7350   15.3308 H   0  0  0  0  0  0  0  0  0  0  0  0
   23.8925   16.9021    8.5269 H   0  0  0  0  0  0  0  0  0  0  0  0
   21.3368   15.8894    4.3166 H   0  0  0  0  0  0  0  0  0  0  0  0
  1  2  1  0
  2  3  1  0
  3  4  2  0
  4  5  1  0
  5  6  1  0
  6  7  2  0
  6  8  2  0
  6  9  1  0
  9 10  1  0
 10 11  2  0
 11 12  1  0
 12 13  1  0
 13 14  2  0
 14 15  1  0
 15 16  2  0
 15 17  1  0
 17 18  1  0
 18 19  1  0
 19 20  1  0
 20 21  1  0
 21 22  2  0
 21 23  1  0
 23 24  1  0
 24 25  2  0
 14 26  1  0
 26 27  2  0
 27 28  1  0
  5 29  1  0
 29 30  2  0
 30  3  1  0
 28  9  2  0
 27 12  1  0
 24 18  1  0
  1 31  1  0
  1 32  1  0
  1 33  1  0
  2 34  1  0
  2 35  1  0
  4 36  1  0
 10 37  1  0
 11 38  1  0
 13 39  1  0
 17 40  1  0
 18 41  1  1
 19 42  1  0
 19 43  1  0
 20 44  1  0
 20 45  1  0
 23 46  1  0
 28 47  1  0
 29 48  1  0
M  END
>  <meeko>  (862) 
{"is_sidechain": [true], "free_energy": -10.44, "intermolecular_energy": 0.0, "internal_energy": -10.44, "cluster_size": 18, "cluster_id": 1, "rank_in_cluster": 1}

>  <_RMSD_MCS_to_ref>  (862) 
0.578670698910682

$$$$
ligand
     RDKit          3D

 48 51  0  0  0  0  0  0  0  0999 V2000
   18.9090   19.1540    7.5370 C   0  0  0  0  0  0  0  0  0  0  0  0
   18.7730   17.6460    7.6780 C   0  0  0  0  0  0  0  0  0  0  0  0
   20.0520   16.9390    7.3980 C   0  0  0  0  0  0  0  0  0  0  0  0
   20.6900   15.9700    8.1470 C   0  0  0  0  0  0  0  0  0  0  0  0
   21.8170   15.6840    7.4290 N   0  0  0  0  0  0  0  0  0  0  0  0
   22.9670   14.5200    7.8440 S   0  0  0  0  0  6  0  0  0  0  0  0
   22.2490   13.5260    8.6210 O   0  0  0  0  0  0  0  0  0  0  0  0
   23.5340   14.1500    6.5540 O   0  0  0  0  0  0  0  0  0  0  0  0
   24.1930   15.2480    8.8100 C   0  0  0  0  0  0  0  0  0  0  0  0
   25.3140   15.7110    8.2250 C   0  0  0  0  0  0  0  0  0  0  0  0
   26.3420   16.3110    9.0550 C   0  0  0  0  0  0  0  0  0  0  0  0
   26.1990   16.4080   10.3890 C   0  0  0  0  0  0  0  0  0  0  0  0
   25.0140   15.9120   11.0140 C   0  0  0  0  0  0  0  0  0  0  0  0
   24.5540   15.8560   12.3200 C   0  0  0  0  0  0  0  0  0  0  0  0
   25.2460   16.3380   13.5050 C   0  0  0  0  0  0  0  0  0  0  0  0
   25.5890   15.5980   14.4210 O   0  0  0  0  0  0  0  0  0  0  0  0
   25.5050   17.6900   13.5310 N   0  0  0  0  0  0  0  0  0  0  0  0
   26.3110   18.2860   14.5880 C   0  0  2  0  0  0  0  0  0  0  0  0
   25.7770   17.9570   15.9790 C   0  0  0  0  0  0  0  0  0  0  0  0
   26.6380   18.6450   17.0270 C   0  0  0  0  0  0  0  0  0  0  0  0
   26.7090   20.1350   16.7880 C   0  0  0  0  0  0  0  0  0  0  0  0
   26.7870   20.9470   17.7040 O   0  0  0  0  0  0  0  0  0  0  0  0
   26.7120   20.5480   15.4790 N   0  0  0  0  0  0  0  0  0  0  0  0
   26.3040   19.8040   14.4000 C   0  0  0  0  0  0  0  0  0  0  0  0
   25.9640   20.3390   13.3450 O   0  0  0  0  0  0  0  0  0  0  0  0
   23.3020   15.2220   12.1940 C   0  0  0  0  0  0  0  0  0  0  0  0
   22.9870   14.9150   10.9370 N   0  0  0  0  0  0  0  0  0  0  0  0
   24.0370   15.3320   10.1910 N   0  0  0  0  0  0  0  0  0  0  0  0
   21.8320   16.4360    6.3000 C   0  0  0  0  0  0  0  0  0  0  0  0
   20.7730   17.2210    6.2550 N   0  0  0  0  0  0  0  0  0  0  0  0
   18.9504   19.6134    8.5356 H   0  0  0  0  0  0  0  0  0  0  0  0
   19.8320   19.3891    6.9867 H   0  0  0  0  0  0  0  0  0  0  0  0
   18.0430   19.5504    6.9867 H   0  0  0  0  0  0  0  0  0  0  0  0
   18.4568   17.4131    8.7055 H   0  0  0  0  0  0  0  0  0  0  0  0
   18.0292   17.3033    6.9436 H   0  0  0  0  0  0  0  0  0  0  0  0
   20.3658   15.5298    9.1015 H   0  0  0  0  0  0  0  0  0  0  0  0
   25.4483   15.6356    7.1358 H   0  0  0  0  0  0  0  0  0  0  0  0
   27.2584   16.6949    8.5829 H   0  0  0  0  0  0  0  0  0  0  0  0
   26.9921   16.8679   10.9968 H   0  0  0  0  0  0  0  0  0  0  0  0
   25.1213   18.2919   12.7884 H   0  0  0  0  0  0  0  0  0  0  0  0
   27.3285   17.8739   14.5173 H   0  0  0  0  0  0  0  0  0  0  0  0
   24.7392   18.3110   16.0668 H   0  0  0  0  0  0  0  0  0  0  0  0
   25.8071   16.8687   16.1359 H   0  0  0  0  0  0  0  0  0  0  0  0
   26.2060   18.4620   18.0219 H   0  0  0  0  0  0  0  0  0  0  0  0
   27.6565   18.2345   16.9631 H   0  0  0  0  0  0  0  0  0  0  0  0
   27.0509   21.5020   15.2893 H   0  0  0  0  0  0  0  0  0  0  0  0
   22.6482   15.0020   13.0508 H   0  0  0  0  0  0  0  0  0  0  0  0
   22.6169   16.3966    5.5304 H   0  0  0  0  0  0  0  0  0  0  0  0
  1  2  1  0
  2  3  1  0
  3  4  2  0
  4  5  1  0
  5  6  1  0
  6  7  2  0
  6  8  2  0
  6  9  1  0
  9 10  2  0
 10 11  1  0
 11 12  2  0
 12 13  1  0
 13 14  2  0
 14 15  1  0
 15 16  2  0
 15 17  1  0
 17 18  1  0
 18 19  1  0
 19 20  1  0
 20 21  1  0
 21 22  2  0
 21 23  1  0
 23 24  1  0
 24 25  2  0
 14 26  1  0
 26 27  2  0
 27 28  1  0
  5 29  1  0
 29 30  2  0
 30  3  1  0
 28  9  1  0
 28 13  1  0
 24 18  1  0
  1 31  1  0
  1 32  1  0
  1 33  1  0
  2 34  1  0
  2 35  1  0
  4 36  1  0
 10 37  1  0
 11 38  1  0
 12 39  1  0
 17 40  1  0
 18 41  1  1
 19 42  1  0
 19 43  1  0
 20 44  1  0
 20 45  1  0
 23 46  1  0
 26 47  1  0
 29 48  1  0
M  END
>  <meeko>  (863) 
{"is_sidechain": [true], "free_energy": -10.44, "intermolecular_energy": 0.0, "internal_energy": -10.44, "cluster_size": 20, "cluster_id": 1, "rank_in_cluster": 1}

>  <_RMSD_MCS_to_ref>  (863) 
0.9275679070678444

$$$$
ligand
     RDKit          3D

 46 49  0  0  0  0  0  0  0  0999 V2000
   18.9090   19.1540    7.5370 C   0  0  0  0  0  0  0  0  0  0  0  0
   18.7730   17.6460    7.6780 C   0  0  0  0  0  0  0  0  0  0  0  0
   19.9440   16.9210    7.1140 C   0  0  0  0  0  0  0  0  0  0  0  0
   20.7330   15.9520    7.7010 C   0  0  0  0  0  0  0  0  0  0  0  0
   21.6420   15.6310    6.7360 N   0  0  0  0  0  0  0  0  0  0  0  0
   22.9620   14.6200    6.9240 S   0  0  0  0  0  6  0  0  0  0  0  0
   23.6980   14.6570    5.6750 O   0  0  0  0  0  0  0  0  0  0  0  0
   22.4630   13.3870    7.5030 O   0  0  0  0  0  0  0  0  0  0  0  0
   24.0410   15.2590    8.0970 C   0  0  0  0  0  0  0  0  0  0  0  0
   25.3480   15.4410    7.8610 N   0  0  0  0  0  0  0  0  0  0  0  0
   25.8580   15.9650    9.0420 O   0  0  0  0  0  0  0  0  0  0  0  0
   24.8600   16.0870    9.9640 C   0  0  0  0  0  0  0  0  0  0  0  0
   25.0500   16.5660   11.2070 N   0  0  0  0  0  0  0  0  0  0  0  0
   23.9020   16.5880   11.9400 C   0  0  0  0  0  0  0  0  0  0  0  0
   24.0420   17.1150   13.3390 C   0  0  0  0  0  0  0  0  0  0  0  0
   23.2420   16.8190   14.2200 O   0  0  0  0  0  0  0  0  0  0  0  0
   25.1170   17.9510   13.5390 N   0  0  0  0  0  0  0  0  0  0  0  0
   25.3240   18.6720   14.7820 C   0  0  1  0  0  0  0  0  0  0  0  0
   26.3400   17.9760   15.6830 C   0  0  0  0  0  0  0  0  0  0  0  0
   26.5280   18.7860   16.9560 C   0  0  0  0  0  0  0  0  0  0  0  0
   26.9340   20.2070   16.6470 C   0  0  0  0  0  0  0  0  0  0  0  0
   27.6800   20.8530   17.3780 O   0  0  0  0  0  0  0  0  0  0  0  0
   26.4000   20.7660   15.5140 N   0  0  0  0  0  0  0  0  0  0  0  0
   25.8200   20.0880   14.4700 C   0  0  0  0  0  0  0  0  0  0  0  0
   25.7000   20.6140   13.3640 O   0  0  0  0  0  0  0  0  0  0  0  0
   22.6470   16.1740   11.4960 C   0  0  0  0  0  0  0  0  0  0  0  0
   22.5100   15.6860   10.1950 C   0  0  0  0  0  0  0  0  0  0  0  0
   23.6700   15.6440    9.4040 C   0  0  0  0  0  0  0  0  0  0  0  0
   21.4350   16.4140    5.6470 C   0  0  0  0  0  0  0  0  0  0  0  0
   20.3910   17.1960    5.8370 N   0  0  0  0  0  0  0  0  0  0  0  0
   18.9504   19.6134    8.5356 H   0  0  0  0  0  0  0  0  0  0  0  0
   19.8320   19.3891    6.9867 H   0  0  0  0  0  0  0  0  0  0  0  0
   18.0430   19.5504    6.9867 H   0  0  0  0  0  0  0  0  0  0  0  0
   18.6825   17.3967    8.7456 H   0  0  0  0  0  0  0  0  0  0  0  0
   17.8799   17.3334    7.1170 H   0  0  0  0  0  0  0  0  0  0  0  0
   20.6480   15.5343    8.7151 H   0  0  0  0  0  0  0  0  0  0  0  0
   25.8007   18.0696   12.7778 H   0  0  0  0  0  0  0  0  0  0  0  0
   24.3623   18.7046   15.3149 H   0  0  0  0  0  0  0  0  0  0  0  0
   25.9748   16.9705   15.9389 H   0  0  0  0  0  0  0  0  0  0  0  0
   27.3018   17.8938   15.1556 H   0  0  0  0  0  0  0  0  0  0  0  0
   25.5815   18.7975   17.5164 H   0  0  0  0  0  0  0  0  0  0  0  0
   27.3266   18.3182   17.5505 H   0  0  0  0  0  0  0  0  0  0  0  0
   26.4376   21.7926   15.4390 H   0  0  0  0  0  0  0  0  0  0  0  0
   21.7744   16.2312   12.1632 H   0  0  0  0  0  0  0  0  0  0  0  0
   21.5373   15.3495    9.8069 H   0  0  0  0  0  0  0  0  0  0  0  0
   22.0507   16.3983    4.7356 H   0  0  0  0  0  0  0  0  0  0  0  0
  1  2  1  0
  2  3  1  0
  3  4  2  0
  4  5  1  0
  5  6  1  0
  6  7  2  0
  6  8  2  0
  6  9  1  0
  9 10  2  0
 10 11  1  0
 11 12  1  0
 12 13  2  0
 13 14  1  0
 14 15  1  0
 15 16  2  0
 15 17  1  0
 17 18  1  0
 18 19  1  0
 19 20  1  0
 20 21  1  0
 21 22  2  0
 21 23  1  0
 23 24  1  0
 24 25  2  0
 14 26  2  0
 26 27  1  0
 27 28  2  0
  5 29  1  0
 29 30  2  0
 30  3  1  0
 28  9  1  0
 28 12  1  0
 24 18  1  0
  1 31  1  0
  1 32  1  0
  1 33  1  0
  2 34  1  0
  2 35  1  0
  4 36  1  0
 17 37  1  0
 18 38  1  1
 19 39  1  0
 19 40  1  0
 20 41  1  0
 20 42  1  0
 23 43  1  0
 26 44  1  0
 27 45  1  0
 29 46  1  0
M  END
>  <meeko>  (864) 
{"is_sidechain": [true], "free_energy": -10.44, "intermolecular_energy": 0.0, "internal_energy": -10.44, "cluster_size": 15, "cluster_id": 1, "rank_in_cluster": 1}

>  <_RMSD_MCS_to_ref>  (864) 
0.6419643465350877

$$$$
ligand
     RDKit          3D

 50 53  0  0  0  0  0  0  0  0999 V2000
   18.9090   19.1540    7.5370 C   0  0  0  0  0  0  0  0  0  0  0  0
   18.7730   17.6460    7.6780 C   0  0  0  0  0  0  0  0  0  0  0  0
   20.0380   16.9340    7.3520 C   0  0  0  0  0  0  0  0  0  0  0  0
   21.1650   16.7660    8.1320 C   0  0  0  0  0  0  0  0  0  0  0  0
   22.0060   16.0270    7.3500 N   0  0  0  0  0  0  0  0  0  0  0  0
   23.5780   15.5810    7.7290 S   0  0  0  0  0  6  0  0  0  0  0  0
   23.7110   14.2020    7.2870 O   0  0  0  0  0  0  0  0  0  0  0  0
   24.4290   16.6390    7.2140 O   0  0  0  0  0  0  0  0  0  0  0  0
   23.6750   15.6040    9.4970 C   0  0  0  0  0  0  0  0  0  0  0  0
   22.9320   14.6960   10.2320 C   0  0  0  0  0  0  0  0  0  0  0  0
   23.0300   14.7400   11.6260 C   0  0  0  0  0  0  0  0  0  0  0  0
   22.3040   13.8340   12.4140 C   0  0  0  0  0  0  0  0  0  0  0  0
   22.3910   13.8610   13.8040 C   0  0  0  0  0  0  0  0  0  0  0  0
   23.2080   14.7970   14.4300 C   0  0  0  0  0  0  0  0  0  0  0  0
   23.9490   15.7110   13.6630 C   0  0  0  0  0  0  0  0  0  0  0  0
   24.7940   16.7020   14.3810 C   0  0  0  0  0  0  0  0  0  0  0  0
   25.9990   16.5310   14.5080 O   0  0  0  0  0  0  0  0  0  0  0  0
   24.1260   17.7910   14.8970 N   0  0  0  0  0  0  0  0  0  0  0  0
   24.8010   18.7520   15.7580 C   0  0  1  0  0  0  0  0  0  0  0  0
   25.8160   18.0890   16.6840 C   0  0  0  0  0  0  0  0  0  0  0  0
   26.5110   19.1520   17.5190 C   0  0  0  0  0  0  0  0  0  0  0  0
   27.1510   20.2050   16.6450 C   0  0  0  0  0  0  0  0  0  0  0  0
   28.2030   20.7620   16.9450 O   0  0  0  0  0  0  0  0  0  0  0  0
   26.4820   20.5370   15.4930 N   0  0  0  0  0  0  0  0  0  0  0  0
   25.5270   19.7710   14.8720 C   0  0  0  0  0  0  0  0  0  0  0  0
   25.2750   19.9110   13.6760 O   0  0  0  0  0  0  0  0  0  0  0  0
   23.8670   15.7020   12.2440 C   0  0  0  0  0  0  0  0  0  0  0  0
   24.5660   16.5650   11.3770 C   0  0  0  0  0  0  0  0  0  0  0  0
   24.4950   16.5370   10.0240 N   0  0  0  0  0  0  0  0  0  0  0  0
   21.4170   15.8090    6.1450 C   0  0  0  0  0  0  0  0  0  0  0  0
   20.2080   16.3310    6.1200 N   0  0  0  0  0  0  0  0  0  0  0  0
   18.9504   19.6134    8.5356 H   0  0  0  0  0  0  0  0  0  0  0  0
   19.8320   19.3891    6.9867 H   0  0  0  0  0  0  0  0  0  0  0  0
   18.0430   19.5504    6.9867 H   0  0  0  0  0  0  0  0  0  0  0  0
   18.4917   17.4113    8.7152 H   0  0  0  0  0  0  0  0  0  0  0  0
   18.0035   17.3088    6.9680 H   0  0  0  0  0  0  0  0  0  0  0  0
   21.3443   17.1415    9.1503 H   0  0  0  0  0  0  0  0  0  0  0  0
   22.2831   13.9609    9.7335 H   0  0  0  0  0  0  0  0  0  0  0  0
   21.6560   13.0908   11.9265 H   0  0  0  0  0  0  0  0  0  0  0  0
   21.8145   13.1432   14.4059 H   0  0  0  0  0  0  0  0  0  0  0  0
   23.2738   14.8213   15.5278 H   0  0  0  0  0  0  0  0  0  0  0  0
   23.1308   17.9279   14.6695 H   0  0  0  0  0  0  0  0  0  0  0  0
   24.0416   19.2354   16.3902 H   0  0  0  0  0  0  0  0  0  0  0  0
   25.2985   17.3813   17.3484 H   0  0  0  0  0  0  0  0  0  0  0  0
   26.5625   17.5492   16.0829 H   0  0  0  0  0  0  0  0  0  0  0  0
   25.7707   19.6327   18.1754 H   0  0  0  0  0  0  0  0  0  0  0  0
   27.3001   18.6666   18.1121 H   0  0  0  0  0  0  0  0  0  0  0  0
   26.7172   21.4398   15.0565 H   0  0  0  0  0  0  0  0  0  0  0  0
   25.2210   17.3211   11.8344 H   0  0  0  0  0  0  0  0  0  0  0  0
   21.8848   15.2714    5.3071 H   0  0  0  0  0  0  0  0  0  0  0  0
  1  2  1  0
  2  3  1  0
  3  4  2  0
  4  5  1  0
  5  6  1  0
  6  7  2  0
  6  8  2  0
  6  9  1  0
  9 10  2  0
 10 11  1  0
 11 12  2  0
 12 13  1  0
 13 14  2  0
 14 15  1  0
 15 16  1  0
 16 17  2  0
 16 18  1  0
 18 19  1  0
 19 20  1  0
 20 21  1  0
 21 22  1  0
 22 23  2  0
 22 24  1  0
 24 25  1  0
 25 26  2  0
 15 27  2  0
 27 28  1  0
 28 29  2  0
  5 30  1  0
 30 31  2  0
 31  3  1  0
 29  9  1  0
 27 11  1  0
 25 19  1  0
  1 32  1  0
  1 33  1  0
  1 34  1  0
  2 35  1  0
  2 36  1  0
  4 37  1  0
 10 38  1  0
 12 39  1  0
 13 40  1  0
 14 41  1  0
 18 42  1  0
 19 43  1  1
 20 44  1  0
 20 45  1  0
 21 46  1  0
 21 47  1  0
 24 48  1  0
 28 49  1  0
 30 50  1  0
M  END
>  <meeko>  (865) 
{"is_sidechain": [true], "free_energy": -10.44, "intermolecular_energy": 0.0, "internal_energy": -10.44, "cluster_size": 20, "cluster_id": 1, "rank_in_cluster": 1}

>  <_RMSD_MCS_to_ref>  (865) 
0.9336319760305265

$$$$
ligand
     RDKit          3D

 41 43  0  0  0  0  0  0  0  0999 V2000
   18.9090   19.1540    7.5370 C   0  0  0  0  0  0  0  0  0  0  0  0
   18.7730   17.6460    7.6780 C   0  0  0  0  0  0  0  0  0  0  0  0
   20.0940   16.9600    7.6870 C   0  0  0  0  0  0  0  0  0  0  0  0
   20.8790   16.5990    8.7650 C   0  0  0  0  0  0  0  0  0  0  0  0
   21.9560   15.9770    8.1990 N   0  0  0  0  0  0  0  0  0  0  0  0
   23.3420   15.4960    9.0060 S   0  0  0  0  0  6  0  0  0  0  0  0
   23.5390   14.0970    8.6800 O   0  0  0  0  0  0  0  0  0  0  0  0
   24.3410   16.5150    8.7560 O   0  0  0  0  0  0  0  0  0  0  0  0
   23.0230   15.5420   10.7400 C   0  0  0  0  0  0  0  0  0  0  0  0
   22.0230   14.9660   11.5030 C   0  0  0  0  0  0  0  0  0  0  0  0
   22.1700   15.2730   12.8310 N   0  0  0  0  0  0  0  0  0  0  0  0
   23.2600   16.0210   12.8560 C   0  0  0  0  0  0  0  0  0  0  0  0
   23.8640   16.6050   14.0450 C   0  0  0  0  0  0  0  0  0  0  0  0
   23.9690   16.0300   15.1260 O   0  0  0  0  0  0  0  0  0  0  0  0
   24.3190   17.8980   13.8660 N   0  0  0  0  0  0  0  0  0  0  0  0
   24.8020   18.7110   14.9690 C   0  0  1  0  0  0  0  0  0  0  0  0
   25.8530   17.9830   15.8000 C   0  0  0  0  0  0  0  0  0  0  0  0
   26.3390   18.8940   16.9160 C   0  0  0  0  0  0  0  0  0  0  0  0
   26.8630   20.2010   16.3690 C   0  0  0  0  0  0  0  0  0  0  0  0
   27.7930   20.8080   16.8890 O   0  0  0  0  0  0  0  0  0  0  0  0
   26.2230   20.7040   15.2640 N   0  0  0  0  0  0  0  0  0  0  0  0
   25.4130   19.9990   14.4080 C   0  0  0  0  0  0  0  0  0  0  0  0
   25.1930   20.4020   13.2660 O   0  0  0  0  0  0  0  0  0  0  0  0
   23.8260   16.2320   11.6280 O   0  0  0  0  0  0  0  0  0  0  0  0
   21.8460   16.0350    6.8480 C   0  0  0  0  0  0  0  0  0  0  0  0
   20.7110   16.6080    6.5030 N   0  0  0  0  0  0  0  0  0  0  0  0
   18.9504   19.6134    8.5356 H   0  0  0  0  0  0  0  0  0  0  0  0
   19.8320   19.3891    6.9867 H   0  0  0  0  0  0  0  0  0  0  0  0
   18.0430   19.5504    6.9867 H   0  0  0  0  0  0  0  0  0  0  0  0
   18.2523   17.4241    8.6212 H   0  0  0  0  0  0  0  0  0  0  0  0
   18.2065   17.2758    6.8108 H   0  0  0  0  0  0  0  0  0  0  0  0
   20.6823   16.7724    9.8333 H   0  0  0  0  0  0  0  0  0  0  0  0
   21.2137   14.3418   11.0963 H   0  0  0  0  0  0  0  0  0  0  0  0
   24.3155   18.2992   12.9173 H   0  0  0  0  0  0  0  0  0  0  0  0
   23.9476   18.9329   15.6253 H   0  0  0  0  0  0  0  0  0  0  0  0
   25.4113   17.0743   16.2349 H   0  0  0  0  0  0  0  0  0  0  0  0
   26.7017   17.7073   15.1568 H   0  0  0  0  0  0  0  0  0  0  0  0
   25.5022   19.1013   17.5992 H   0  0  0  0  0  0  0  0  0  0  0  0
   27.1581   18.3864   17.4465 H   0  0  0  0  0  0  0  0  0  0  0  0
   26.3633   21.7033   15.0575 H   0  0  0  0  0  0  0  0  0  0  0  0
   22.5985   15.6569    6.1404 H   0  0  0  0  0  0  0  0  0  0  0  0
  1  2  1  0
  2  3  1  0
  3  4  2  0
  4  5  1  0
  5  6  1  0
  6  7  2  0
  6  8  2  0
  6  9  1  0
  9 10  2  0
 10 11  1  0
 11 12  2  0
 12 13  1  0
 13 14  2  0
 13 15  1  0
 15 16  1  0
 16 17  1  0
 17 18  1  0
 18 19  1  0
 19 20  2  0
 19 21  1  0
 21 22  1  0
 22 23  2  0
 12 24  1  0
  5 25  1  0
 25 26  2  0
 26  3  1  0
 24  9  1  0
 22 16  1  0
  1 27  1  0
  1 28  1  0
  1 29  1  0
  2 30  1  0
  2 31  1  0
  4 32  1  0
 10 33  1  0
 15 34  1  0
 16 35  1  1
 17 36  1  0
 17 37  1  0
 18 38  1  0
 18 39  1  0
 21 40  1  0
 25 41  1  0
M  END
>  <meeko>  (866) 
{"is_sidechain": [true], "free_energy": -10.44, "intermolecular_energy": 0.0, "internal_energy": -10.44, "cluster_size": 20, "cluster_id": 1, "rank_in_cluster": 1}

>  <_RMSD_MCS_to_ref>  (866) 
0.44882661834313403

$$$$
ligand
     RDKit          3D

 54 58  0  0  0  0  0  0  0  0999 V2000
   18.9090   19.1540    7.5370 C   0  0  0  0  0  0  0  0  0  0  0  0
   18.7730   17.6460    7.6780 C   0  0  0  0  0  0  0  0  0  0  0  0
   20.0110   16.9290    7.2710 C   0  0  0  0  0  0  0  0  0  0  0  0
   20.7600   16.0140    7.9850 C   0  0  0  0  0  0  0  0  0  0  0  0
   21.7580   15.6510    7.1250 N   0  0  0  0  0  0  0  0  0  0  0  0
   23.0950   14.7260    7.5300 S   0  0  0  0  0  6  0  0  0  0  0  0
   23.4230   13.9200    6.3720 O   0  0  0  0  0  0  0  0  0  0  0  0
   22.8000   14.1580    8.8310 O   0  0  0  0  0  0  0  0  0  0  0  0
   24.4480   15.7730    7.7780 C   0  0  0  0  0  0  0  0  0  0  0  0
   24.8350   16.8160    6.8960 C   0  0  0  0  0  0  0  0  0  0  0  0
   25.9610   17.4030    7.4260 C   0  0  0  0  0  0  0  0  0  0  0  0
   26.2610   16.7610    8.5970 N   0  0  0  0  0  0  0  0  0  0  0  0
   25.3560   15.7450    8.8280 C   0  0  0  0  0  0  0  0  0  0  0  0
   25.4450   14.9130   10.0170 C   0  0  0  0  0  0  0  0  0  0  0  0
   25.4770   13.5140    9.9060 C   0  0  0  0  0  0  0  0  0  0  0  0
   25.5400   12.6920   11.0470 C   0  0  0  0  0  0  0  0  0  0  0  0
   25.5670   13.2510   12.3220 C   0  0  0  0  0  0  0  0  0  0  0  0
   25.5430   14.6300   12.4090 C   0  0  0  0  0  0  0  0  0  0  0  0
   25.4870   15.4630   11.2900 C   0  0  0  0  0  0  0  0  0  0  0  0
   25.4920   16.8920   11.7260 C   0  0  0  0  0  0  0  0  0  0  0  0
   25.6000   16.7860   13.1730 N   0  0  0  0  0  0  0  0  0  0  0  0
   25.4650   17.9190   14.0790 C   0  0  1  0  0  0  0  0  0  0  0  0
   25.9730   17.6000   15.4820 C   0  0  0  0  0  0  0  0  0  0  0  0
   25.7230   18.7920   16.3930 C   0  0  0  0  0  0  0  0  0  0  0  0
   26.3530   20.0460   15.8320 C   0  0  0  0  0  0  0  0  0  0  0  0
   26.8720   20.8980   16.5460 O   0  0  0  0  0  0  0  0  0  0  0  0
   26.3060   20.1990   14.4700 N   0  0  0  0  0  0  0  0  0  0  0  0
   26.1820   19.1760   13.5570 C   0  0  0  0  0  0  0  0  0  0  0  0
   26.6380   19.2970   12.4220 O   0  0  0  0  0  0  0  0  0  0  0  0
   25.5640   15.4730   13.6100 C   0  0  0  0  0  0  0  0  0  0  0  0
   25.5460   15.0610   14.7530 O   0  0  0  0  0  0  0  0  0  0  0  0
   21.6300   16.3590    5.9740 C   0  0  0  0  0  0  0  0  0  0  0  0
   20.5760   17.1470    6.0320 N   0  0  0  0  0  0  0  0  0  0  0  0
   18.9504   19.6134    8.5356 H   0  0  0  0  0  0  0  0  0  0  0  0
   19.8320   19.3891    6.9867 H   0  0  0  0  0  0  0  0  0  0  0  0
   18.0430   19.5504    6.9867 H   0  0  0  0  0  0  0  0  0  0  0  0
   18.5547   17.4069    8.7293 H   0  0  0  0  0  0  0  0  0  0  0  0
   17.9592   17.3172    7.0149 H   0  0  0  0  0  0  0  0  0  0  0  0
   20.5914   15.6584    9.0122 H   0  0  0  0  0  0  0  0  0  0  0  0
   24.3287   17.1018    5.9622 H   0  0  0  0  0  0  0  0  0  0  0  0
   26.5215   18.2409    6.9859 H   0  0  0  0  0  0  0  0  0  0  0  0
   27.0482   17.0014    9.2162 H   0  0  0  0  0  0  0  0  0  0  0  0
   25.4524   13.0512    8.9084 H   0  0  0  0  0  0  0  0  0  0  0  0
   25.5681   11.5986   10.9304 H   0  0  0  0  0  0  0  0  0  0  0  0
   25.6058   12.6209   13.2228 H   0  0  0  0  0  0  0  0  0  0  0  0
   26.3515   17.4325   11.3029 H   0  0  0  0  0  0  0  0  0  0  0  0
   24.6049   17.4519   11.3949 H   0  0  0  0  0  0  0  0  0  0  0  0
   24.3855   18.1243   14.1295 H   0  0  0  0  0  0  0  0  0  0  0  0
   25.4409   16.7206   15.8739 H   0  0  0  0  0  0  0  0  0  0  0  0
   27.0515   17.3874   15.4427 H   0  0  0  0  0  0  0  0  0  0  0  0
   24.6386   18.9478   16.4917 H   0  0  0  0  0  0  0  0  0  0  0  0
   26.1740   18.5829   17.3743 H   0  0  0  0  0  0  0  0  0  0  0  0
   26.3686   21.1581   14.0996 H   0  0  0  0  0  0  0  0  0  0  0  0
   22.3110   16.2851    5.1133 H   0  0  0  0  0  0  0  0  0  0  0  0
  1  2  1  0
  2  3  1  0
  3  4  2  0
  4  5  1  0
  5  6  1  0
  6  7  2  0
  6  8  2  0
  6  9  1  0
  9 10  1  0
 10 11  2  0
 11 12  1  0
 12 13  1  0
 13 14  1  0
 14 15  2  0
 15 16  1  0
 16 17  2  0
 17 18  1  0
 18 19  2  0
 19 20  1  0
 20 21  1  0
 21 22  1  0
 22 23  1  0
 23 24  1  0
 24 25  1  0
 25 26  2  0
 25 27  1  0
 27 28  1  0
 28 29  2  0
 21 30  1  0
 30 31  2  0
  5 32  1  0
 32 33  2  0
 33  3  1  0
 13  9  2  0
 19 14  1  0
 28 22  1  0
 30 18  1  0
  1 34  1  0
  1 35  1  0
  1 36  1  0
  2 37  1  0
  2 38  1  0
  4 39  1  0
 10 40  1  0
 11 41  1  0
 12 42  1  0
 15 43  1  0
 16 44  1  0
 17 45  1  0
 20 46  1  0
 20 47  1  0
 22 48  1  1
 23 49  1  0
 23 50  1  0
 24 51  1  0
 24 52  1  0
 27 53  1  0
 32 54  1  0
M  END
>  <meeko>  (867) 
{"is_sidechain": [true], "free_energy": -10.44, "intermolecular_energy": 0.0, "internal_energy": -10.44, "cluster_size": 14, "cluster_id": 1, "rank_in_cluster": 1}

>  <_RMSD_MCS_to_ref>  (867) 
1.8182483939831269

$$$$
ligand
     RDKit          3D

 55 59  0  0  0  0  0  0  0  0999 V2000
   18.9090   19.1540    7.5370 C   0  0  0  0  0  0  0  0  0  0  0  0
   18.7730   17.6460    7.6780 C   0  0  0  0  0  0  0  0  0  0  0  0
   20.0960   16.9700    7.7380 C   0  0  0  0  0  0  0  0  0  0  0  0
   20.9130   16.7620    8.8330 C   0  0  0  0  0  0  0  0  0  0  0  0
   21.9690   16.0580    8.3320 N   0  0  0  0  0  0  0  0  0  0  0  0
   23.2690   15.4430    9.1960 S   0  0  0  0  0  6  0  0  0  0  0  0
   24.3380   16.4180    9.0990 O   0  0  0  0  0  0  0  0  0  0  0  0
   23.4300   14.0860    8.7020 O   0  0  0  0  0  0  0  0  0  0  0  0
   22.7910   15.3270   10.8830 C   0  0  0  0  0  0  0  0  0  0  0  0
   23.5770   15.9840   11.8500 C   0  0  0  0  0  0  0  0  0  0  0  0
   23.2480   15.9090   13.2120 C   0  0  0  0  0  0  0  0  0  0  0  0
   24.0720   16.5830   14.2560 C   0  0  0  0  0  0  0  0  0  0  0  0
   24.6240   15.9200   15.1280 O   0  0  0  0  0  0  0  0  0  0  0  0
   24.1440   17.9560   14.1990 N   0  0  0  0  0  0  0  0  0  0  0  0
   24.8080   18.7160   15.2510 C   0  0  1  0  0  0  0  0  0  0  0  0
   25.9870   17.9590   15.8530 C   0  0  0  0  0  0  0  0  0  0  0  0
   26.6550   18.8210   16.9120 C   0  0  0  0  0  0  0  0  0  0  0  0
   27.0730   20.1590   16.3500 C   0  0  0  0  0  0  0  0  0  0  0  0
   28.0690   20.7570   16.7460 O   0  0  0  0  0  0  0  0  0  0  0  0
   26.2620   20.7020   15.3860 N   0  0  0  0  0  0  0  0  0  0  0  0
   25.3110   20.0340   14.6550 C   0  0  0  0  0  0  0  0  0  0  0  0
   24.8850   20.4890   13.5940 O   0  0  0  0  0  0  0  0  0  0  0  0
   22.1420   15.1580   13.6420 C   0  0  0  0  0  0  0  0  0  0  0  0
   21.3770   14.5240   12.6600 C   0  0  0  0  0  0  0  0  0  0  0  0
   21.6690   14.5950   11.2880 C   0  0  0  0  0  0  0  0  0  0  0  0
   20.7450   13.8830   10.5440 N   0  0  0  0  0  0  0  0  0  0  0  0
   19.9290   13.3830   11.4310 C   0  0  0  0  0  0  0  0  0  0  0  0
   20.2770   13.7440   12.6950 N   0  0  0  0  0  0  0  0  0  0  0  0
   19.3940   13.2090   13.7070 C   0  0  0  0  0  0  0  0  0  0  0  0
   18.1900   12.7420   12.8650 C   0  0  0  0  0  0  0  0  0  0  0  0
   18.7280   12.5260   11.4280 C   0  0  0  0  0  0  0  0  0  0  0  0
   21.7910   15.8750    6.9970 C   0  0  0  0  0  0  0  0  0  0  0  0
   20.6610   16.4250    6.6000 N   0  0  0  0  0  0  0  0  0  0  0  0
   18.9504   19.6134    8.5356 H   0  0  0  0  0  0  0  0  0  0  0  0
   19.8320   19.3891    6.9867 H   0  0  0  0  0  0  0  0  0  0  0  0
   18.0430   19.5504    6.9867 H   0  0  0  0  0  0  0  0  0  0  0  0
   18.2188   17.4244    8.6020 H   0  0  0  0  0  0  0  0  0  0  0  0
   18.2390   17.2691    6.7933 H   0  0  0  0  0  0  0  0  0  0  0  0
   20.7495   17.0890    9.8705 H   0  0  0  0  0  0  0  0  0  0  0  0
   24.4580   16.5619   11.5340 H   0  0  0  0  0  0  0  0  0  0  0  0
   23.7228   18.4538   13.4017 H   0  0  0  0  0  0  0  0  0  0  0  0
   24.0807   18.8929   16.0571 H   0  0  0  0  0  0  0  0  0  0  0  0
   25.6278   17.0263   16.3124 H   0  0  0  0  0  0  0  0  0  0  0  0
   26.7132   17.7219   15.0615 H   0  0  0  0  0  0  0  0  0  0  0  0
   25.9477   18.9851   17.7384 H   0  0  0  0  0  0  0  0  0  0  0  0
   27.5553   18.2980   17.2669 H   0  0  0  0  0  0  0  0  0  0  0  0
   26.3776   21.7070   15.1921 H   0  0  0  0  0  0  0  0  0  0  0  0
   21.8883   15.0724   14.7089 H   0  0  0  0  0  0  0  0  0  0  0  0
   19.8600   12.3671   14.2399 H   0  0  0  0  0  0  0  0  0  0  0  0
   19.1320   13.9309   14.4945 H   0  0  0  0  0  0  0  0  0  0  0  0
   17.7854   11.8012   13.2665 H   0  0  0  0  0  0  0  0  0  0  0  0
   17.3764   13.4821   12.8823 H   0  0  0  0  0  0  0  0  0  0  0  0
   18.9872   11.4718   11.2503 H   0  0  0  0  0  0  0  0  0  0  0  0
   18.0042   12.7713   10.6368 H   0  0  0  0  0  0  0  0  0  0  0  0
   22.4929   15.3417    6.3390 H   0  0  0  0  0  0  0  0  0  0  0  0
  1  2  1  0
  2  3  1  0
  3  4  2  0
  4  5  1  0
  5  6  1  0
  6  7  2  0
  6  8  2  0
  6  9  1  0
  9 10  2  0
 10 11  1  0
 11 12  1  0
 12 13  2  0
 12 14  1  0
 14 15  1  0
 15 16  1  0
 16 17  1  0
 17 18  1  0
 18 19  2  0
 18 20  1  0
 20 21  1  0
 21 22  2  0
 11 23  2  0
 23 24  1  0
 24 25  2  0
 25 26  1  0
 26 27  2  0
 27 28  1  0
 28 29  1  0
 29 30  1  0
 30 31  1  0
  5 32  1  0
 32 33  2  0
 33  3  1  0
 25  9  1  0
 31 27  1  0
 21 15  1  0
 28 24  1  0
  1 34  1  0
  1 35  1  0
  1 36  1  0
  2 37  1  0
  2 38  1  0
  4 39  1  0
 10 40  1  0
 14 41  1  0
 15 42  1  1
 16 43  1  0
 16 44  1  0
 17 45  1  0
 17 46  1  0
 20 47  1  0
 23 48  1  0
 29 49  1  0
 29 50  1  0
 30 51  1  0
 30 52  1  0
 31 53  1  0
 31 54  1  0
 32 55  1  0
M  END
>  <meeko>  (868) 
{"is_sidechain": [true], "free_energy": -10.44, "intermolecular_energy": 0.0, "internal_energy": -10.44, "cluster_size": 20, "cluster_id": 1, "rank_in_cluster": 1}

>  <_RMSD_MCS_to_ref>  (868) 
0.5834015198243263

$$$$
ligand
     RDKit          3D

 45 47  0  0  0  0  0  0  0  0999 V2000
   18.9090   19.1540    7.5370 C   0  0  0  0  0  0  0  0  0  0  0  0
   18.7730   17.6460    7.6780 C   0  0  0  0  0  0  0  0  0  0  0  0
   20.0940   16.9590    7.6630 C   0  0  0  0  0  0  0  0  0  0  0  0
   20.9280   16.6570    8.7210 C   0  0  0  0  0  0  0  0  0  0  0  0
   21.9800   16.0070    8.1420 N   0  0  0  0  0  0  0  0  0  0  0  0
   23.4410   15.6210    8.8950 S   0  0  0  0  0  6  0  0  0  0  0  0
   23.8590   14.3730    8.2850 O   0  0  0  0  0  0  0  0  0  0  0  0
   24.2400   16.8290    8.7720 O   0  0  0  0  0  0  0  0  0  0  0  0
   23.0920   15.3780   10.6080 C   0  0  0  0  0  0  0  0  0  0  0  0
   21.9410   14.7610   10.9210 C   0  0  0  0  0  0  0  0  0  0  0  0
   21.6170   14.5870   12.3600 C   0  0  0  0  0  0  0  0  0  0  0  0
   20.5790   14.0300   12.6970 O   0  0  0  0  0  0  0  0  0  0  0  0
   22.5670   15.1120   13.3700 C   0  0  0  0  0  0  0  0  0  0  0  0
   23.6960   15.6850   12.9300 C   0  0  0  0  0  0  0  0  0  0  0  0
   24.6580   16.2040   13.9600 C   0  0  0  0  0  0  0  0  0  0  0  0
   25.2400   15.4720   14.7510 O   0  0  0  0  0  0  0  0  0  0  0  0
   24.8370   17.5660   13.9100 N   0  0  0  0  0  0  0  0  0  0  0  0
   25.8650   18.2140   14.7150 C   0  0  2  0  0  0  0  0  0  0  0  0
   25.6870   17.9460   16.2050 C   0  0  0  0  0  0  0  0  0  0  0  0
   26.7600   18.6910   16.9860 C   0  0  0  0  0  0  0  0  0  0  0  0
   26.7400   20.1690   16.6730 C   0  0  0  0  0  0  0  0  0  0  0  0
   27.0190   21.0230   17.5080 O   0  0  0  0  0  0  0  0  0  0  0  0
   26.4210   20.5200   15.3850 N   0  0  0  0  0  0  0  0  0  0  0  0
   25.7900   19.7230   14.4650 C   0  0  0  0  0  0  0  0  0  0  0  0
   25.2100   20.2010   13.4900 O   0  0  0  0  0  0  0  0  0  0  0  0
   23.9780   15.8040   11.5850 N   0  0  0  0  0  0  0  0  0  0  0  0
   21.8020   15.9810    6.7970 C   0  0  0  0  0  0  0  0  0  0  0  0
   20.6580   16.5440    6.4720 N   0  0  0  0  0  0  0  0  0  0  0  0
   18.9504   19.6134    8.5356 H   0  0  0  0  0  0  0  0  0  0  0  0
   19.8320   19.3891    6.9867 H   0  0  0  0  0  0  0  0  0  0  0  0
   18.0430   19.5504    6.9867 H   0  0  0  0  0  0  0  0  0  0  0  0
   18.2684   17.4231    8.6297 H   0  0  0  0  0  0  0  0  0  0  0  0
   18.1906   17.2775    6.8207 H   0  0  0  0  0  0  0  0  0  0  0  0
   20.7791   16.8873    9.7863 H   0  0  0  0  0  0  0  0  0  0  0  0
   21.2605   14.3965   10.1374 H   0  0  0  0  0  0  0  0  0  0  0  0
   22.3522   15.0338   14.4460 H   0  0  0  0  0  0  0  0  0  0  0  0
   24.2373   18.1357   13.2962 H   0  0  0  0  0  0  0  0  0  0  0  0
   26.8426   17.8043   14.4210 H   0  0  0  0  0  0  0  0  0  0  0  0
   24.6933   18.2936   16.5240 H   0  0  0  0  0  0  0  0  0  0  0  0
   25.7767   16.8666   16.3968 H   0  0  0  0  0  0  0  0  0  0  0  0
   26.5826   18.5502   18.0624 H   0  0  0  0  0  0  0  0  0  0  0  0
   27.7421   18.2882   16.6976 H   0  0  0  0  0  0  0  0  0  0  0  0
   26.6795   21.4698   15.0816 H   0  0  0  0  0  0  0  0  0  0  0  0
   24.8744   16.2222   11.2979 H   0  0  0  0  0  0  0  0  0  0  0  0
   22.5146   15.5495    6.0787 H   0  0  0  0  0  0  0  0  0  0  0  0
  1  2  1  0
  2  3  1  0
  3  4  2  0
  4  5  1  0
  5  6  1  0
  6  7  2  0
  6  8  2  0
  6  9  1  0
  9 10  2  0
 10 11  1  0
 11 12  2  0
 11 13  1  0
 13 14  2  0
 14 15  1  0
 15 16  2  0
 15 17  1  0
 17 18  1  0
 18 19  1  0
 19 20  1  0
 20 21  1  0
 21 22  2  0
 21 23  1  0
 23 24  1  0
 24 25  2  0
 14 26  1  0
  5 27  1  0
 27 28  2  0
 28  3  1  0
 26  9  1  0
 24 18  1  0
  1 29  1  0
  1 30  1  0
  1 31  1  0
  2 32  1  0
  2 33  1  0
  4 34  1  0
 10 35  1  0
 13 36  1  0
 17 37  1  0
 18 38  1  6
 19 39  1  0
 19 40  1  0
 20 41  1  0
 20 42  1  0
 23 43  1  0
 26 44  1  0
 27 45  1  0
M  END
>  <meeko>  (869) 
{"is_sidechain": [true], "free_energy": -10.44, "intermolecular_energy": 0.0, "internal_energy": -10.44, "cluster_size": 20, "cluster_id": 1, "rank_in_cluster": 1}

>  <_RMSD_MCS_to_ref>  (869) 
0.6090174235785226

$$$$
ligand
     RDKit          3D

 44 47  0  0  0  0  0  0  0  0999 V2000
   18.7970   18.8170    7.7190 C   0  0  0  0  0  0  0  0  0  0  0  0
   18.5280   17.3290    7.8810 C   0  0  0  0  0  0  0  0  0  0  0  0
   19.7590   16.5120    7.7050 C   0  0  0  0  0  0  0  0  0  0  0  0
   20.8070   16.3280    8.5850 C   0  0  0  0  0  0  0  0  0  0  0  0
   21.6450   15.4730    7.9300 N   0  0  0  0  0  0  0  0  0  0  0  0
   23.0280   14.7320    8.5460 S   0  0  0  0  0  6  0  0  0  0  0  0
   23.2350   13.5960    7.6640 O   0  0  0  0  0  0  0  0  0  0  0  0
   24.0350   15.7700    8.6560 O   0  0  0  0  0  0  0  0  0  0  0  0
   22.6980   14.1310   10.0240 O   0  0  0  0  0  0  0  0  0  0  0  0
   23.0150   14.8630   11.1370 C   0  0  0  0  0  0  0  0  0  0  0  0
   22.0290   15.0260   12.1250 C   0  0  0  0  0  0  0  0  0  0  0  0
   22.2120   15.7770   13.2480 N   0  0  0  0  0  0  0  0  0  0  0  0
   23.4330   16.3390   13.3030 C   0  0  0  0  0  0  0  0  0  0  0  0
   24.3860   16.1890   12.3300 C   0  0  0  0  0  0  0  0  0  0  0  0
   24.2240   15.4630   11.2040 N   0  0  0  0  0  0  0  0  0  0  0  0
   25.5680   16.9490   12.7360 C   0  0  0  0  0  0  0  0  0  0  0  0
   26.6230   16.9780   12.1320 O   0  0  0  0  0  0  0  0  0  0  0  0
   25.2450   17.5680   13.9160 N   0  0  0  0  0  0  0  0  0  0  0  0
   26.1830   18.2870   14.7680 C   0  0  2  0  0  0  0  0  0  0  0  0
   26.0900   17.9380   16.2500 C   0  0  0  0  0  0  0  0  0  0  0  0
   27.1380   18.7340   17.0150 C   0  0  0  0  0  0  0  0  0  0  0  0
   26.9800   20.2190   16.7810 C   0  0  0  0  0  0  0  0  0  0  0  0
   27.3060   21.0550   17.6200 O   0  0  0  0  0  0  0  0  0  0  0  0
   26.4970   20.6010   15.5530 N   0  0  0  0  0  0  0  0  0  0  0  0
   25.9750   19.7920   14.5700 C   0  0  0  0  0  0  0  0  0  0  0  0
   25.4240   20.2750   13.5830 O   0  0  0  0  0  0  0  0  0  0  0  0
   23.9890   17.2050   14.3430 C   0  0  0  0  0  0  0  0  0  0  0  0
   23.4330   17.5290   15.3740 O   0  0  0  0  0  0  0  0  0  0  0  0
   21.1150   15.1680    6.7180 C   0  0  0  0  0  0  0  0  0  0  0  0
   19.9660   15.7860    6.5460 N   0  0  0  0  0  0  0  0  0  0  0  0
   18.8815   19.2845    8.7111 H   0  0  0  0  0  0  0  0  0  0  0  0
   19.7359   18.9616    7.1643 H   0  0  0  0  0  0  0  0  0  0  0  0
   17.9682   19.2812    7.1643 H   0  0  0  0  0  0  0  0  0  0  0  0
   18.1251   17.1497    8.8887 H   0  0  0  0  0  0  0  0  0  0  0  0
   17.8102   17.0293    7.1032 H   0  0  0  0  0  0  0  0  0  0  0  0
   20.9366   16.7692    9.5843 H   0  0  0  0  0  0  0  0  0  0  0  0
   21.0611   14.5224   11.9852 H   0  0  0  0  0  0  0  0  0  0  0  0
   27.1916   17.9750   14.4590 H   0  0  0  0  0  0  0  0  0  0  0  0
   25.0878   18.1914   16.6261 H   0  0  0  0  0  0  0  0  0  0  0  0
   26.2672   16.8614   16.3894 H   0  0  0  0  0  0  0  0  0  0  0  0
   27.0304   18.5274   18.0900 H   0  0  0  0  0  0  0  0  0  0  0  0
   28.1331   18.4306   16.6576 H   0  0  0  0  0  0  0  0  0  0  0  0
   26.5293   21.6091   15.3441 H   0  0  0  0  0  0  0  0  0  0  0  0
   21.5815   14.4971    5.9816 H   0  0  0  0  0  0  0  0  0  0  0  0
  1  2  1  0
  2  3  1  0
  3  4  2  0
  4  5  1  0
  5  6  1  0
  6  7  2  0
  6  8  2  0
  6  9  1  0
  9 10  1  0
 10 11  2  0
 11 12  1  0
 12 13  2  0
 13 14  1  0
 14 15  2  0
 14 16  1  0
 16 17  2  0
 16 18  1  0
 18 19  1  0
 19 20  1  0
 20 21  1  0
 21 22  1  0
 22 23  2  0
 22 24  1  0
 24 25  1  0
 25 26  2  0
 18 27  1  0
 27 28  2  0
  5 29  1  0
 29 30  2  0
 30  3  1  0
 15 10  1  0
 25 19  1  0
 27 13  1  0
  1 31  1  0
  1 32  1  0
  1 33  1  0
  2 34  1  0
  2 35  1  0
  4 36  1  0
 11 37  1  0
 19 38  1  6
 20 39  1  0
 20 40  1  0
 21 41  1  0
 21 42  1  0
 24 43  1  0
 29 44  1  0
M  END
>  <meeko>  (870) 
{"is_sidechain": [true], "free_energy": -10.43, "intermolecular_energy": 0.0, "internal_energy": -10.43, "cluster_size": 20, "cluster_id": 1, "rank_in_cluster": 1}

>  <_RMSD_MCS_to_ref>  (870) 
1.6730728359177058

$$$$
ligand
     RDKit          3D

 51 54  0  0  0  0  0  0  0  0999 V2000
   18.7980   18.8170    7.7190 C   0  0  0  0  0  0  0  0  0  0  0  0
   18.5270   17.3290    7.8810 C   0  0  0  0  0  0  0  0  0  0  0  0
   19.7780   16.5250    7.8390 C   0  0  0  0  0  0  0  0  0  0  0  0
   20.1210   15.4130    8.5820 C   0  0  0  0  0  0  0  0  0  0  0  0
   21.3720   15.0890    8.1400 N   0  0  0  0  0  0  0  0  0  0  0  0
   22.3510   13.8820    8.7770 S   0  0  0  0  0  6  0  0  0  0  0  0
   23.4050   13.6350    7.8130 O   0  0  0  0  0  0  0  0  0  0  0  0
   21.4190   12.8450    9.1800 O   0  0  0  0  0  0  0  0  0  0  0  0
   23.0800   14.5510   10.2480 C   0  0  0  0  0  0  0  0  0  0  0  0
   24.3100   15.2080   10.1290 C   0  0  0  0  0  0  0  0  0  0  0  0
   24.9290   15.7450   11.2590 C   0  0  0  0  0  0  0  0  0  0  0  0
   24.3260   15.6270   12.5200 C   0  0  0  0  0  0  0  0  0  0  0  0
   24.9950   16.1980   13.7290 C   0  0  0  0  0  0  0  0  0  0  0  0
   25.0420   15.5580   14.7740 O   0  0  0  0  0  0  0  0  0  0  0  0
   25.5820   17.4360   13.5920 N   0  0  0  0  0  0  0  0  0  0  0  0
   26.3900   18.0090   14.6620 C   0  0  2  0  0  0  0  0  0  0  0  0
   25.6940   17.9350   16.0160 C   0  0  0  0  0  0  0  0  0  0  0  0
   26.5680   18.5930   17.0740 C   0  0  0  0  0  0  0  0  0  0  0  0
   26.9110   20.0150   16.6930 C   0  0  0  0  0  0  0  0  0  0  0  0
   27.0410   20.9080   17.5260 O   0  0  0  0  0  0  0  0  0  0  0  0
   27.1040   20.2650   15.3570 N   0  0  0  0  0  0  0  0  0  0  0  0
   26.6650   19.4770   14.3230 C   0  0  0  0  0  0  0  0  0  0  0  0
   26.5150   19.9320   13.1880 O   0  0  0  0  0  0  0  0  0  0  0  0
   23.0730   14.9840   12.6290 C   0  0  0  0  0  0  0  0  0  0  0  0
   22.4520   14.4400   11.4920 C   0  0  0  0  0  0  0  0  0  0  0  0
   21.2150   13.8640   11.5390 O   0  0  0  0  0  0  0  0  0  0  0  0
   20.7690   13.4500   12.8220 C   0  0  0  0  0  0  0  0  0  0  0  0
   21.2450   14.2230   14.0440 C   0  0  0  0  0  0  0  0  0  0  0  0
   20.6670   14.1940   15.1250 O   0  0  0  0  0  0  0  0  0  0  0  0
   22.4170   14.9020   13.8650 N   0  0  0  0  0  0  0  0  0  0  0  0
   21.7450   15.9660    7.1730 C   0  0  0  0  0  0  0  0  0  0  0  0
   20.8000   16.8610    6.9740 N   0  0  0  0  0  0  0  0  0  0  0  0
   18.8831   19.2843    8.7111 H   0  0  0  0  0  0  0  0  0  0  0  0
   19.7370   18.9604    7.1644 H   0  0  0  0  0  0  0  0  0  0  0  0
   17.9698   19.2823    7.1644 H   0  0  0  0  0  0  0  0  0  0  0  0
   18.0303   17.1621    8.8482 H   0  0  0  0  0  0  0  0  0  0  0  0
   17.8893   17.0076    7.0444 H   0  0  0  0  0  0  0  0  0  0  0  0
   19.5237   14.9046    9.3532 H   0  0  0  0  0  0  0  0  0  0  0  0
   24.7897   15.3013    9.1435 H   0  0  0  0  0  0  0  0  0  0  0  0
   25.8943   16.2632   11.1602 H   0  0  0  0  0  0  0  0  0  0  0  0
   25.4481   17.9661   12.7191 H   0  0  0  0  0  0  0  0  0  0  0  0
   27.3219   17.4294   14.7369 H   0  0  0  0  0  0  0  0  0  0  0  0
   24.7284   18.4590   15.9607 H   0  0  0  0  0  0  0  0  0  0  0  0
   25.5255   16.8815   16.2839 H   0  0  0  0  0  0  0  0  0  0  0  0
   26.0282   18.5986   18.0324 H   0  0  0  0  0  0  0  0  0  0  0  0
   27.5031   18.0200   17.1587 H   0  0  0  0  0  0  0  0  0  0  0  0
   27.6239   21.1189   15.1091 H   0  0  0  0  0  0  0  0  0  0  0  0
   19.6701   13.4997   12.8148 H   0  0  0  0  0  0  0  0  0  0  0  0
   21.2096   12.4502   12.9491 H   0  0  0  0  0  0  0  0  0  0  0  0
   22.8384   15.3760   14.6766 H   0  0  0  0  0  0  0  0  0  0  0  0
   22.7021   15.9334    6.6319 H   0  0  0  0  0  0  0  0  0  0  0  0
  1  2  1  0
  2  3  1  0
  3  4  2  0
  4  5  1  0
  5  6  1  0
  6  7  2  0
  6  8  2  0
  6  9  1  0
  9 10  2  0
 10 11  1  0
 11 12  2  0
 12 13  1  0
 13 14  2  0
 13 15  1  0
 15 16  1  0
 16 17  1  0
 17 18  1  0
 18 19  1  0
 19 20  2  0
 19 21  1  0
 21 22  1  0
 22 23  2  0
 12 24  1  0
 24 25  2  0
 25 26  1  0
 26 27  1  0
 27 28  1  0
 28 29  2  0
 28 30  1  0
  5 31  1  0
 31 32  2  0
 32  3  1  0
 25  9  1  0
 22 16  1  0
 30 24  1  0
  1 33  1  0
  1 34  1  0
  1 35  1  0
  2 36  1  0
  2 37  1  0
  4 38  1  0
 10 39  1  0
 11 40  1  0
 15 41  1  0
 16 42  1  1
 17 43  1  0
 17 44  1  0
 18 45  1  0
 18 46  1  0
 21 47  1  0
 27 48  1  0
 27 49  1  0
 30 50  1  0
 31 51  1  0
M  END
>  <meeko>  (871) 
{"is_sidechain": [true], "free_energy": -10.43, "intermolecular_energy": 0.0, "internal_energy": -10.43, "cluster_size": 12, "cluster_id": 1, "rank_in_cluster": 1}

>  <_RMSD_MCS_to_ref>  (871) 
0.9909023945654561

$$$$
ligand
     RDKit          3D

 53 57  0  0  0  0  0  0  0  0999 V2000
   18.9090   19.1540    7.5370 C   0  0  0  0  0  0  0  0  0  0  0  0
   18.7730   17.6460    7.6780 C   0  0  0  0  0  0  0  0  0  0  0  0
   20.0880   16.9550    7.5980 C   0  0  0  0  0  0  0  0  0  0  0  0
   20.6330   16.0230    8.4600 C   0  0  0  0  0  0  0  0  0  0  0  0
   21.8340   15.7090    7.8910 N   0  0  0  0  0  0  0  0  0  0  0  0
   22.9760   14.6590    8.5300 S   0  0  0  0  0  6  0  0  0  0  0  0
   23.7030   14.1890    7.3660 O   0  0  0  0  0  0  0  0  0  0  0  0
   22.2730   13.7430    9.4080 O   0  0  0  0  0  0  0  0  0  0  0  0
   24.0800   15.6460    9.5140 C   0  0  0  0  0  0  0  0  0  0  0  0
   23.6150   16.0200   10.7880 C   0  0  0  0  0  0  0  0  0  0  0  0
   24.4500   16.7830   11.5790 C   0  0  0  0  0  0  0  0  0  0  0  0
   25.7060   17.1990   11.1590 C   0  0  0  0  0  0  0  0  0  0  0  0
   26.1700   16.8490    9.9030 C   0  0  0  0  0  0  0  0  0  0  0  0
   25.3590   16.0570    9.0550 C   0  0  0  0  0  0  0  0  0  0  0  0
   25.8970   15.7400    7.7310 C   0  0  0  0  0  0  0  0  0  0  0  0
   26.7050   14.6880    7.3460 C   0  0  0  0  0  0  0  0  0  0  0  0
   27.0190   14.7260    5.9570 C   0  0  0  0  0  0  0  0  0  0  0  0
   26.4240   15.7940    5.3210 C   0  0  0  0  0  0  0  0  0  0  0  0
   25.4760   16.7300    6.3920 S   0  0  0  0  0  0  0  0  0  0  0  0
   26.3480   18.0340   12.2150 C   0  0  0  0  0  0  0  0  0  0  0  0
   25.3910   17.9520   13.3100 N   0  0  0  0  0  0  0  0  0  0  0  0
   25.5040   18.8180   14.4810 C   0  0  2  0  0  0  0  0  0  0  0  0
   26.3440   20.0720   14.2430 C   0  0  0  0  0  0  0  0  0  0  0  0
   26.3410   20.9250   15.5020 C   0  0  0  0  0  0  0  0  0  0  0  0
   26.8430   20.1460   16.6940 C   0  0  0  0  0  0  0  0  0  0  0  0
   27.3170   20.6980   17.6840 O   0  0  0  0  0  0  0  0  0  0  0  0
   26.6690   18.7850   16.6600 N   0  0  0  0  0  0  0  0  0  0  0  0
   26.0320   18.0380   15.6960 C   0  0  0  0  0  0  0  0  0  0  0  0
   25.8200   16.8390   15.8760 O   0  0  0  0  0  0  0  0  0  0  0  0
   24.2230   17.3080   12.9290 C   0  0  0  0  0  0  0  0  0  0  0  0
   23.1840   17.1900   13.5460 O   0  0  0  0  0  0  0  0  0  0  0  0
   22.0160   16.4660    6.7790 C   0  0  0  0  0  0  0  0  0  0  0  0
   20.9580   17.2200    6.5590 N   0  0  0  0  0  0  0  0  0  0  0  0
   18.9504   19.6134    8.5356 H   0  0  0  0  0  0  0  0  0  0  0  0
   19.8320   19.3891    6.9867 H   0  0  0  0  0  0  0  0  0  0  0  0
   18.0430   19.5504    6.9867 H   0  0  0  0  0  0  0  0  0  0  0  0
   18.3128   17.4210    8.6515 H   0  0  0  0  0  0  0  0  0  0  0  0
   18.1490   17.2833    6.8479 H   0  0  0  0  0  0  0  0  0  0  0  0
   20.1997   15.6257    9.3897 H   0  0  0  0  0  0  0  0  0  0  0  0
   22.6193   15.7146   11.1419 H   0  0  0  0  0  0  0  0  0  0  0  0
   27.1621   17.1839    9.5660 H   0  0  0  0  0  0  0  0  0  0  0  0
   27.0652   13.9090    8.0341 H   0  0  0  0  0  0  0  0  0  0  0  0
   27.6609   13.9895    5.4516 H   0  0  0  0  0  0  0  0  0  0  0  0
   26.5448   16.0177    4.2508 H   0  0  0  0  0  0  0  0  0  0  0  0
   27.3242   17.6210   12.5090 H   0  0  0  0  0  0  0  0  0  0  0  0
   26.5559   19.0647   11.8917 H   0  0  0  0  0  0  0  0  0  0  0  0
   24.4824   19.1680   14.6902 H   0  0  0  0  0  0  0  0  0  0  0  0
   27.3764   19.7818   13.9982 H   0  0  0  0  0  0  0  0  0  0  0  0
   25.9191   20.6471   13.4071 H   0  0  0  0  0  0  0  0  0  0  0  0
   26.9915   21.7980   15.3448 H   0  0  0  0  0  0  0  0  0  0  0  0
   25.3071   21.2413   15.7045 H   0  0  0  0  0  0  0  0  0  0  0  0
   27.0633   18.2587   17.4527 H   0  0  0  0  0  0  0  0  0  0  0  0
   22.9187   16.4520    6.1506 H   0  0  0  0  0  0  0  0  0  0  0  0
  1  2  1  0
  2  3  1  0
  3  4  2  0
  4  5  1  0
  5  6  1  0
  6  7  2  0
  6  8  2  0
  6  9  1  0
  9 10  2  0
 10 11  1  0
 11 12  2  0
 12 13  1  0
 13 14  2  0
 14 15  1  0
 15 16  2  0
 16 17  1  0
 17 18  2  0
 18 19  1  0
 12 20  1  0
 20 21  1  0
 21 22  1  0
 22 23  1  0
 23 24  1  0
 24 25  1  0
 25 26  2  0
 25 27  1  0
 27 28  1  0
 28 29  2  0
 21 30  1  0
 30 31  2  0
  5 32  1  0
 32 33  2  0
 33  3  1  0
 14  9  1  0
 19 15  1  0
 28 22  1  0
 30 11  1  0
  1 34  1  0
  1 35  1  0
  1 36  1  0
  2 37  1  0
  2 38  1  0
  4 39  1  0
 10 40  1  0
 13 41  1  0
 16 42  1  0
 17 43  1  0
 18 44  1  0
 20 45  1  0
 20 46  1  0
 22 47  1  1
 23 48  1  0
 23 49  1  0
 24 50  1  0
 24 51  1  0
 27 52  1  0
 32 53  1  0
M  END
>  <meeko>  (872) 
{"is_sidechain": [true], "free_energy": -10.43, "intermolecular_energy": 0.0, "internal_energy": -10.43, "cluster_size": 17, "cluster_id": 2, "rank_in_cluster": 1}

>  <_RMSD_MCS_to_ref>  (872) 
1.750336824728315

$$$$
ligand
     RDKit          3D

 57 61  0  0  0  0  0  0  0  0999 V2000
   18.9090   19.1540    7.5370 C   0  0  0  0  0  0  0  0  0  0  0  0
   18.7730   17.6460    7.6780 C   0  0  0  0  0  0  0  0  0  0  0  0
   20.0940   16.9690    7.7890 C   0  0  0  0  0  0  0  0  0  0  0  0
   20.9120   16.8380    8.8940 C   0  0  0  0  0  0  0  0  0  0  0  0
   21.9970   16.1520    8.4260 N   0  0  0  0  0  0  0  0  0  0  0  0
   23.2170   15.4960    9.3740 S   0  0  0  0  0  6  0  0  0  0  0  0
   23.4060   14.1590    8.8410 O   0  0  0  0  0  0  0  0  0  0  0  0
   24.3180   16.4370    9.4020 O   0  0  0  0  0  0  0  0  0  0  0  0
   22.5680   15.3470   11.0140 C   0  0  0  0  0  0  0  0  0  0  0  0
   21.4740   14.5060   11.2860 C   0  0  0  0  0  0  0  0  0  0  0  0
   20.9090   13.6180   10.2550 C   0  0  0  0  0  0  0  0  0  0  0  0
   21.6610   12.8100    9.7260 O   0  0  0  0  0  0  0  0  0  0  0  0
   19.5710   13.7490    9.9810 N   0  0  0  0  0  0  0  0  0  0  0  0
   18.9180   13.2520    8.7720 C   0  0  0  0  0  0  0  0  0  0  0  0
   17.7760   14.2150    9.1060 C   0  0  0  0  0  0  0  0  0  0  0  0
   18.7490   14.9540   10.0310 C   0  0  0  0  0  0  0  0  0  0  0  0
   20.9240   14.4230   12.5860 C   0  0  0  0  0  0  0  0  0  0  0  0
   21.4480   15.1880   13.6260 C   0  0  0  0  0  0  0  0  0  0  0  0
   22.5090   16.0230   13.3290 C   0  0  0  0  0  0  0  0  0  0  0  0
   23.0690   16.1280   12.0530 C   0  0  0  0  0  0  0  0  0  0  0  0
   24.1890   17.1230   12.0890 C   0  0  0  0  0  0  0  0  0  0  0  0
   24.1800   17.5750   13.4730 N   0  0  0  0  0  0  0  0  0  0  0  0
   25.2880   18.3070   14.0780 C   0  0  2  0  0  0  0  0  0  0  0  0
   25.5310   17.9120   15.5310 C   0  0  0  0  0  0  0  0  0  0  0  0
   26.7460   18.6600   16.0600 C   0  0  0  0  0  0  0  0  0  0  0  0
   26.5830   20.1540   15.8980 C   0  0  0  0  0  0  0  0  0  0  0  0
   27.0300   20.9560   16.7130 O   0  0  0  0  0  0  0  0  0  0  0  0
   25.9250   20.5830   14.7730 N   0  0  0  0  0  0  0  0  0  0  0  0
   25.0690   19.8280   14.0040 C   0  0  0  0  0  0  0  0  0  0  0  0
   24.1970   20.3690   13.3270 O   0  0  0  0  0  0  0  0  0  0  0  0
   23.2460   16.9040   14.2400 C   0  0  0  0  0  0  0  0  0  0  0  0
   23.0510   16.9870   15.4360 O   0  0  0  0  0  0  0  0  0  0  0  0
   21.7940   15.8360    7.1200 C   0  0  0  0  0  0  0  0  0  0  0  0
   20.6500   16.3330    6.6970 N   0  0  0  0  0  0  0  0  0  0  0  0
   18.9504   19.6134    8.5356 H   0  0  0  0  0  0  0  0  0  0  0  0
   19.8320   19.3891    6.9867 H   0  0  0  0  0  0  0  0  0  0  0  0
   18.0430   19.5504    6.9867 H   0  0  0  0  0  0  0  0  0  0  0  0
   18.1857   17.4265    8.5818 H   0  0  0  0  0  0  0  0  0  0  0  0
   18.2746   17.2664    6.7739 H   0  0  0  0  0  0  0  0  0  0  0  0
   20.7315   17.2023    9.9161 H   0  0  0  0  0  0  0  0  0  0  0  0
   19.4500   13.4727    7.8348 H   0  0  0  0  0  0  0  0  0  0  0  0
   18.7489   12.1797    8.5945 H   0  0  0  0  0  0  0  0  0  0  0  0
   17.4142   14.8090    8.2538 H   0  0  0  0  0  0  0  0  0  0  0  0
   16.8024   13.8512    9.4663 H   0  0  0  0  0  0  0  0  0  0  0  0
   19.2138   15.8496    9.5930 H   0  0  0  0  0  0  0  0  0  0  0  0
   18.4274   15.4065   10.9806 H   0  0  0  0  0  0  0  0  0  0  0  0
   20.0759   13.7493   12.7778 H   0  0  0  0  0  0  0  0  0  0  0  0
   21.0337   15.1298   14.6434 H   0  0  0  0  0  0  0  0  0  0  0  0
   25.1481   16.6484   11.8342 H   0  0  0  0  0  0  0  0  0  0  0  0
   24.0657   17.9415   11.3645 H   0  0  0  0  0  0  0  0  0  0  0  0
   26.1773   18.0338   13.4910 H   0  0  0  0  0  0  0  0  0  0  0  0
   24.6487   18.1712   16.1346 H   0  0  0  0  0  0  0  0  0  0  0  0
   25.7101   16.8284   15.5929 H   0  0  0  0  0  0  0  0  0  0  0  0
   26.8738   18.4269   17.1274 H   0  0  0  0  0  0  0  0  0  0  0  0
   27.6279   18.3420   15.4845 H   0  0  0  0  0  0  0  0  0  0  0  0
   26.0860   21.5566   14.4778 H   0  0  0  0  0  0  0  0  0  0  0  0
   22.4882   15.2473    6.5024 H   0  0  0  0  0  0  0  0  0  0  0  0
  1  2  1  0
  2  3  1  0
  3  4  2  0
  4  5  1  0
  5  6  1  0
  6  7  2  0
  6  8  2  0
  6  9  1  0
  9 10  1  0
 10 11  1  0
 11 12  2  0
 11 13  1  0
 13 14  1  0
 14 15  1  0
 15 16  1  0
 10 17  2  0
 17 18  1  0
 18 19  2  0
 19 20  1  0
 20 21  1  0
 21 22  1  0
 22 23  1  0
 23 24  1  0
 24 25  1  0
 25 26  1  0
 26 27  2  0
 26 28  1  0
 28 29  1  0
 29 30  2  0
 22 31  1  0
 31 32  2  0
  5 33  1  0
 33 34  2  0
 34  3  1  0
 20  9  2  0
 29 23  1  0
 16 13  1  0
 31 19  1  0
  1 35  1  0
  1 36  1  0
  1 37  1  0
  2 38  1  0
  2 39  1  0
  4 40  1  0
 14 41  1  0
 14 42  1  0
 15 43  1  0
 15 44  1  0
 16 45  1  0
 16 46  1  0
 17 47  1  0
 18 48  1  0
 21 49  1  0
 21 50  1  0
 23 51  1  6
 24 52  1  0
 24 53  1  0
 25 54  1  0
 25 55  1  0
 28 56  1  0
 33 57  1  0
M  END
>  <meeko>  (873) 
{"is_sidechain": [true], "free_energy": -10.43, "intermolecular_energy": 0.0, "internal_energy": -10.43, "cluster_size": 20, "cluster_id": 1, "rank_in_cluster": 1}

>  <_RMSD_MCS_to_ref>  (873) 
1.9488379300952086

$$$$
ligand
     RDKit          3D

 46 49  0  0  0  0  0  0  0  0999 V2000
   18.9090   19.1540    7.5370 C   0  0  0  0  0  0  0  0  0  0  0  0
   18.7730   17.6460    7.6780 C   0  0  0  0  0  0  0  0  0  0  0  0
   20.0940   16.9750    7.8220 C   0  0  0  0  0  0  0  0  0  0  0  0
   21.0940   16.8220    6.8830 C   0  0  0  0  0  0  0  0  0  0  0  0
   22.0810   16.1510    7.5490 N   0  0  0  0  0  0  0  0  0  0  0  0
   23.6500   15.8930    6.9930 S   0  0  0  0  0  6  0  0  0  0  0  0
   23.5510   14.8270    6.0140 O   0  0  0  0  0  0  0  0  0  0  0  0
   24.1660   17.2090    6.6620 O   0  0  0  0  0  0  0  0  0  0  0  0
   24.5330   15.2820    8.4030 C   0  0  0  0  0  0  0  0  0  0  0  0
   25.0310   13.9920    8.4150 C   0  0  0  0  0  0  0  0  0  0  0  0
   25.7350   13.5950    9.5480 C   0  0  0  0  0  0  0  0  0  0  0  0
   25.9120   14.4960   10.6010 C   0  0  0  0  0  0  0  0  0  0  0  0
   25.3740   15.7750   10.4930 C   0  0  0  0  0  0  0  0  0  0  0  0
   25.5410   16.7610   11.5420 C   0  0  0  0  0  0  0  0  0  0  0  0
   24.6290   17.0420   12.5370 C   0  0  0  0  0  0  0  0  0  0  0  0
   25.2150   18.0430   13.2500 N   0  0  0  0  0  0  0  0  0  0  0  0
   24.6880   18.7180   14.4190 C   0  0  1  0  0  0  0  0  0  0  0  0
   25.1340   18.1130   15.7510 C   0  0  0  0  0  0  0  0  0  0  0  0
   26.5560   18.5060   16.1280 C   0  0  0  0  0  0  0  0  0  0  0  0
   26.7650   19.9980   16.0490 C   0  0  0  0  0  0  0  0  0  0  0  0
   27.5910   20.5830   16.7430 O   0  0  0  0  0  0  0  0  0  0  0  0
   26.0050   20.6800   15.1320 N   0  0  0  0  0  0  0  0  0  0  0  0
   24.9820   20.2010   14.3490 C   0  0  0  0  0  0  0  0  0  0  0  0
   24.3440   20.9640   13.6250 O   0  0  0  0  0  0  0  0  0  0  0  0
   26.4250   18.3550   12.7470 N   0  0  0  0  0  0  0  0  0  0  0  0
   26.6360   17.5730   11.6960 N   0  0  0  0  0  0  0  0  0  0  0  0
   24.6780   16.1800    9.4050 N   0  0  0  0  0  0  0  0  0  0  0  0
   21.6850   15.9410    8.8320 C   0  0  0  0  0  0  0  0  0  0  0  0
   20.4740   16.4220    9.0300 N   0  0  0  0  0  0  0  0  0  0  0  0
   18.9504   19.6134    8.5356 H   0  0  0  0  0  0  0  0  0  0  0  0
   19.8320   19.3891    6.9867 H   0  0  0  0  0  0  0  0  0  0  0  0
   18.0430   19.5504    6.9867 H   0  0  0  0  0  0  0  0  0  0  0  0
   18.1649   17.4265    8.5680 H   0  0  0  0  0  0  0  0  0  0  0  0
   18.2963   17.2622    6.7639 H   0  0  0  0  0  0  0  0  0  0  0  0
   21.0961   17.1625    5.8370 H   0  0  0  0  0  0  0  0  0  0  0  0
   24.8774   13.3095    7.5661 H   0  0  0  0  0  0  0  0  0  0  0  0
   26.1495   12.5782    9.6140 H   0  0  0  0  0  0  0  0  0  0  0  0
   26.4684   14.1989   11.5022 H   0  0  0  0  0  0  0  0  0  0  0  0
   23.6528   16.5669   12.7140 H   0  0  0  0  0  0  0  0  0  0  0  0
   23.5988   18.5661   14.3960 H   0  0  0  0  0  0  0  0  0  0  0  0
   24.4518   18.4599   16.5411 H   0  0  0  0  0  0  0  0  0  0  0  0
   25.1091   17.0185   15.6438 H   0  0  0  0  0  0  0  0  0  0  0  0
   26.7566   18.1724   17.1568 H   0  0  0  0  0  0  0  0  0  0  0  0
   27.2433   18.0265   15.4155 H   0  0  0  0  0  0  0  0  0  0  0  0
   26.2300   21.6784   15.0157 H   0  0  0  0  0  0  0  0  0  0  0  0
   22.2918   15.4386    9.5997 H   0  0  0  0  0  0  0  0  0  0  0  0
  1  2  1  0
  2  3  1  0
  3  4  2  0
  4  5  1  0
  5  6  1  0
  6  7  2  0
  6  8  2  0
  6  9  1  0
  9 10  2  0
 10 11  1  0
 11 12  2  0
 12 13  1  0
 13 14  1  0
 14 15  2  0
 15 16  1  0
 16 17  1  0
 17 18  1  0
 18 19  1  0
 19 20  1  0
 20 21  2  0
 20 22  1  0
 22 23  1  0
 23 24  2  0
 16 25  1  0
 25 26  2  0
 13 27  2  0
  5 28  1  0
 28 29  2  0
 29  3  1  0
 27  9  1  0
 26 14  1  0
 23 17  1  0
  1 30  1  0
  1 31  1  0
  1 32  1  0
  2 33  1  0
  2 34  1  0
  4 35  1  0
 10 36  1  0
 11 37  1  0
 12 38  1  0
 15 39  1  0
 17 40  1  6
 18 41  1  0
 18 42  1  0
 19 43  1  0
 19 44  1  0
 22 45  1  0
 28 46  1  0
M  END
>  <meeko>  (874) 
{"is_sidechain": [true], "free_energy": -10.43, "intermolecular_energy": 0.0, "internal_energy": -10.43, "cluster_size": 20, "cluster_id": 1, "rank_in_cluster": 1}

>  <_RMSD_MCS_to_ref>  (874) 
0.6413171342375528

$$$$
ligand
     RDKit          3D

 46 49  0  0  0  0  0  0  0  0999 V2000
   18.9090   19.1540    7.5370 C   0  0  0  0  0  0  0  0  0  0  0  0
   18.7730   17.6460    7.6780 C   0  0  0  0  0  0  0  0  0  0  0  0
   19.9850   16.9250    7.2030 C   0  0  0  0  0  0  0  0  0  0  0  0
   21.1200   16.5750    7.9070 C   0  0  0  0  0  0  0  0  0  0  0  0
   21.8910   15.9170    6.9930 N   0  0  0  0  0  0  0  0  0  0  0  0
   23.4630   15.3930    7.2260 S   0  0  0  0  0  6  0  0  0  0  0  0
   24.2970   16.1750    6.3340 O   0  0  0  0  0  0  0  0  0  0  0  0
   23.4250   13.9440    7.2040 O   0  0  0  0  0  0  0  0  0  0  0  0
   23.9850   15.8050    8.8040 C   0  0  0  0  0  0  0  0  0  0  0  0
   23.2000   16.0460    9.9090 C   0  0  0  0  0  0  0  0  0  0  0  0
   24.0950   16.3250   10.9150 N   0  0  0  0  0  0  0  0  0  0  0  0
   23.8450   16.6410   12.2740 C   0  0  0  0  0  0  0  0  0  0  0  0
   22.6880   16.1580   12.8940 C   0  0  0  0  0  0  0  0  0  0  0  0
   22.4400   16.4630   14.2280 C   0  0  0  0  0  0  0  0  0  0  0  0
   23.3420   17.2490   14.9510 C   0  0  0  0  0  0  0  0  0  0  0  0
   24.5120   17.7500   14.3590 C   0  0  0  0  0  0  0  0  0  0  0  0
   25.4350   18.5660   15.1020 N   0  0  0  0  0  0  0  0  0  0  0  0
   26.3150   17.9440   16.0890 C   0  0  0  0  0  0  0  0  0  0  0  0
   26.5290   18.8570   17.2780 C   0  0  0  0  0  0  0  0  0  0  0  0
   27.0170   20.1870   16.7950 C   0  0  0  0  0  0  0  0  0  0  0  0
   27.6570   20.9540   17.5090 O   0  0  0  0  0  0  0  0  0  0  0  0
   26.6300   20.5380   15.5330 N   0  0  0  0  0  0  0  0  0  0  0  0
   25.6910   19.9000   14.7570 C   0  0  0  0  0  0  0  0  0  0  0  0
   25.1680   20.5320   13.8430 O   0  0  0  0  0  0  0  0  0  0  0  0
   24.7420   17.4390   13.0060 C   0  0  0  0  0  0  0  0  0  0  0  0
   25.3610   16.2580   10.4190 N   0  0  0  0  0  0  0  0  0  0  0  0
   25.3000   15.9360    9.1340 N   0  0  0  0  0  0  0  0  0  0  0  0
   21.2660   15.9330    5.7890 C   0  0  0  0  0  0  0  0  0  0  0  0
   20.0900   16.5180    5.8870 N   0  0  0  0  0  0  0  0  0  0  0  0
   18.9504   19.6134    8.5356 H   0  0  0  0  0  0  0  0  0  0  0  0
   19.8320   19.3891    6.9867 H   0  0  0  0  0  0  0  0  0  0  0  0
   18.0430   19.5504    6.9867 H   0  0  0  0  0  0  0  0  0  0  0  0
   18.6090   17.4028    8.7382 H   0  0  0  0  0  0  0  0  0  0  0  0
   17.9239   17.3242    7.0572 H   0  0  0  0  0  0  0  0  0  0  0  0
   21.3502   16.7797    8.9630 H   0  0  0  0  0  0  0  0  0  0  0  0
   22.1021   16.0210    9.9729 H   0  0  0  0  0  0  0  0  0  0  0  0
   21.9764   15.5388   12.3282 H   0  0  0  0  0  0  0  0  0  0  0  0
   21.5301   16.0841   14.7164 H   0  0  0  0  0  0  0  0  0  0  0  0
   23.1306   17.4796   16.0056 H   0  0  0  0  0  0  0  0  0  0  0  0
   25.8601   17.0040   16.4347 H   0  0  0  0  0  0  0  0  0  0  0  0
   27.2893   17.7501   15.6166 H   0  0  0  0  0  0  0  0  0  0  0  0
   25.5793   18.9873   17.8176 H   0  0  0  0  0  0  0  0  0  0  0  0
   27.2737   18.4136   17.9554 H   0  0  0  0  0  0  0  0  0  0  0  0
   27.0876   21.3637   15.1211 H   0  0  0  0  0  0  0  0  0  0  0  0
   25.6433   17.8287   12.5101 H   0  0  0  0  0  0  0  0  0  0  0  0
   21.6831   15.5157    4.8606 H   0  0  0  0  0  0  0  0  0  0  0  0
  1  2  1  0
  2  3  1  0
  3  4  2  0
  4  5  1  0
  5  6  1  0
  6  7  2  0
  6  8  2  0
  6  9  1  0
  9 10  2  0
 10 11  1  0
 11 12  1  0
 12 13  2  0
 13 14  1  0
 14 15  2  0
 15 16  1  0
 16 17  1  0
 17 18  1  0
 18 19  1  0
 19 20  1  0
 20 21  2  0
 20 22  1  0
 22 23  1  0
 23 24  2  0
 16 25  2  0
 11 26  1  0
 26 27  2  0
  5 28  1  0
 28 29  2  0
 29  3  1  0
 27  9  1  0
 25 12  1  0
 23 17  1  0
  1 30  1  0
  1 31  1  0
  1 32  1  0
  2 33  1  0
  2 34  1  0
  4 35  1  0
 10 36  1  0
 13 37  1  0
 14 38  1  0
 15 39  1  0
 18 40  1  0
 18 41  1  0
 19 42  1  0
 19 43  1  0
 22 44  1  0
 25 45  1  0
 28 46  1  0
M  END
>  <meeko>  (875) 
{"is_sidechain": [true], "free_energy": -10.43, "intermolecular_energy": 0.0, "internal_energy": -10.43, "cluster_size": 19, "cluster_id": 1, "rank_in_cluster": 1}

>  <_RMSD_MCS_to_ref>  (875) 
0.6546151541172865

$$$$
ligand
     RDKit          3D

 58 62  0  0  0  0  0  0  0  0999 V2000
   18.9090   19.1540    7.5370 C   0  0  0  0  0  0  0  0  0  0  0  0
   18.7730   17.6460    7.6780 C   0  0  0  0  0  0  0  0  0  0  0  0
   19.9310   16.9200    7.0890 C   0  0  0  0  0  0  0  0  0  0  0  0
   21.1920   16.7220    7.6160 C   0  0  0  0  0  0  0  0  0  0  0  0
   21.8500   16.0140    6.6520 N   0  0  0  0  0  0  0  0  0  0  0  0
   23.3560   15.2860    6.8220 S   0  0  0  0  0  6  0  0  0  0  0  0
   23.3180   14.1010    5.9890 O   0  0  0  0  0  0  0  0  0  0  0  0
   24.3320   16.3410    6.6320 O   0  0  0  0  0  0  0  0  0  0  0  0
   23.3860   14.7890    8.5230 C   0  0  0  0  0  0  0  0  0  0  0  0
   22.8180   13.5670    8.8930 C   0  0  0  0  0  0  0  0  0  0  0  0
   22.8420   13.1640   10.2360 C   0  0  0  0  0  0  0  0  0  0  0  0
   23.4080   14.0120   11.2060 C   0  0  0  0  0  0  0  0  0  0  0  0
   23.9640   15.2420   10.8240 C   0  0  0  0  0  0  0  0  0  0  0  0
   23.9520   15.6330    9.4810 C   0  0  0  0  0  0  0  0  0  0  0  0
   24.5530   16.1100   11.8380 C   0  0  0  0  0  0  0  0  0  0  0  0
   24.5440   15.7720   13.1390 C   0  0  0  0  0  0  0  0  0  0  0  0
   25.1750   16.7420   14.0880 C   0  0  0  0  0  0  0  0  0  0  0  0
   26.3370   16.6170   14.4680 O   0  0  0  0  0  0  0  0  0  0  0  0
   24.3840   17.7750   14.5160 N   0  0  0  0  0  0  0  0  0  0  0  0
   24.8440   18.7660   15.4730 C   0  0  1  0  0  0  0  0  0  0  0  0
   25.7150   18.1340   16.5550 C   0  0  0  0  0  0  0  0  0  0  0  0
   26.1760   19.2070   17.5280 C   0  0  0  0  0  0  0  0  0  0  0  0
   26.8970   20.3230   16.8120 C   0  0  0  0  0  0  0  0  0  0  0  0
   27.8150   20.9520   17.3300 O   0  0  0  0  0  0  0  0  0  0  0  0
   26.4530   20.6320   15.5520 N   0  0  0  0  0  0  0  0  0  0  0  0
   25.6460   19.8580   14.7540 C   0  0  0  0  0  0  0  0  0  0  0  0
   25.5730   20.0680   13.5450 O   0  0  0  0  0  0  0  0  0  0  0  0
   23.9120   14.4880   13.5700 C   0  0  0  0  0  0  0  0  0  0  0  0
   23.8390   14.2120   14.7690 O   0  0  0  0  0  0  0  0  0  0  0  0
   23.4250   13.6420   12.5770 N   0  0  0  0  0  0  0  0  0  0  0  0
   22.7670   12.4040   12.9840 C   0  0  0  0  0  0  0  0  0  0  0  0
   22.8230   11.3260   11.9140 C   0  0  0  0  0  0  0  0  0  0  0  0
   22.2160   11.8510   10.6230 C   0  0  0  0  0  0  0  0  0  0  0  0
   21.0000   15.7620    5.6240 C   0  0  0  0  0  0  0  0  0  0  0  0
   19.8250   16.3100    5.8550 N   0  0  0  0  0  0  0  0  0  0  0  0
   18.9504   19.6134    8.5356 H   0  0  0  0  0  0  0  0  0  0  0  0
   19.8320   19.3891    6.9867 H   0  0  0  0  0  0  0  0  0  0  0  0
   18.0430   19.5504    6.9867 H   0  0  0  0  0  0  0  0  0  0  0  0
   18.7038   17.3949    8.7467 H   0  0  0  0  0  0  0  0  0  0  0  0
   17.8681   17.3361    7.1347 H   0  0  0  0  0  0  0  0  0  0  0  0
   21.5779   17.0579    8.5898 H   0  0  0  0  0  0  0  0  0  0  0  0
   22.3530   12.9225    8.1324 H   0  0  0  0  0  0  0  0  0  0  0  0
   24.3854   16.5986    9.1815 H   0  0  0  0  0  0  0  0  0  0  0  0
   25.0139   17.0606   11.5316 H   0  0  0  0  0  0  0  0  0  0  0  0
   23.4262   17.8520   14.1450 H   0  0  0  0  0  0  0  0  0  0  0  0
   23.9562   19.2054   15.9514 H   0  0  0  0  0  0  0  0  0  0  0  0
   25.1326   17.3741   17.0966 H   0  0  0  0  0  0  0  0  0  0  0  0
   26.5922   17.6615   16.0889 H   0  0  0  0  0  0  0  0  0  0  0  0
   25.2988   19.6216   18.0463 H   0  0  0  0  0  0  0  0  0  0  0  0
   26.8717   18.7487   18.2463 H   0  0  0  0  0  0  0  0  0  0  0  0
   26.7555   21.5370   15.1642 H   0  0  0  0  0  0  0  0  0  0  0  0
   23.2616   12.0250   13.8905 H   0  0  0  0  0  0  0  0  0  0  0  0
   21.7070   12.6367   13.1635 H   0  0  0  0  0  0  0  0  0  0  0  0
   23.8707   11.0420   11.7361 H   0  0  0  0  0  0  0  0  0  0  0  0
   22.2537   10.4478   12.2526 H   0  0  0  0  0  0  0  0  0  0  0  0
   22.3867   11.1190    9.8199 H   0  0  0  0  0  0  0  0  0  0  0  0
   21.1377   12.0049   10.7763 H   0  0  0  0  0  0  0  0  0  0  0  0
   21.2564   15.1821    4.7251 H   0  0  0  0  0  0  0  0  0  0  0  0
  1  2  1  0
  2  3  1  0
  3  4  2  0
  4  5  1  0
  5  6  1  0
  6  7  2  0
  6  8  2  0
  6  9  1  0
  9 10  2  0
 10 11  1  0
 11 12  2  0
 12 13  1  0
 13 14  2  0
 13 15  1  0
 15 16  2  0
 16 17  1  0
 17 18  2  0
 17 19  1  0
 19 20  1  0
 20 21  1  0
 21 22  1  0
 22 23  1  0
 23 24  2  0
 23 25  1  0
 25 26  1  0
 26 27  2  0
 16 28  1  0
 28 29  2  0
 28 30  1  0
 30 31  1  0
 31 32  1  0
 32 33  1  0
  5 34  1  0
 34 35  2  0
 35  3  1  0
 14  9  1  0
 26 20  1  0
 33 11  1  0
 30 12  1  0
  1 36  1  0
  1 37  1  0
  1 38  1  0
  2 39  1  0
  2 40  1  0
  4 41  1  0
 10 42  1  0
 14 43  1  0
 15 44  1  0
 19 45  1  0
 20 46  1  1
 21 47  1  0
 21 48  1  0
 22 49  1  0
 22 50  1  0
 25 51  1  0
 31 52  1  0
 31 53  1  0
 32 54  1  0
 32 55  1  0
 33 56  1  0
 33 57  1  0
 34 58  1  0
M  END
>  <meeko>  (876) 
{"is_sidechain": [true], "free_energy": -10.43, "intermolecular_energy": 0.0, "internal_energy": -10.43, "cluster_size": 17, "cluster_id": 1, "rank_in_cluster": 1}

>  <_RMSD_MCS_to_ref>  (876) 
0.8159775323704282

$$$$
ligand
     RDKit          3D

 46 49  0  0  0  0  0  0  0  0999 V2000
   18.9090   19.1540    7.5370 C   0  0  0  0  0  0  0  0  0  0  0  0
   18.7730   17.6460    7.6780 C   0  0  0  0  0  0  0  0  0  0  0  0
   20.0770   16.9470    7.5170 C   0  0  0  0  0  0  0  0  0  0  0  0
   20.7690   16.1750    8.4290 C   0  0  0  0  0  0  0  0  0  0  0  0
   21.9100   15.8180    7.7700 N   0  0  0  0  0  0  0  0  0  0  0  0
   23.0330   14.6740    8.2920 S   0  0  0  0  0  6  0  0  0  0  0  0
   22.3830   13.9980    9.3990 O   0  0  0  0  0  0  0  0  0  0  0  0
   23.4190   13.9620    7.0880 O   0  0  0  0  0  0  0  0  0  0  0  0
   24.3080   15.5220    8.8500 O   0  0  0  0  0  0  0  0  0  0  0  0
   24.3660   16.0170   10.1300 C   0  0  0  0  0  0  0  0  0  0  0  0
   25.6510   16.4540   10.5300 C   0  0  0  0  0  0  0  0  0  0  0  0
   25.8820   16.9880   11.8050 C   0  0  0  0  0  0  0  0  0  0  0  0
   24.8030   17.0680   12.6550 C   0  0  0  0  0  0  0  0  0  0  0  0
   23.5370   16.6400   12.2530 C   0  0  0  0  0  0  0  0  0  0  0  0
   23.2810   16.1120   11.0060 C   0  0  0  0  0  0  0  0  0  0  0  0
   22.6490   16.8650   13.2980 N   0  0  0  0  0  0  0  0  0  0  0  0
   23.3380   17.4580   14.3640 C   0  0  0  0  0  0  0  0  0  0  0  0
   22.8420   17.8260   15.4150 O   0  0  0  0  0  0  0  0  0  0  0  0
   24.6910   17.5450   13.9720 N   0  0  0  0  0  0  0  0  0  0  0  0
   25.7400   18.1790   14.7420 C   0  0  2  0  0  0  0  0  0  0  0  0
   25.5820   17.9900   16.2510 C   0  0  0  0  0  0  0  0  0  0  0  0
   26.7370   18.6690   16.9700 C   0  0  0  0  0  0  0  0  0  0  0  0
   26.8250   20.1320   16.6060 C   0  0  0  0  0  0  0  0  0  0  0  0
   27.3730   20.9550   17.3340 O   0  0  0  0  0  0  0  0  0  0  0  0
   26.3340   20.4920   15.3760 N   0  0  0  0  0  0  0  0  0  0  0  0
   25.8260   19.6720   14.3920 C   0  0  0  0  0  0  0  0  0  0  0  0
   25.5720   20.1310   13.2800 O   0  0  0  0  0  0  0  0  0  0  0  0
   21.8540   16.2880    6.4980 C   0  0  0  0  0  0  0  0  0  0  0  0
   20.7610   17.0000    6.3180 N   0  0  0  0  0  0  0  0  0  0  0  0
   18.9504   19.6134    8.5356 H   0  0  0  0  0  0  0  0  0  0  0  0
   19.8320   19.3891    6.9867 H   0  0  0  0  0  0  0  0  0  0  0  0
   18.0430   19.5504    6.9867 H   0  0  0  0  0  0  0  0  0  0  0  0
   18.3697   17.4183    8.6758 H   0  0  0  0  0  0  0  0  0  0  0  0
   18.0993   17.2917    6.8838 H   0  0  0  0  0  0  0  0  0  0  0  0
   20.4692   15.9084    9.4532 H   0  0  0  0  0  0  0  0  0  0  0  0
   26.4895   16.3726    9.8227 H   0  0  0  0  0  0  0  0  0  0  0  0
   26.8818   17.3282   12.1126 H   0  0  0  0  0  0  0  0  0  0  0  0
   22.2730   15.7818   10.7146 H   0  0  0  0  0  0  0  0  0  0  0  0
   21.6455   16.6331   13.2901 H   0  0  0  0  0  0  0  0  0  0  0  0
   26.6801   17.6792   14.4655 H   0  0  0  0  0  0  0  0  0  0  0  0
   24.6320   18.4371   16.5792 H   0  0  0  0  0  0  0  0  0  0  0  0
   25.5827   16.9159   16.4883 H   0  0  0  0  0  0  0  0  0  0  0  0
   26.5863   18.5782   18.0558 H   0  0  0  0  0  0  0  0  0  0  0  0
   27.6729   18.1781   16.6649 H   0  0  0  0  0  0  0  0  0  0  0  0
   26.3468   21.4994   15.1620 H   0  0  0  0  0  0  0  0  0  0  0  0
   22.6147   16.1005    5.7259 H   0  0  0  0  0  0  0  0  0  0  0  0
  1  2  1  0
  2  3  1  0
  3  4  2  0
  4  5  1  0
  5  6  1  0
  6  7  2  0
  6  8  2  0
  6  9  1  0
  9 10  1  0
 10 11  2  0
 11 12  1  0
 12 13  2  0
 13 14  1  0
 14 15  2  0
 14 16  1  0
 16 17  1  0
 17 18  2  0
 17 19  1  0
 19 20  1  0
 20 21  1  0
 21 22  1  0
 22 23  1  0
 23 24  2  0
 23 25  1  0
 25 26  1  0
 26 27  2  0
  5 28  1  0
 28 29  2  0
 29  3  1  0
 15 10  1  0
 26 20  1  0
 19 13  1  0
  1 30  1  0
  1 31  1  0
  1 32  1  0
  2 33  1  0
  2 34  1  0
  4 35  1  0
 11 36  1  0
 12 37  1  0
 15 38  1  0
 16 39  1  0
 20 40  1  6
 21 41  1  0
 21 42  1  0
 22 43  1  0
 22 44  1  0
 25 45  1  0
 28 46  1  0
M  END
>  <meeko>  (877) 
{"is_sidechain": [true], "free_energy": -10.43, "intermolecular_energy": 0.0, "internal_energy": -10.43, "cluster_size": 19, "cluster_id": 1, "rank_in_cluster": 1}

>  <_RMSD_MCS_to_ref>  (877) 
0.6275898342070235

$$$$
ligand
     RDKit          3D

 47 50  0  0  0  0  0  0  0  0999 V2000
   18.9090   19.1540    7.5370 C   0  0  0  0  0  0  0  0  0  0  0  0
   18.7730   17.6460    7.6780 C   0  0  0  0  0  0  0  0  0  0  0  0
   20.0540   16.9380    7.4130 C   0  0  0  0  0  0  0  0  0  0  0  0
   20.5920   15.8430    8.0610 C   0  0  0  0  0  0  0  0  0  0  0  0
   21.7800   15.6280    7.4230 N   0  0  0  0  0  0  0  0  0  0  0  0
   22.8460   14.3700    7.7400 S   0  0  0  0  0  6  0  0  0  0  0  0
   23.4320   14.0540    6.4500 O   0  0  0  0  0  0  0  0  0  0  0  0
   22.1150   13.3840    8.5110 O   0  0  0  0  0  0  0  0  0  0  0  0
   24.1020   15.0370    8.7480 C   0  0  0  0  0  0  0  0  0  0  0  0
   25.3700   15.3760    8.2170 C   0  0  0  0  0  0  0  0  0  0  0  0
   26.4230   15.9270    9.0090 C   0  0  0  0  0  0  0  0  0  0  0  0
   26.3120   16.1850   10.3910 C   0  0  0  0  0  0  0  0  0  0  0  0
   25.0550   15.8330   10.8790 C   0  0  0  0  0  0  0  0  0  0  0  0
   24.6140   15.9520   12.1710 C   0  0  0  0  0  0  0  0  0  0  0  0
   25.2090   16.4330   13.3930 C   0  0  0  0  0  0  0  0  0  0  0  0
   25.5870   15.6980   14.3020 O   0  0  0  0  0  0  0  0  0  0  0  0
   25.3320   17.8100   13.4750 N   0  0  0  0  0  0  0  0  0  0  0  0
   26.1890   18.4120   14.4860 C   0  0  2  0  0  0  0  0  0  0  0  0
   25.7390   18.0170   15.8880 C   0  0  0  0  0  0  0  0  0  0  0  0
   26.6510   18.6710   16.9140 C   0  0  0  0  0  0  0  0  0  0  0  0
   26.6970   20.1710   16.7320 C   0  0  0  0  0  0  0  0  0  0  0  0
   26.7970   20.9450   17.6790 O   0  0  0  0  0  0  0  0  0  0  0  0
   26.6440   20.6340   15.4420 N   0  0  0  0  0  0  0  0  0  0  0  0
   26.1410   19.9420   14.3660 C   0  0  0  0  0  0  0  0  0  0  0  0
   25.6850   20.5360   13.3920 O   0  0  0  0  0  0  0  0  0  0  0  0
   23.3260   15.4920   12.2040 O   0  0  0  0  0  0  0  0  0  0  0  0
   22.9250   15.0720   10.9530 N   0  0  0  0  0  0  0  0  0  0  0  0
   23.9590   15.2740   10.1210 C   0  0  0  0  0  0  0  0  0  0  0  0
   21.9230   16.5380    6.4260 C   0  0  0  0  0  0  0  0  0  0  0  0
   20.8920   17.3580    6.3990 N   0  0  0  0  0  0  0  0  0  0  0  0
   18.9504   19.6134    8.5356 H   0  0  0  0  0  0  0  0  0  0  0  0
   19.8320   19.3891    6.9867 H   0  0  0  0  0  0  0  0  0  0  0  0
   18.0430   19.5504    6.9867 H   0  0  0  0  0  0  0  0  0  0  0  0
   18.4457   17.4143    8.7023 H   0  0  0  0  0  0  0  0  0  0  0  0
   18.0381   17.3028    6.9350 H   0  0  0  0  0  0  0  0  0  0  0  0
   20.1620   15.2746    8.8988 H   0  0  0  0  0  0  0  0  0  0  0  0
   25.5524   15.2073    7.1454 H   0  0  0  0  0  0  0  0  0  0  0  0
   27.3755   16.1638    8.5124 H   0  0  0  0  0  0  0  0  0  0  0  0
   27.1175   16.6111   11.0072 H   0  0  0  0  0  0  0  0  0  0  0  0
   24.8147   18.4109   12.8176 H   0  0  0  0  0  0  0  0  0  0  0  0
   27.2143   18.0492   14.3213 H   0  0  0  0  0  0  0  0  0  0  0  0
   24.7042   18.3531   16.0496 H   0  0  0  0  0  0  0  0  0  0  0  0
   25.7894   16.9234   15.9957 H   0  0  0  0  0  0  0  0  0  0  0  0
   26.2761   18.4439   17.9229 H   0  0  0  0  0  0  0  0  0  0  0  0
   27.6676   18.2737   16.7777 H   0  0  0  0  0  0  0  0  0  0  0  0
   27.0120   21.5795   15.2646 H   0  0  0  0  0  0  0  0  0  0  0  0
   22.7794   16.5844    5.7373 H   0  0  0  0  0  0  0  0  0  0  0  0
  1  2  1  0
  2  3  1  0
  3  4  2  0
  4  5  1  0
  5  6  1  0
  6  7  2  0
  6  8  2  0
  6  9  1  0
  9 10  2  0
 10 11  1  0
 11 12  2  0
 12 13  1  0
 13 14  2  0
 14 15  1  0
 15 16  2  0
 15 17  1  0
 17 18  1  0
 18 19  1  0
 19 20  1  0
 20 21  1  0
 21 22  2  0
 21 23  1  0
 23 24  1  0
 24 25  2  0
 14 26  1  0
 26 27  1  0
 27 28  2  0
  5 29  1  0
 29 30  2  0
 30  3  1  0
 28  9  1  0
 28 13  1  0
 24 18  1  0
  1 31  1  0
  1 32  1  0
  1 33  1  0
  2 34  1  0
  2 35  1  0
  4 36  1  0
 10 37  1  0
 11 38  1  0
 12 39  1  0
 17 40  1  0
 18 41  1  6
 19 42  1  0
 19 43  1  0
 20 44  1  0
 20 45  1  0
 23 46  1  0
 29 47  1  0
M  END
>  <meeko>  (878) 
{"is_sidechain": [true], "free_energy": -10.43, "intermolecular_energy": 0.0, "internal_energy": -10.43, "cluster_size": 19, "cluster_id": 1, "rank_in_cluster": 1}

>  <_RMSD_MCS_to_ref>  (878) 
0.8314545487677997

$$$$
ligand
     RDKit          3D

 47 50  0  0  0  0  0  0  0  0999 V2000
   18.9090   19.1540    7.5370 C   0  0  0  0  0  0  0  0  0  0  0  0
   18.7730   17.6460    7.6780 C   0  0  0  0  0  0  0  0  0  0  0  0
   20.0160   16.9310    7.2810 C   0  0  0  0  0  0  0  0  0  0  0  0
   21.1670   16.7170    8.0140 C   0  0  0  0  0  0  0  0  0  0  0  0
   21.9770   16.0190    7.1670 N   0  0  0  0  0  0  0  0  0  0  0  0
   23.4630   15.3500    7.5500 S   0  0  0  0  0  6  0  0  0  0  0  0
   23.3630   13.9340    7.2400 O   0  0  0  0  0  0  0  0  0  0  0  0
   24.4630   16.2010    6.9320 O   0  0  0  0  0  0  0  0  0  0  0  0
   23.7290   15.4590    9.3050 C   0  0  0  0  0  0  0  0  0  0  0  0
   24.8980   16.2810    9.7560 C   0  0  0  0  0  0  0  0  0  0  0  0
   25.0770   16.3480   11.0820 C   0  0  0  0  0  0  0  0  0  0  0  0
   24.2040   15.6780   11.9360 N   0  0  0  0  0  0  0  0  0  0  0  0
   24.1620   15.5890   13.3180 C   0  0  0  0  0  0  0  0  0  0  0  0
   25.0910   16.2040   14.2310 C   0  0  0  0  0  0  0  0  0  0  0  0
   25.8160   15.5700   14.9920 O   0  0  0  0  0  0  0  0  0  0  0  0
   25.1340   17.5790   14.1980 N   0  0  0  0  0  0  0  0  0  0  0  0
   26.1150   18.3320   14.9680 C   0  0  2  0  0  0  0  0  0  0  0  0
   25.9650   18.1140   16.4690 C   0  0  0  0  0  0  0  0  0  0  0  0
   26.9880   18.9610   17.2090 C   0  0  0  0  0  0  0  0  0  0  0  0
   26.8670   20.4200   16.8370 C   0  0  0  0  0  0  0  0  0  0  0  0
   27.0930   21.3250   17.6360 O   0  0  0  0  0  0  0  0  0  0  0  0
   26.5190   20.6960   15.5390 N   0  0  0  0  0  0  0  0  0  0  0  0
   25.9290   19.8210   14.6620 C   0  0  0  0  0  0  0  0  0  0  0  0
   25.2970   20.2230   13.6840 O   0  0  0  0  0  0  0  0  0  0  0  0
   23.0650   14.7810   13.5630 C   0  0  0  0  0  0  0  0  0  0  0  0
   22.4450   14.3940   12.4090 N   0  0  0  0  0  0  0  0  0  0  0  0
   23.1350   14.9320   11.4310 C   0  0  0  0  0  0  0  0  0  0  0  0
   22.9050   14.8270   10.0900 N   0  0  0  0  0  0  0  0  0  0  0  0
   21.3130   15.7840    6.0060 C   0  0  0  0  0  0  0  0  0  0  0  0
   20.1250   16.3520    6.0310 N   0  0  0  0  0  0  0  0  0  0  0  0
   18.9504   19.6134    8.5356 H   0  0  0  0  0  0  0  0  0  0  0  0
   19.8320   19.3891    6.9867 H   0  0  0  0  0  0  0  0  0  0  0  0
   18.0430   19.5504    6.9867 H   0  0  0  0  0  0  0  0  0  0  0  0
   18.5466   17.4071    8.7276 H   0  0  0  0  0  0  0  0  0  0  0  0
   17.9645   17.3154    7.0093 H   0  0  0  0  0  0  0  0  0  0  0  0
   21.3813   17.0363    9.0446 H   0  0  0  0  0  0  0  0  0  0  0  0
   25.5638   16.7944    9.0466 H   0  0  0  0  0  0  0  0  0  0  0  0
   25.9125   16.9315   11.4960 H   0  0  0  0  0  0  0  0  0  0  0  0
   24.4555   18.0886   13.6142 H   0  0  0  0  0  0  0  0  0  0  0  0
   27.1172   17.9815   14.6803 H   0  0  0  0  0  0  0  0  0  0  0  0
   24.9518   18.4058   16.7824 H   0  0  0  0  0  0  0  0  0  0  0  0
   26.1298   17.0520   16.7035 H   0  0  0  0  0  0  0  0  0  0  0  0
   26.8264   18.8530   18.2917 H   0  0  0  0  0  0  0  0  0  0  0  0
   27.9934   18.6140   16.9283 H   0  0  0  0  0  0  0  0  0  0  0  0
   26.7184   21.6449   15.1917 H   0  0  0  0  0  0  0  0  0  0  0  0
   22.7318   14.4853   14.5688 H   0  0  0  0  0  0  0  0  0  0  0  0
   21.7116   15.2009    5.1627 H   0  0  0  0  0  0  0  0  0  0  0  0
  1  2  1  0
  2  3  1  0
  3  4  2  0
  4  5  1  0
  5  6  1  0
  6  7  2  0
  6  8  2  0
  6  9  1  0
  9 10  1  0
 10 11  2  0
 11 12  1  0
 12 13  1  0
 13 14  1  0
 14 15  2  0
 14 16  1  0
 16 17  1  0
 17 18  1  0
 18 19  1  0
 19 20  1  0
 20 21  2  0
 20 22  1  0
 22 23  1  0
 23 24  2  0
 13 25  2  0
 25 26  1  0
 26 27  2  0
 27 28  1  0
  5 29  1  0
 29 30  2  0
 30  3  1  0
 28  9  2  0
 27 12  1  0
 23 17  1  0
  1 31  1  0
  1 32  1  0
  1 33  1  0
  2 34  1  0
  2 35  1  0
  4 36  1  0
 10 37  1  0
 11 38  1  0
 16 39  1  0
 17 40  1  6
 18 41  1  0
 18 42  1  0
 19 43  1  0
 19 44  1  0
 22 45  1  0
 25 46  1  0
 29 47  1  0
M  END
>  <meeko>  (879) 
{"is_sidechain": [true], "free_energy": -10.43, "intermolecular_energy": 0.0, "internal_energy": -10.43, "cluster_size": 16, "cluster_id": 1, "rank_in_cluster": 1}

>  <_RMSD_MCS_to_ref>  (879) 
0.8600091084788964

$$$$
ligand
     RDKit          3D

 47 50  0  0  0  0  0  0  0  0999 V2000
   18.9090   19.1540    7.5370 C   0  0  0  0  0  0  0  0  0  0  0  0
   18.7730   17.6460    7.6780 C   0  0  0  0  0  0  0  0  0  0  0  0
   19.8870   16.9170    7.0140 C   0  0  0  0  0  0  0  0  0  0  0  0
   20.9780   16.2910    7.5840 C   0  0  0  0  0  0  0  0  0  0  0  0
   21.6680   15.7880    6.5200 N   0  0  0  0  0  0  0  0  0  0  0  0
   23.1740   15.0580    6.5790 S   0  0  0  0  0  6  0  0  0  0  0  0
   24.1160   16.0270    6.0470 O   0  0  0  0  0  0  0  0  0  0  0  0
   23.0120   13.7410    5.9890 O   0  0  0  0  0  0  0  0  0  0  0  0
   23.6380   14.7900    8.2750 C   0  0  0  0  0  0  0  0  0  0  0  0
   23.8100   13.3610    8.7050 C   0  0  0  0  0  0  0  0  0  0  0  0
   24.1610   13.1830    9.9860 C   0  0  0  0  0  0  0  0  0  0  0  0
   24.3320   14.2930   10.8000 N   0  0  0  0  0  0  0  0  0  0  0  0
   24.6810   14.3670   12.1180 C   0  0  0  0  0  0  0  0  0  0  0  0
   24.7010   15.7150   12.4180 C   0  0  0  0  0  0  0  0  0  0  0  0
   25.0140   16.3180   13.7110 C   0  0  0  0  0  0  0  0  0  0  0  0
   25.1510   15.6690   14.7420 O   0  0  0  0  0  0  0  0  0  0  0  0
   25.1260   17.6850   13.6500 N   0  0  0  0  0  0  0  0  0  0  0  0
   25.2960   18.5060   14.8320 C   0  0  1  0  0  0  0  0  0  0  0  0
   26.3240   17.9130   15.7910 C   0  0  0  0  0  0  0  0  0  0  0  0
   26.4720   18.8200   17.0020 C   0  0  0  0  0  0  0  0  0  0  0  0
   26.8370   20.2280   16.5930 C   0  0  0  0  0  0  0  0  0  0  0  0
   27.5380   20.9550   17.2910 O   0  0  0  0  0  0  0  0  0  0  0  0
   26.3120   20.6780   15.4090 N   0  0  0  0  0  0  0  0  0  0  0  0
   25.7460   19.9120   14.4180 C   0  0  0  0  0  0  0  0  0  0  0  0
   25.5980   20.3610   13.2830 O   0  0  0  0  0  0  0  0  0  0  0  0
   24.3690   16.4600   11.2980 N   0  0  0  0  0  0  0  0  0  0  0  0
   24.1540   15.5930   10.3320 C   0  0  0  0  0  0  0  0  0  0  0  0
   23.8010   15.8350    9.0370 N   0  0  0  0  0  0  0  0  0  0  0  0
   21.0410   16.1470    5.3710 C   0  0  0  0  0  0  0  0  0  0  0  0
   19.9360   16.8110    5.6370 N   0  0  0  0  0  0  0  0  0  0  0  0
   18.9504   19.6134    8.5356 H   0  0  0  0  0  0  0  0  0  0  0  0
   19.8320   19.3891    6.9867 H   0  0  0  0  0  0  0  0  0  0  0  0
   18.0430   19.5504    6.9867 H   0  0  0  0  0  0  0  0  0  0  0  0
   18.7692   17.3891    8.7476 H   0  0  0  0  0  0  0  0  0  0  0  0
   17.8341   17.3445    7.1907 H   0  0  0  0  0  0  0  0  0  0  0  0
   21.2324   16.2153    8.6515 H   0  0  0  0  0  0  0  0  0  0  0  0
   23.6581   12.5178    8.0151 H   0  0  0  0  0  0  0  0  0  0  0  0
   24.3116   12.1697   10.3868 H   0  0  0  0  0  0  0  0  0  0  0  0
   24.8999   13.5299   12.7973 H   0  0  0  0  0  0  0  0  0  0  0  0
   25.0877   18.1445   12.7290 H   0  0  0  0  0  0  0  0  0  0  0  0
   24.3280   18.5494   15.3527 H   0  0  0  0  0  0  0  0  0  0  0  0
   25.9889   16.9175   16.1176 H   0  0  0  0  0  0  0  0  0  0  0  0
   27.2937   17.8246   15.2792 H   0  0  0  0  0  0  0  0  0  0  0  0
   25.5193   18.8422   17.5514 H   0  0  0  0  0  0  0  0  0  0  0  0
   27.2783   18.4230   17.6362 H   0  0  0  0  0  0  0  0  0  0  0  0
   26.3452   21.6944   15.2454 H   0  0  0  0  0  0  0  0  0  0  0  0
   21.4053   15.9155    4.3592 H   0  0  0  0  0  0  0  0  0  0  0  0
  1  2  1  0
  2  3  1  0
  3  4  2  0
  4  5  1  0
  5  6  1  0
  6  7  2  0
  6  8  2  0
  6  9  1  0
  9 10  1  0
 10 11  2  0
 11 12  1  0
 12 13  1  0
 13 14  2  0
 14 15  1  0
 15 16  2  0
 15 17  1  0
 17 18  1  0
 18 19  1  0
 19 20  1  0
 20 21  1  0
 21 22  2  0
 21 23  1  0
 23 24  1  0
 24 25  2  0
 14 26  1  0
 26 27  2  0
 27 28  1  0
  5 29  1  0
 29 30  2  0
 30  3  1  0
 28  9  2  0
 27 12  1  0
 24 18  1  0
  1 31  1  0
  1 32  1  0
  1 33  1  0
  2 34  1  0
  2 35  1  0
  4 36  1  0
 10 37  1  0
 11 38  1  0
 13 39  1  0
 17 40  1  0
 18 41  1  1
 19 42  1  0
 19 43  1  0
 20 44  1  0
 20 45  1  0
 23 46  1  0
 29 47  1  0
M  END
>  <meeko>  (880) 
{"is_sidechain": [true], "free_energy": -10.43, "intermolecular_energy": 0.0, "internal_energy": -10.43, "cluster_size": 16, "cluster_id": 1, "rank_in_cluster": 1}

>  <_RMSD_MCS_to_ref>  (880) 
0.5386746080272702

$$$$
ligand
     RDKit          3D

 48 51  0  0  0  0  0  0  0  0999 V2000
   18.9090   19.1540    7.5370 C   0  0  0  0  0  0  0  0  0  0  0  0
   18.7730   17.6460    7.6780 C   0  0  0  0  0  0  0  0  0  0  0  0
   20.0860   16.9530    7.5880 C   0  0  0  0  0  0  0  0  0  0  0  0
   20.9220   16.5400    8.6050 C   0  0  0  0  0  0  0  0  0  0  0  0
   21.9690   15.9450    7.9610 N   0  0  0  0  0  0  0  0  0  0  0  0
   23.4100   15.4460    8.6660 S   0  0  0  0  0  6  0  0  0  0  0  0
   24.3820   16.4660    8.3270 O   0  0  0  0  0  0  0  0  0  0  0  0
   23.5790   14.0540    8.3010 O   0  0  0  0  0  0  0  0  0  0  0  0
   23.0810   15.5290   10.4060 C   0  0  0  0  0  0  0  0  0  0  0  0
   22.0710   14.7370   10.9570 C   0  0  0  0  0  0  0  0  0  0  0  0
   21.8570   14.8470   12.3150 C   0  0  0  0  0  0  0  0  0  0  0  0
   22.5890   15.6990   13.1150 C   0  0  0  0  0  0  0  0  0  0  0  0
   23.5890   16.5020   12.5880 C   0  0  0  0  0  0  0  0  0  0  0  0
   24.4220   17.4350   13.3950 C   0  0  0  0  0  0  0  0  0  0  0  0
   25.5480   17.7380   13.0130 O   0  0  0  0  0  0  0  0  0  0  0  0
   23.8800   17.9180   14.5610 N   0  0  0  0  0  0  0  0  0  0  0  0
   24.6500   18.7210   15.4970 C   0  0  1  0  0  0  0  0  0  0  0  0
   25.7810   17.9240   16.1410 C   0  0  0  0  0  0  0  0  0  0  0  0
   26.5600   18.8250   17.0870 C   0  0  0  0  0  0  0  0  0  0  0  0
   27.0720   20.0550   16.3750 C   0  0  0  0  0  0  0  0  0  0  0  0
   28.1410   20.5850   16.6610 O   0  0  0  0  0  0  0  0  0  0  0  0
   26.2650   20.5800   15.3980 N   0  0  0  0  0  0  0  0  0  0  0  0
   25.2490   19.9190   14.7530 C   0  0  0  0  0  0  0  0  0  0  0  0
   24.8500   20.2930   13.6490 O   0  0  0  0  0  0  0  0  0  0  0  0
   23.8310   16.4130   11.2060 C   0  0  0  0  0  0  0  0  0  0  0  0
   22.1930   15.6240   14.4180 O   0  0  0  0  0  0  0  0  0  0  0  0
   21.1460   14.6340   14.3480 C   0  0  0  0  0  0  0  0  0  0  0  0
   20.9250   14.1440   13.0120 O   0  0  0  0  0  0  0  0  0  0  0  0
   21.7810   16.0470    6.6200 C   0  0  0  0  0  0  0  0  0  0  0  0
   20.6390   16.6480    6.3580 N   0  0  0  0  0  0  0  0  0  0  0  0
   18.9504   19.6134    8.5356 H   0  0  0  0  0  0  0  0  0  0  0  0
   19.8320   19.3891    6.9867 H   0  0  0  0  0  0  0  0  0  0  0  0
   18.0430   19.5504    6.9867 H   0  0  0  0  0  0  0  0  0  0  0  0
   18.3198   17.4209    8.6547 H   0  0  0  0  0  0  0  0  0  0  0  0
   18.1430   17.2849    6.8518 H   0  0  0  0  0  0  0  0  0  0  0  0
   20.7779   16.6623    9.6886 H   0  0  0  0  0  0  0  0  0  0  0  0
   21.4724   14.0553   10.3349 H   0  0  0  0  0  0  0  0  0  0  0  0
   22.8963   17.7044   14.7793 H   0  0  0  0  0  0  0  0  0  0  0  0
   23.9697   19.0515   16.2958 H   0  0  0  0  0  0  0  0  0  0  0  0
   25.3595   17.0782   16.7039 H   0  0  0  0  0  0  0  0  0  0  0  0
   26.4541   17.5439   15.3584 H   0  0  0  0  0  0  0  0  0  0  0  0
   25.9003   19.1360   17.9104 H   0  0  0  0  0  0  0  0  0  0  0  0
   27.4229   18.2617   17.4718 H   0  0  0  0  0  0  0  0  0  0  0  0
   26.4366   21.5578   15.1236 H   0  0  0  0  0  0  0  0  0  0  0  0
   24.6111   17.0377   10.7465 H   0  0  0  0  0  0  0  0  0  0  0  0
   21.4218   13.7857   14.9916 H   0  0  0  0  0  0  0  0  0  0  0  0
   20.2145   15.1153   14.6808 H   0  0  0  0  0  0  0  0  0  0  0  0
   22.4846   15.6789    5.8587 H   0  0  0  0  0  0  0  0  0  0  0  0
  1  2  1  0
  2  3  1  0
  3  4  2  0
  4  5  1  0
  5  6  1  0
  6  7  2  0
  6  8  2  0
  6  9  1  0
  9 10  2  0
 10 11  1  0
 11 12  2  0
 12 13  1  0
 13 14  1  0
 14 15  2  0
 14 16  1  0
 16 17  1  0
 17 18  1  0
 18 19  1  0
 19 20  1  0
 20 21  2  0
 20 22  1  0
 22 23  1  0
 23 24  2  0
 13 25  2  0
 12 26  1  0
 26 27  1  0
 27 28  1  0
  5 29  1  0
 29 30  2  0
 30  3  1  0
 25  9  1  0
 28 11  1  0
 23 17  1  0
  1 31  1  0
  1 32  1  0
  1 33  1  0
  2 34  1  0
  2 35  1  0
  4 36  1  0
 10 37  1  0
 16 38  1  0
 17 39  1  1
 18 40  1  0
 18 41  1  0
 19 42  1  0
 19 43  1  0
 22 44  1  0
 25 45  1  0
 27 46  1  0
 27 47  1  0
 29 48  1  0
M  END
>  <meeko>  (881) 
{"is_sidechain": [true], "free_energy": -10.43, "intermolecular_energy": 0.0, "internal_energy": -10.43, "cluster_size": 19, "cluster_id": 1, "rank_in_cluster": 1}

>  <_RMSD_MCS_to_ref>  (881) 
0.7107477283349787

$$$$
ligand
     RDKit          3D

 50 53  0  0  0  0  0  0  0  0999 V2000
   18.9090   19.1540    7.5370 C   0  0  0  0  0  0  0  0  0  0  0  0
   18.7730   17.6460    7.6780 C   0  0  0  0  0  0  0  0  0  0  0  0
   20.0870   16.9530    7.5910 C   0  0  0  0  0  0  0  0  0  0  0  0
   20.8980   16.4980    8.6120 C   0  0  0  0  0  0  0  0  0  0  0  0
   21.9620   15.9330    7.9680 N   0  0  0  0  0  0  0  0  0  0  0  0
   23.3330   15.3060    8.7090 S   0  0  0  0  0  6  0  0  0  0  0  0
   23.2840   13.8870    8.4090 O   0  0  0  0  0  0  0  0  0  0  0  0
   24.4500   16.1370    8.3100 O   0  0  0  0  0  0  0  0  0  0  0  0
   23.0840   15.5030   10.4450 C   0  0  0  0  0  0  0  0  0  0  0  0
   23.9080   16.3920   11.1370 C   0  0  0  0  0  0  0  0  0  0  0  0
   23.7060   16.5260   12.5010 C   0  0  0  0  0  0  0  0  0  0  0  0
   24.5690   17.4510   13.3020 C   0  0  0  0  0  0  0  0  0  0  0  0
   25.7100   17.7250   12.9520 O   0  0  0  0  0  0  0  0  0  0  0  0
   23.9800   17.9410   14.4440 N   0  0  0  0  0  0  0  0  0  0  0  0
   24.7050   18.7370   15.4170 C   0  0  1  0  0  0  0  0  0  0  0  0
   25.8100   17.9330   16.0970 C   0  0  0  0  0  0  0  0  0  0  0  0
   26.5450   18.8170   17.0920 C   0  0  0  0  0  0  0  0  0  0  0  0
   27.0850   20.0610   16.4250 C   0  0  0  0  0  0  0  0  0  0  0  0
   28.1300   20.5980   16.7820 O   0  0  0  0  0  0  0  0  0  0  0  0
   26.3290   20.5930   15.4120 N   0  0  0  0  0  0  0  0  0  0  0  0
   25.3250   19.9550   14.7230 C   0  0  0  0  0  0  0  0  0  0  0  0
   24.9510   20.3700   13.6270 O   0  0  0  0  0  0  0  0  0  0  0  0
   22.7510   15.8520   13.1920 N   0  0  0  0  0  0  0  0  0  0  0  0
   21.9590   15.0210   12.4870 C   0  0  0  0  0  0  0  0  0  0  0  0
   22.0910   14.7960   11.1160 C   0  0  0  0  0  0  0  0  0  0  0  0
   21.2840   13.9420   10.4210 O   0  0  0  0  0  0  0  0  0  0  0  0
   20.5380   13.0710   11.2820 C   0  0  0  0  0  0  0  0  0  0  0  0
   19.9540   13.8550   12.4430 C   0  0  0  0  0  0  0  0  0  0  0  0
   21.0020   14.4000   13.2470 O   0  0  0  0  0  0  0  0  0  0  0  0
   21.7880   16.0560    6.6270 C   0  0  0  0  0  0  0  0  0  0  0  0
   20.6600   16.6830    6.3640 N   0  0  0  0  0  0  0  0  0  0  0  0
   18.9504   19.6134    8.5356 H   0  0  0  0  0  0  0  0  0  0  0  0
   19.8320   19.3891    6.9867 H   0  0  0  0  0  0  0  0  0  0  0  0
   18.0430   19.5504    6.9867 H   0  0  0  0  0  0  0  0  0  0  0  0
   18.3176   17.4210    8.6537 H   0  0  0  0  0  0  0  0  0  0  0  0
   18.1449   17.2845    6.8505 H   0  0  0  0  0  0  0  0  0  0  0  0
   20.7264   16.5733    9.6959 H   0  0  0  0  0  0  0  0  0  0  0  0
   24.6899   16.9657   10.6179 H   0  0  0  0  0  0  0  0  0  0  0  0
   22.9855   17.7350   14.6154 H   0  0  0  0  0  0  0  0  0  0  0  0
   23.9891   19.0565   16.1886 H   0  0  0  0  0  0  0  0  0  0  0  0
   25.3669   17.0763   16.6259 H   0  0  0  0  0  0  0  0  0  0  0  0
   26.5183   17.5704   15.3375 H   0  0  0  0  0  0  0  0  0  0  0  0
   25.8495   19.1120   17.8916 H   0  0  0  0  0  0  0  0  0  0  0  0
   27.3915   18.2479   17.5038 H   0  0  0  0  0  0  0  0  0  0  0  0
   26.5334   21.5655   15.1410 H   0  0  0  0  0  0  0  0  0  0  0  0
   19.7213   12.6068   10.7098 H   0  0  0  0  0  0  0  0  0  0  0  0
   21.2099   12.2941   11.6757 H   0  0  0  0  0  0  0  0  0  0  0  0
   19.3324   14.6741   12.0523 H   0  0  0  0  0  0  0  0  0  0  0  0
   19.3420   13.1806   13.0599 H   0  0  0  0  0  0  0  0  0  0  0  0
   22.4907   15.6841    5.8668 H   0  0  0  0  0  0  0  0  0  0  0  0
  1  2  1  0
  2  3  1  0
  3  4  2  0
  4  5  1  0
  5  6  1  0
  6  7  2  0
  6  8  2  0
  6  9  1  0
  9 10  2  0
 10 11  1  0
 11 12  1  0
 12 13  2  0
 12 14  1  0
 14 15  1  0
 15 16  1  0
 16 17  1  0
 17 18  1  0
 18 19  2  0
 18 20  1  0
 20 21  1  0
 21 22  2  0
 11 23  2  0
 23 24  1  0
 24 25  2  0
 25 26  1  0
 26 27  1  0
 27 28  1  0
 28 29  1  0
  5 30  1  0
 30 31  2  0
 31  3  1  0
 25  9  1  0
 21 15  1  0
 29 24  1  0
  1 32  1  0
  1 33  1  0
  1 34  1  0
  2 35  1  0
  2 36  1  0
  4 37  1  0
 10 38  1  0
 14 39  1  0
 15 40  1  1
 16 41  1  0
 16 42  1  0
 17 43  1  0
 17 44  1  0
 20 45  1  0
 27 46  1  0
 27 47  1  0
 28 48  1  0
 28 49  1  0
 30 50  1  0
M  END
>  <meeko>  (882) 
{"is_sidechain": [true], "free_energy": -10.43, "intermolecular_energy": 0.0, "internal_energy": -10.43, "cluster_size": 19, "cluster_id": 1, "rank_in_cluster": 1}

>  <_RMSD_MCS_to_ref>  (882) 
0.6702293968817279

$$$$
ligand
     RDKit          3D

 45 48  0  0  0  0  0  0  0  0999 V2000
   18.9090   19.1540    7.5370 C   0  0  0  0  0  0  0  0  0  0  0  0
   18.7730   17.6460    7.6780 C   0  0  0  0  0  0  0  0  0  0  0  0
   20.0780   16.9470    7.5230 C   0  0  0  0  0  0  0  0  0  0  0  0
   21.0920   16.7850    8.4470 C   0  0  0  0  0  0  0  0  0  0  0  0
   22.0530   16.0890    7.7710 N   0  0  0  0  0  0  0  0  0  0  0  0
   23.4170   15.3970    8.4520 S   0  0  0  0  0  6  0  0  0  0  0  0
   23.2540   13.9620    8.3570 O   0  0  0  0  0  0  0  0  0  0  0  0
   24.5580   16.1120    7.9180 O   0  0  0  0  0  0  0  0  0  0  0  0
   23.4370   15.7510   10.1830 C   0  0  0  0  0  0  0  0  0  0  0  0
   24.3050   16.4550   11.0040 C   0  0  0  0  0  0  0  0  0  0  0  0
   23.8080   16.3950   12.3360 C   0  0  0  0  0  0  0  0  0  0  0  0
   24.2030   16.8770   13.5980 C   0  0  0  0  0  0  0  0  0  0  0  0
   25.3660   17.6270   13.7660 N   0  0  0  0  0  0  0  0  0  0  0  0
   25.4050   18.5100   14.9370 C   0  0  1  0  0  0  0  0  0  0  0  0
   26.3070   17.9130   16.0150 C   0  0  0  0  0  0  0  0  0  0  0  0
   26.4010   18.8700   17.1910 C   0  0  0  0  0  0  0  0  0  0  0  0
   26.9090   20.2230   16.7560 C   0  0  0  0  0  0  0  0  0  0  0  0
   27.5590   20.9520   17.4980 O   0  0  0  0  0  0  0  0  0  0  0  0
   26.5650   20.6290   15.4920 N   0  0  0  0  0  0  0  0  0  0  0  0
   25.9780   19.8710   14.5080 C   0  0  0  0  0  0  0  0  0  0  0  0
   25.9040   20.2860   13.3500 O   0  0  0  0  0  0  0  0  0  0  0  0
   23.4230   16.5720   14.6630 N   0  0  0  0  0  0  0  0  0  0  0  0
   22.3120   15.8330   14.4670 C   0  0  0  0  0  0  0  0  0  0  0  0
   21.8410   15.3350   13.3120 N   0  0  0  0  0  0  0  0  0  0  0  0
   22.6400   15.6540   12.2860 C   0  0  0  0  0  0  0  0  0  0  0  0
   22.4220   15.2830   10.9910 N   0  0  0  0  0  0  0  0  0  0  0  0
   21.5980   15.8000    6.5250 C   0  0  0  0  0  0  0  0  0  0  0  0
   20.4060   16.3230    6.3360 N   0  0  0  0  0  0  0  0  0  0  0  0
   18.9504   19.6134    8.5356 H   0  0  0  0  0  0  0  0  0  0  0  0
   19.8320   19.3891    6.9867 H   0  0  0  0  0  0  0  0  0  0  0  0
   18.0430   19.5504    6.9867 H   0  0  0  0  0  0  0  0  0  0  0  0
   18.3654   17.4186    8.6741 H   0  0  0  0  0  0  0  0  0  0  0  0
   18.1031   17.2913    6.8809 H   0  0  0  0  0  0  0  0  0  0  0  0
   21.1192   17.1363    9.4890 H   0  0  0  0  0  0  0  0  0  0  0  0
   25.2209   16.9714   10.6809 H   0  0  0  0  0  0  0  0  0  0  0  0
   26.1536   17.5647   13.1052 H   0  0  0  0  0  0  0  0  0  0  0  0
   24.3882   18.6269   15.3400 H   0  0  0  0  0  0  0  0  0  0  0  0
   25.8857   16.9556   16.3554 H   0  0  0  0  0  0  0  0  0  0  0  0
   27.3116   17.7471   15.5989 H   0  0  0  0  0  0  0  0  0  0  0  0
   25.4027   18.9884   17.6376 H   0  0  0  0  0  0  0  0  0  0  0  0
   27.1073   18.4524   17.9236 H   0  0  0  0  0  0  0  0  0  0  0  0
   26.7692   21.6102   15.2543 H   0  0  0  0  0  0  0  0  0  0  0  0
   21.7174   15.6103   15.3652 H   0  0  0  0  0  0  0  0  0  0  0  0
   21.6152   14.7325   10.6639 H   0  0  0  0  0  0  0  0  0  0  0  0
   22.1494   15.2106    5.7776 H   0  0  0  0  0  0  0  0  0  0  0  0
  1  2  1  0
  2  3  1  0
  3  4  2  0
  4  5  1  0
  5  6  1  0
  6  7  2  0
  6  8  2  0
  6  9  1  0
  9 10  2  0
 10 11  1  0
 11 12  2  0
 12 13  1  0
 13 14  1  0
 14 15  1  0
 15 16  1  0
 16 17  1  0
 17 18  2  0
 17 19  1  0
 19 20  1  0
 20 21  2  0
 12 22  1  0
 22 23  2  0
 23 24  1  0
 24 25  2  0
 25 26  1  0
  5 27  1  0
 27 28  2  0
 28  3  1  0
 26  9  1  0
 25 11  1  0
 20 14  1  0
  1 29  1  0
  1 30  1  0
  1 31  1  0
  2 32  1  0
  2 33  1  0
  4 34  1  0
 10 35  1  0
 13 36  1  0
 14 37  1  1
 15 38  1  0
 15 39  1  0
 16 40  1  0
 16 41  1  0
 19 42  1  0
 23 43  1  0
 26 44  1  0
 27 45  1  0
M  END
>  <meeko>  (883) 
{"is_sidechain": [true], "free_energy": -10.43, "intermolecular_energy": 0.0, "internal_energy": -10.43, "cluster_size": 20, "cluster_id": 1, "rank_in_cluster": 1}

>  <_RMSD_MCS_to_ref>  (883) 
0.7193973558163498

$$$$
ligand
     RDKit          3D

 54 58  0  0  0  0  0  0  0  0999 V2000
   18.9090   19.1540    7.5370 C   0  0  0  0  0  0  0  0  0  0  0  0
   18.7730   17.6460    7.6780 C   0  0  0  0  0  0  0  0  0  0  0  0
   20.0680   16.9420    7.4680 C   0  0  0  0  0  0  0  0  0  0  0  0
   21.1170   16.7790    8.3500 C   0  0  0  0  0  0  0  0  0  0  0  0
   22.0420   16.0710    7.6430 N   0  0  0  0  0  0  0  0  0  0  0  0
   23.6040   15.6750    8.1250 S   0  0  0  0  0  6  0  0  0  0  0  0
   24.3130   15.2230    6.9450 O   0  0  0  0  0  0  0  0  0  0  0  0
   24.0460   16.8310    8.8850 O   0  0  0  0  0  0  0  0  0  0  0  0
   23.3970   14.3010    9.2450 C   0  0  0  0  0  0  0  0  0  0  0  0
   23.1500   13.0480    8.6510 C   0  0  0  0  0  0  0  0  0  0  0  0
   23.0280   11.9060    9.4350 C   0  0  0  0  0  0  0  0  0  0  0  0
   23.1520   12.0000   10.8160 C   0  0  0  0  0  0  0  0  0  0  0  0
   23.3830   13.2510   11.4230 C   0  0  0  0  0  0  0  0  0  0  0  0
   23.4980   14.4430   10.6580 C   0  0  0  0  0  0  0  0  0  0  0  0
   23.6980   15.6540   11.3680 C   0  0  0  0  0  0  0  0  0  0  0  0
   23.8260   15.7160   12.7730 C   0  0  0  0  0  0  0  0  0  0  0  0
   24.0740   17.0280   13.4220 C   0  0  0  0  0  0  0  0  0  0  0  0
   23.7060   18.0640   12.8770 O   0  0  0  0  0  0  0  0  0  0  0  0
   24.7340   17.0200   14.6290 N   0  0  0  0  0  0  0  0  0  0  0  0
   25.1090   18.2430   15.3140 C   0  0  1  0  0  0  0  0  0  0  0  0
   25.7130   17.9550   16.6860 C   0  0  0  0  0  0  0  0  0  0  0  0
   26.0870   19.2640   17.3630 C   0  0  0  0  0  0  0  0  0  0  0  0
   27.0220   20.0770   16.5010 C   0  0  0  0  0  0  0  0  0  0  0  0
   27.8890   20.8050   16.9770 O   0  0  0  0  0  0  0  0  0  0  0  0
   26.8370   19.9940   15.1460 N   0  0  0  0  0  0  0  0  0  0  0  0
   26.1240   19.0280   14.4750 C   0  0  0  0  0  0  0  0  0  0  0  0
   26.2970   18.8490   13.2700 O   0  0  0  0  0  0  0  0  0  0  0  0
   23.7200   14.5270   13.5080 C   0  0  0  0  0  0  0  0  0  0  0  0
   23.7950   14.3100   14.8700 N   0  0  0  0  0  0  0  0  0  0  0  0
   23.6320   13.0180   15.0290 C   0  0  0  0  0  0  0  0  0  0  0  0
   23.4480   12.3870   13.8330 N   0  0  0  0  0  0  0  0  0  0  0  0
   23.5010   13.3300   12.8320 C   0  0  0  0  0  0  0  0  0  0  0  0
   21.5530   15.8140    6.4010 C   0  0  0  0  0  0  0  0  0  0  0  0
   20.3560   16.3410    6.2580 N   0  0  0  0  0  0  0  0  0  0  0  0
   18.9504   19.6134    8.5356 H   0  0  0  0  0  0  0  0  0  0  0  0
   19.8320   19.3891    6.9867 H   0  0  0  0  0  0  0  0  0  0  0  0
   18.0430   19.5504    6.9867 H   0  0  0  0  0  0  0  0  0  0  0  0
   18.4050   17.4166    8.6889 H   0  0  0  0  0  0  0  0  0  0  0  0
   18.0702   17.2970    6.9071 H   0  0  0  0  0  0  0  0  0  0  0  0
   21.1897   17.1386    9.3870 H   0  0  0  0  0  0  0  0  0  0  0  0
   23.0528   12.9722    7.5579 H   0  0  0  0  0  0  0  0  0  0  0  0
   22.8340   10.9313    8.9636 H   0  0  0  0  0  0  0  0  0  0  0  0
   23.0697   11.0958   11.4370 H   0  0  0  0  0  0  0  0  0  0  0  0
   23.7563   16.5917   10.7960 H   0  0  0  0  0  0  0  0  0  0  0  0
   24.9700   16.1153   15.0611 H   0  0  0  0  0  0  0  0  0  0  0  0
   24.1940   18.8377   15.4520 H   0  0  0  0  0  0  0  0  0  0  0  0
   24.9777   17.4197   17.3048 H   0  0  0  0  0  0  0  0  0  0  0  0
   26.6138   17.3351   16.5660 H   0  0  0  0  0  0  0  0  0  0  0  0
   25.1723   19.8463   17.5482 H   0  0  0  0  0  0  0  0  0  0  0  0
   26.5981   19.0330   18.3092 H   0  0  0  0  0  0  0  0  0  0  0  0
   27.2757   20.7285   14.5725 H   0  0  0  0  0  0  0  0  0  0  0  0
   23.6423   12.5077   16.0034 H   0  0  0  0  0  0  0  0  0  0  0  0
   23.2954   11.3768   13.7018 H   0  0  0  0  0  0  0  0  0  0  0  0
   22.0840   15.2448    5.6238 H   0  0  0  0  0  0  0  0  0  0  0  0
  1  2  1  0
  2  3  1  0
  3  4  2  0
  4  5  1  0
  5  6  1  0
  6  7  2  0
  6  8  2  0
  6  9  1  0
  9 10  2  0
 10 11  1  0
 11 12  2  0
 12 13  1  0
 13 14  2  0
 14 15  1  0
 15 16  2  0
 16 17  1  0
 17 18  2  0
 17 19  1  0
 19 20  1  0
 20 21  1  0
 21 22  1  0
 22 23  1  0
 23 24  2  0
 23 25  1  0
 25 26  1  0
 26 27  2  0
 16 28  1  0
 28 29  1  0
 29 30  2  0
 30 31  1  0
 31 32  1  0
  5 33  1  0
 33 34  2  0
 34  3  1  0
 14  9  1  0
 26 20  1  0
 32 28  2  0
 32 13  1  0
  1 35  1  0
  1 36  1  0
  1 37  1  0
  2 38  1  0
  2 39  1  0
  4 40  1  0
 10 41  1  0
 11 42  1  0
 12 43  1  0
 15 44  1  0
 19 45  1  0
 20 46  1  1
 21 47  1  0
 21 48  1  0
 22 49  1  0
 22 50  1  0
 25 51  1  0
 30 52  1  0
 31 53  1  0
 33 54  1  0
M  END
>  <meeko>  (884) 
{"is_sidechain": [true], "free_energy": -10.43, "intermolecular_energy": 0.0, "internal_energy": -10.43, "cluster_size": 20, "cluster_id": 1, "rank_in_cluster": 1}

>  <_RMSD_MCS_to_ref>  (884) 
1.1177620001095439

$$$$
ligand
     RDKit          3D

 53 57  0  0  0  0  0  0  0  0999 V2000
   18.8250   19.0180    7.5350 C   0  0  0  0  0  0  0  0  0  0  0  0
   18.5200   17.5410    7.7330 C   0  0  0  0  0  0  0  0  0  0  0  0
   19.7520   16.7410    7.9660 C   0  0  0  0  0  0  0  0  0  0  0  0
   20.4290   16.5120    9.1480 C   0  0  0  0  0  0  0  0  0  0  0  0
   21.4580   15.6900    8.7860 N   0  0  0  0  0  0  0  0  0  0  0  0
   22.6830   15.1530    9.8000 S   0  0  0  0  0  6  0  0  0  0  0  0
   23.7040   16.1750    9.6690 O   0  0  0  0  0  0  0  0  0  0  0  0
   22.9520   13.7720    9.4520 O   0  0  0  0  0  0  0  0  0  0  0  0
   22.0460   15.1960   11.4560 C   0  0  0  0  0  0  0  0  0  0  0  0
   20.9580   14.3950   11.8710 C   0  0  0  0  0  0  0  0  0  0  0  0
   20.2570   13.4440   11.0050 C   0  0  0  0  0  0  0  0  0  0  0  0
   20.6270   12.1660   10.6320 C   0  0  0  0  0  0  0  0  0  0  0  0
   19.6720   11.5550    9.7680 C   0  0  0  0  0  0  0  0  0  0  0  0
   18.5940   12.3770    9.5270 C   0  0  0  0  0  0  0  0  0  0  0  0
   18.7240   13.8660   10.3560 S   0  0  0  0  0  0  0  0  0  0  0  0
   20.5220   14.4640   13.2220 C   0  0  0  0  0  0  0  0  0  0  0  0
   21.1420   15.2950   14.1540 C   0  0  0  0  0  0  0  0  0  0  0  0
   22.2030   16.0540   13.7120 C   0  0  0  0  0  0  0  0  0  0  0  0
   22.6660   16.0260   12.3940 C   0  0  0  0  0  0  0  0  0  0  0  0
   23.8480   16.9420   12.2750 C   0  0  0  0  0  0  0  0  0  0  0  0
   23.9550   17.5180   13.6090 N   0  0  0  0  0  0  0  0  0  0  0  0
   25.1300   18.2490   14.0710 C   0  0  2  0  0  0  0  0  0  0  0  0
   25.5290   17.8780   15.4970 C   0  0  0  0  0  0  0  0  0  0  0  0
   26.8050   18.6180   15.8710 C   0  0  0  0  0  0  0  0  0  0  0  0
   26.6410   20.1110   15.7010 C   0  0  0  0  0  0  0  0  0  0  0  0
   27.1950   20.9200   16.4400 O   0  0  0  0  0  0  0  0  0  0  0  0
   25.8590   20.5290   14.6560 N   0  0  0  0  0  0  0  0  0  0  0  0
   24.9240   19.7710   13.9880 C   0  0  0  0  0  0  0  0  0  0  0  0
   24.0020   20.3120   13.3800 O   0  0  0  0  0  0  0  0  0  0  0  0
   23.0440   16.9670   14.4910 C   0  0  0  0  0  0  0  0  0  0  0  0
   22.9350   17.1690   15.6850 O   0  0  0  0  0  0  0  0  0  0  0  0
   21.4300   15.5020    7.4430 C   0  0  0  0  0  0  0  0  0  0  0  0
   20.3860   16.1080    6.9150 N   0  0  0  0  0  0  0  0  0  0  0  0
   18.9258   19.5062    8.5155 H   0  0  0  0  0  0  0  0  0  0  0  0
   19.7645   19.1263    6.9731 H   0  0  0  0  0  0  0  0  0  0  0  0
   18.0053   19.4896    6.9731 H   0  0  0  0  0  0  0  0  0  0  0  0
   17.8552   17.4296    8.6023 H   0  0  0  0  0  0  0  0  0  0  0  0
   18.0428   17.1679    6.8148 H   0  0  0  0  0  0  0  0  0  0  0  0
   20.1938   16.9016   10.1494 H   0  0  0  0  0  0  0  0  0  0  0  0
   21.5538   11.6755   10.9643 H   0  0  0  0  0  0  0  0  0  0  0  0
   19.7831   10.5461    9.3439 H   0  0  0  0  0  0  0  0  0  0  0  0
   17.7484   12.1071    8.8772 H   0  0  0  0  0  0  0  0  0  0  0  0
   19.6712   13.8441   13.5413 H   0  0  0  0  0  0  0  0  0  0  0  0
   20.7985   15.3425   15.1979 H   0  0  0  0  0  0  0  0  0  0  0  0
   24.7573   16.3813   12.0128 H   0  0  0  0  0  0  0  0  0  0  0  0
   23.7309   17.6987   11.4853 H   0  0  0  0  0  0  0  0  0  0  0  0
   25.9449   17.9540   13.3936 H   0  0  0  0  0  0  0  0  0  0  0  0
   24.7231   18.1620   16.1897 H   0  0  0  0  0  0  0  0  0  0  0  0
   25.6998   16.7933   15.5614 H   0  0  0  0  0  0  0  0  0  0  0  0
   27.0508   18.4013   16.9211 H   0  0  0  0  0  0  0  0  0  0  0  0
   27.6124   18.2783   15.2056 H   0  0  0  0  0  0  0  0  0  0  0  0
   25.9825   21.5018   14.3408 H   0  0  0  0  0  0  0  0  0  0  0  0
   22.1742   14.9248    6.8746 H   0  0  0  0  0  0  0  0  0  0  0  0
  1  2  1  0
  2  3  1  0
  3  4  2  0
  4  5  1  0
  5  6  1  0
  6  7  2  0
  6  8  2  0
  6  9  1  0
  9 10  1  0
 10 11  1  0
 11 12  2  0
 12 13  1  0
 13 14  2  0
 14 15  1  0
 10 16  2  0
 16 17  1  0
 17 18  2  0
 18 19  1  0
 19 20  1  0
 20 21  1  0
 21 22  1  0
 22 23  1  0
 23 24  1  0
 24 25  1  0
 25 26  2  0
 25 27  1  0
 27 28  1  0
 28 29  2  0
 21 30  1  0
 30 31  2  0
  5 32  1  0
 32 33  2  0
 33  3  1  0
 19  9  2  0
 28 22  1  0
 15 11  1  0
 30 18  1  0
  1 34  1  0
  1 35  1  0
  1 36  1  0
  2 37  1  0
  2 38  1  0
  4 39  1  0
 12 40  1  0
 13 41  1  0
 14 42  1  0
 16 43  1  0
 17 44  1  0
 20 45  1  0
 20 46  1  0
 22 47  1  6
 23 48  1  0
 23 49  1  0
 24 50  1  0
 24 51  1  0
 27 52  1  0
 32 53  1  0
M  END
>  <meeko>  (885) 
{"is_sidechain": [true], "free_energy": -10.42, "intermolecular_energy": 0.0, "internal_energy": -10.42, "cluster_size": 17, "cluster_id": 1, "rank_in_cluster": 1}

>  <_RMSD_MCS_to_ref>  (885) 
1.6896403134658249

$$$$
ligand
     RDKit          3D

 49 52  0  0  0  0  0  0  0  0999 V2000
   18.7970   18.8170    7.7190 C   0  0  0  0  0  0  0  0  0  0  0  0
   18.5280   17.3290    7.8810 C   0  0  0  0  0  0  0  0  0  0  0  0
   19.7650   16.5150    7.7280 C   0  0  0  0  0  0  0  0  0  0  0  0
   20.1010   15.3210    8.3360 C   0  0  0  0  0  0  0  0  0  0  0  0
   21.3280   15.0180    7.8200 N   0  0  0  0  0  0  0  0  0  0  0  0
   22.3280   13.7710    8.3390 S   0  0  0  0  0  6  0  0  0  0  0  0
   21.4330   12.7390    8.8320 O   0  0  0  0  0  0  0  0  0  0  0  0
   23.2810   13.5380    7.2740 O   0  0  0  0  0  0  0  0  0  0  0  0
   23.1860   14.4670    9.7300 C   0  0  0  0  0  0  0  0  0  0  0  0
   22.5370   14.5190   10.9710 C   0  0  0  0  0  0  0  0  0  0  0  0
   23.1870   15.0400   12.0880 C   0  0  0  0  0  0  0  0  0  0  0  0
   24.5040   15.5270   12.0000 C   0  0  0  0  0  0  0  0  0  0  0  0
   25.1340   16.0450   13.2380 C   0  0  0  0  0  0  0  0  0  0  0  0
   25.3050   15.3040   14.2000 O   0  0  0  0  0  0  0  0  0  0  0  0
   25.5640   17.3500   13.2110 N   0  0  0  0  0  0  0  0  0  0  0  0
   26.3510   17.9110   14.3010 C   0  0  2  0  0  0  0  0  0  0  0  0
   25.6540   17.7600   15.6500 C   0  0  0  0  0  0  0  0  0  0  0  0
   26.5070   18.3970   16.7350 C   0  0  0  0  0  0  0  0  0  0  0  0
   26.8100   19.8430   16.4170 C   0  0  0  0  0  0  0  0  0  0  0  0
   26.9180   20.7000   17.2870 O   0  0  0  0  0  0  0  0  0  0  0  0
   26.9910   20.1550   15.0940 N   0  0  0  0  0  0  0  0  0  0  0  0
   26.5820   19.3990   14.0230 C   0  0  0  0  0  0  0  0  0  0  0  0
   26.4270   19.9030   12.9100 O   0  0  0  0  0  0  0  0  0  0  0  0
   25.1640   15.5300   10.7450 C   0  0  0  0  0  0  0  0  0  0  0  0
   26.4230   15.9930   10.2580 C   0  0  0  0  0  0  0  0  0  0  0  0
   26.4910   15.7200    8.9130 C   0  0  0  0  0  0  0  0  0  0  0  0
   25.3190   15.1240    8.5460 N   0  0  0  0  0  0  0  0  0  0  0  0
   24.4850   14.9980    9.6410 C   0  0  0  0  0  0  0  0  0  0  0  0
   21.7170   16.0090    6.9780 C   0  0  0  0  0  0  0  0  0  0  0  0
   20.7830   16.9340    6.8940 N   0  0  0  0  0  0  0  0  0  0  0  0
   18.8815   19.2845    8.7111 H   0  0  0  0  0  0  0  0  0  0  0  0
   19.7359   18.9616    7.1643 H   0  0  0  0  0  0  0  0  0  0  0  0
   17.9682   19.2812    7.1643 H   0  0  0  0  0  0  0  0  0  0  0  0
   18.1086   17.1516    8.8823 H   0  0  0  0  0  0  0  0  0  0  0  0
   17.8235   17.0250    7.0928 H   0  0  0  0  0  0  0  0  0  0  0  0
   19.5145   14.7463    9.0679 H   0  0  0  0  0  0  0  0  0  0  0  0
   21.5065   14.1456   11.0640 H   0  0  0  0  0  0  0  0  0  0  0  0
   22.6620   15.0710   13.0541 H   0  0  0  0  0  0  0  0  0  0  0  0
   25.3250   17.9434   12.4038 H   0  0  0  0  0  0  0  0  0  0  0  0
   27.3030   17.3623   14.3524 H   0  0  0  0  0  0  0  0  0  0  0  0
   24.6740   18.2583   15.6142 H   0  0  0  0  0  0  0  0  0  0  0  0
   25.5143   16.6920   15.8731 H   0  0  0  0  0  0  0  0  0  0  0  0
   25.9666   18.3461   17.6917 H   0  0  0  0  0  0  0  0  0  0  0  0
   27.4583   17.8481   16.7958 H   0  0  0  0  0  0  0  0  0  0  0  0
   27.4786   21.0377   14.8842 H   0  0  0  0  0  0  0  0  0  0  0  0
   27.2046   16.4840   10.8564 H   0  0  0  0  0  0  0  0  0  0  0  0
   27.3397   15.9424    8.2494 H   0  0  0  0  0  0  0  0  0  0  0  0
   25.0894   14.8132    7.5912 H   0  0  0  0  0  0  0  0  0  0  0  0
   22.6769   16.0359    6.4414 H   0  0  0  0  0  0  0  0  0  0  0  0
  1  2  1  0
  2  3  1  0
  3  4  2  0
  4  5  1  0
  5  6  1  0
  6  7  2  0
  6  8  2  0
  6  9  1  0
  9 10  2  0
 10 11  1  0
 11 12  2  0
 12 13  1  0
 13 14  2  0
 13 15  1  0
 15 16  1  0
 16 17  1  0
 17 18  1  0
 18 19  1  0
 19 20  2  0
 19 21  1  0
 21 22  1  0
 22 23  2  0
 12 24  1  0
 24 25  1  0
 25 26  2  0
 26 27  1  0
 27 28  1  0
  5 29  1  0
 29 30  2  0
 30  3  1  0
 28  9  1  0
 22 16  1  0
 28 24  2  0
  1 31  1  0
  1 32  1  0
  1 33  1  0
  2 34  1  0
  2 35  1  0
  4 36  1  0
 10 37  1  0
 11 38  1  0
 15 39  1  0
 16 40  1  1
 17 41  1  0
 17 42  1  0
 18 43  1  0
 18 44  1  0
 21 45  1  0
 25 46  1  0
 26 47  1  0
 27 48  1  0
 29 49  1  0
M  END
>  <meeko>  (886) 
{"is_sidechain": [true], "free_energy": -10.42, "intermolecular_energy": 0.0, "internal_energy": -10.42, "cluster_size": 17, "cluster_id": 1, "rank_in_cluster": 1}

>  <_RMSD_MCS_to_ref>  (886) 
1.0458299335934114

$$$$
ligand
     RDKit          3D

 48 51  0  0  0  0  0  0  0  0999 V2000
   18.7980   18.8170    7.7190 C   0  0  0  0  0  0  0  0  0  0  0  0
   18.5270   17.3290    7.8810 C   0  0  0  0  0  0  0  0  0  0  0  0
   19.7820   16.5290    7.8930 C   0  0  0  0  0  0  0  0  0  0  0  0
   20.4440   15.9740    8.9700 C   0  0  0  0  0  0  0  0  0  0  0  0
   21.5310   15.3620    8.4170 N   0  0  0  0  0  0  0  0  0  0  0  0
   22.8430   14.7400    9.2530 S   0  0  0  0  0  6  0  0  0  0  0  0
   23.6770   15.8720    9.6060 O   0  0  0  0  0  0  0  0  0  0  0  0
   23.3260   13.6050    8.4970 O   0  0  0  0  0  0  0  0  0  0  0  0
   22.3020   14.0990   10.7840 C   0  0  0  0  0  0  0  0  0  0  0  0
   21.2110   13.2720   10.8160 N   0  0  0  0  0  0  0  0  0  0  0  0
   20.9060   12.7830   12.0310 N   0  0  0  0  0  0  0  0  0  0  0  0
   21.8010   13.3410   12.8590 C   0  0  0  0  0  0  0  0  0  0  0  0
   21.9570   13.1950   14.2470 C   0  0  0  0  0  0  0  0  0  0  0  0
   23.0310   13.9420   14.7860 C   0  0  0  0  0  0  0  0  0  0  0  0
   23.8830   14.7900   13.9990 C   0  0  0  0  0  0  0  0  0  0  0  0
   25.0010   15.5430   14.6370 C   0  0  0  0  0  0  0  0  0  0  0  0
   26.0350   14.9630   14.9520 O   0  0  0  0  0  0  0  0  0  0  0  0
   24.8170   16.8970   14.8080 N   0  0  0  0  0  0  0  0  0  0  0  0
   25.9060   17.7490   15.2710 C   0  0  2  0  0  0  0  0  0  0  0  0
   26.0590   17.7190   16.7890 C   0  0  0  0  0  0  0  0  0  0  0  0
   27.1800   18.6590   17.2030 C   0  0  0  0  0  0  0  0  0  0  0  0
   26.9400   20.0590   16.6890 C   0  0  0  0  0  0  0  0  0  0  0  0
   27.2860   21.0580   17.3120 O   0  0  0  0  0  0  0  0  0  0  0  0
   26.3380   20.1680   15.4610 N   0  0  0  0  0  0  0  0  0  0  0  0
   25.6180   19.1860   14.8280 C   0  0  0  0  0  0  0  0  0  0  0  0
   24.8030   19.4590   13.9470 O   0  0  0  0  0  0  0  0  0  0  0  0
   23.7450   14.9430   12.5970 C   0  0  0  0  0  0  0  0  0  0  0  0
   22.6870   14.1880   12.0980 C   0  0  0  0  0  0  0  0  0  0  0  0
   21.5280   15.5770    7.0770 C   0  0  0  0  0  0  0  0  0  0  0  0
   20.4670   16.2720    6.7220 N   0  0  0  0  0  0  0  0  0  0  0  0
   18.8831   19.2843    8.7111 H   0  0  0  0  0  0  0  0  0  0  0  0
   19.7370   18.9604    7.1644 H   0  0  0  0  0  0  0  0  0  0  0  0
   17.9698   19.2823    7.1644 H   0  0  0  0  0  0  0  0  0  0  0  0
   17.9940   17.1668    8.8295 H   0  0  0  0  0  0  0  0  0  0  0  0
   17.9236   16.9993    7.0224 H   0  0  0  0  0  0  0  0  0  0  0  0
   20.1599   16.0157   10.0319 H   0  0  0  0  0  0  0  0  0  0  0  0
   20.6653   13.0419    9.9733 H   0  0  0  0  0  0  0  0  0  0  0  0
   21.3031   12.5573   14.8600 H   0  0  0  0  0  0  0  0  0  0  0  0
   23.2242   13.8696   15.8665 H   0  0  0  0  0  0  0  0  0  0  0  0
   23.8970   17.3138   14.6060 H   0  0  0  0  0  0  0  0  0  0  0  0
   26.8435   17.3732   14.8353 H   0  0  0  0  0  0  0  0  0  0  0  0
   25.1180   18.0408   17.2590 H   0  0  0  0  0  0  0  0  0  0  0  0
   26.2992   16.6958   17.1136 H   0  0  0  0  0  0  0  0  0  0  0  0
   27.2383   18.6855   18.3011 H   0  0  0  0  0  0  0  0  0  0  0  0
   28.1215   18.2876   16.7723 H   0  0  0  0  0  0  0  0  0  0  0  0
   26.4352   21.0681   14.9698 H   0  0  0  0  0  0  0  0  0  0  0  0
   24.3943   15.5802   11.9787 H   0  0  0  0  0  0  0  0  0  0  0  0
   22.3039   15.2203    6.3837 H   0  0  0  0  0  0  0  0  0  0  0  0
  1  2  1  0
  2  3  1  0
  3  4  2  0
  4  5  1  0
  5  6  1  0
  6  7  2  0
  6  8  2  0
  6  9  1  0
  9 10  1  0
 10 11  1  0
 11 12  2  0
 12 13  1  0
 13 14  2  0
 14 15  1  0
 15 16  1  0
 16 17  2  0
 16 18  1  0
 18 19  1  0
 19 20  1  0
 20 21  1  0
 21 22  1  0
 22 23  2  0
 22 24  1  0
 24 25  1  0
 25 26  2  0
 15 27  2  0
 27 28  1  0
  5 29  1  0
 29 30  2  0
 30  3  1  0
 28  9  2  0
 28 12  1  0
 25 19  1  0
  1 31  1  0
  1 32  1  0
  1 33  1  0
  2 34  1  0
  2 35  1  0
  4 36  1  0
 10 37  1  0
 13 38  1  0
 14 39  1  0
 18 40  1  0
 19 41  1  6
 20 42  1  0
 20 43  1  0
 21 44  1  0
 21 45  1  0
 24 46  1  0
 27 47  1  0
 29 48  1  0
M  END
>  <meeko>  (887) 
{"is_sidechain": [true], "free_energy": -10.42, "intermolecular_energy": 0.0, "internal_energy": -10.42, "cluster_size": 11, "cluster_id": 1, "rank_in_cluster": 1}

>  <_RMSD_MCS_to_ref>  (887) 
0.7317728852284399

$$$$
ligand
     RDKit          3D

 48 51  0  0  0  0  0  0  0  0999 V2000
   18.7970   18.8170    7.7190 C   0  0  0  0  0  0  0  0  0  0  0  0
   18.5280   17.3290    7.8810 C   0  0  0  0  0  0  0  0  0  0  0  0
   19.7730   16.5190    7.7970 C   0  0  0  0  0  0  0  0  0  0  0  0
   20.0990   15.3530    8.4620 C   0  0  0  0  0  0  0  0  0  0  0  0
   21.3400   15.0350    7.9920 N   0  0  0  0  0  0  0  0  0  0  0  0
   22.3430   13.8270    8.5880 S   0  0  0  0  0  6  0  0  0  0  0  0
   23.5010   13.8160    7.7130 O   0  0  0  0  0  0  0  0  0  0  0  0
   21.5040   12.6640    8.7910 O   0  0  0  0  0  0  0  0  0  0  0  0
   22.8560   14.4280   10.1560 C   0  0  0  0  0  0  0  0  0  0  0  0
   23.8530   15.3890   10.2160 C   0  0  0  0  0  0  0  0  0  0  0  0
   24.3430   15.9090   11.3640 N   0  0  0  0  0  0  0  0  0  0  0  0
   23.8230   15.4920   12.5640 C   0  0  0  0  0  0  0  0  0  0  0  0
   24.4120   16.0970   13.7970 C   0  0  0  0  0  0  0  0  0  0  0  0
   24.1680   15.6810   14.9220 O   0  0  0  0  0  0  0  0  0  0  0  0
   25.2640   17.1530   13.5540 N   0  0  0  0  0  0  0  0  0  0  0  0
   26.0640   17.7660   14.5980 C   0  0  2  0  0  0  0  0  0  0  0  0
   25.2790   17.9380   15.8930 C   0  0  0  0  0  0  0  0  0  0  0  0
   26.1610   18.6020   16.9390 C   0  0  0  0  0  0  0  0  0  0  0  0
   26.7100   19.9170   16.4380 C   0  0  0  0  0  0  0  0  0  0  0  0
   26.9150   20.8710   17.1810 O   0  0  0  0  0  0  0  0  0  0  0  0
   27.0050   19.9900   15.1000 N   0  0  0  0  0  0  0  0  0  0  0  0
   26.5480   19.1400   14.1210 C   0  0  0  0  0  0  0  0  0  0  0  0
   26.5560   19.4810   12.9380 O   0  0  0  0  0  0  0  0  0  0  0  0
   22.7880   14.5400   12.5990 C   0  0  0  0  0  0  0  0  0  0  0  0
   22.0270   13.9020   13.6230 C   0  0  0  0  0  0  0  0  0  0  0  0
   21.1260   13.0530   13.0230 C   0  0  0  0  0  0  0  0  0  0  0  0
   21.3000   13.1420   11.6710 N   0  0  0  0  0  0  0  0  0  0  0  0
   22.3170   14.0290   11.3830 C   0  0  0  0  0  0  0  0  0  0  0  0
   21.7480   15.9950    7.1230 C   0  0  0  0  0  0  0  0  0  0  0  0
   20.8120   16.9100    6.9760 N   0  0  0  0  0  0  0  0  0  0  0  0
   18.8815   19.2845    8.7111 H   0  0  0  0  0  0  0  0  0  0  0  0
   19.7359   18.9616    7.1643 H   0  0  0  0  0  0  0  0  0  0  0  0
   17.9682   19.2812    7.1643 H   0  0  0  0  0  0  0  0  0  0  0  0
   18.0603   17.1586    8.8619 H   0  0  0  0  0  0  0  0  0  0  0  0
   17.8656   17.0150    7.0609 H   0  0  0  0  0  0  0  0  0  0  0  0
   19.4960   14.8058    9.2015 H   0  0  0  0  0  0  0  0  0  0  0  0
   24.2735   15.7527    9.2669 H   0  0  0  0  0  0  0  0  0  0  0  0
   25.3355   17.5210   12.5947 H   0  0  0  0  0  0  0  0  0  0  0  0
   26.9154   17.1004   14.8032 H   0  0  0  0  0  0  0  0  0  0  0  0
   24.3964   18.5671   15.7054 H   0  0  0  0  0  0  0  0  0  0  0  0
   24.9569   16.9520   16.2590 H   0  0  0  0  0  0  0  0  0  0  0  0
   25.5661   18.7842   17.8462 H   0  0  0  0  0  0  0  0  0  0  0  0
   27.0064   17.9326   17.1564 H   0  0  0  0  0  0  0  0  0  0  0  0
   27.6278   20.7539   14.8008 H   0  0  0  0  0  0  0  0  0  0  0  0
   22.1409   14.0613   14.7054 H   0  0  0  0  0  0  0  0  0  0  0  0
   20.3945   12.4150   13.5406 H   0  0  0  0  0  0  0  0  0  0  0  0
   20.7525   12.6232   10.9696 H   0  0  0  0  0  0  0  0  0  0  0  0
   22.7228   16.0070    6.6135 H   0  0  0  0  0  0  0  0  0  0  0  0
  1  2  1  0
  2  3  1  0
  3  4  2  0
  4  5  1  0
  5  6  1  0
  6  7  2  0
  6  8  2  0
  6  9  1  0
  9 10  2  0
 10 11  1  0
 11 12  2  0
 12 13  1  0
 13 14  2  0
 13 15  1  0
 15 16  1  0
 16 17  1  0
 17 18  1  0
 18 19  1  0
 19 20  2  0
 19 21  1  0
 21 22  1  0
 22 23  2  0
 12 24  1  0
 24 25  1  0
 25 26  2  0
 26 27  1  0
 27 28  1  0
  5 29  1  0
 29 30  2  0
 30  3  1  0
 28  9  1  0
 22 16  1  0
 28 24  2  0
  1 31  1  0
  1 32  1  0
  1 33  1  0
  2 34  1  0
  2 35  1  0
  4 36  1  0
 10 37  1  0
 15 38  1  0
 16 39  1  1
 17 40  1  0
 17 41  1  0
 18 42  1  0
 18 43  1  0
 21 44  1  0
 25 45  1  0
 26 46  1  0
 27 47  1  0
 29 48  1  0
M  END
>  <meeko>  (888) 
{"is_sidechain": [true], "free_energy": -10.42, "intermolecular_energy": 0.0, "internal_energy": -10.42, "cluster_size": 19, "cluster_id": 1, "rank_in_cluster": 1}

>  <_RMSD_MCS_to_ref>  (888) 
1.0254923478776206

$$$$
ligand
     RDKit          3D

 47 50  0  0  0  0  0  0  0  0999 V2000
   18.7980   18.8170    7.7190 C   0  0  0  0  0  0  0  0  0  0  0  0
   18.5270   17.3290    7.8810 C   0  0  0  0  0  0  0  0  0  0  0  0
   19.7830   16.5450    8.0250 C   0  0  0  0  0  0  0  0  0  0  0  0
   20.1860   15.7320    9.0660 C   0  0  0  0  0  0  0  0  0  0  0  0
   21.4080   15.2680    8.6770 N   0  0  0  0  0  0  0  0  0  0  0  0
   22.4970   14.4050    9.6200 S   0  0  0  0  0  6  0  0  0  0  0  0
   22.7450   13.1540    8.9320 O   0  0  0  0  0  0  0  0  0  0  0  0
   23.5570   15.3490    9.9230 O   0  0  0  0  0  0  0  0  0  0  0  0
   21.6210   14.0550   11.1010 C   0  0  0  0  0  0  0  0  0  0  0  0
   20.5890   13.1010   11.1080 C   0  0  0  0  0  0  0  0  0  0  0  0
   19.8920   12.7990   12.2840 C   0  0  0  0  0  0  0  0  0  0  0  0
   20.1990   13.4420   13.4920 C   0  0  0  0  0  0  0  0  0  0  0  0
   21.2170   14.4030   13.4940 C   0  0  0  0  0  0  0  0  0  0  0  0
   21.7160   15.1770   14.5080 N   0  0  0  0  0  0  0  0  0  0  0  0
   22.6510   15.9060   13.9230 C   0  0  0  0  0  0  0  0  0  0  0  0
   23.4920   16.9170   14.5570 C   0  0  0  0  0  0  0  0  0  0  0  0
   23.1190   17.6850   15.4430 O   0  0  0  0  0  0  0  0  0  0  0  0
   24.7920   16.9590   14.0850 N   0  0  0  0  0  0  0  0  0  0  0  0
   25.8130   17.7980   14.6910 C   0  0  2  0  0  0  0  0  0  0  0  0
   25.8520   17.6620   16.2090 C   0  0  0  0  0  0  0  0  0  0  0  0
   26.9140   18.5950   16.7740 C   0  0  0  0  0  0  0  0  0  0  0  0
   26.6770   20.0230   16.3400 C   0  0  0  0  0  0  0  0  0  0  0  0
   26.9460   20.9830   17.0560 O   0  0  0  0  0  0  0  0  0  0  0  0
   26.1660   20.2060   15.0790 N   0  0  0  0  0  0  0  0  0  0  0  0
   25.5150   19.2570   14.3330 C   0  0  0  0  0  0  0  0  0  0  0  0
   24.7470   19.5750   13.4240 O   0  0  0  0  0  0  0  0  0  0  0  0
   22.8100   15.6490   12.5780 O   0  0  0  0  0  0  0  0  0  0  0  0
   21.8850   14.6810   12.3130 C   0  0  0  0  0  0  0  0  0  0  0  0
   21.7180   15.7930    7.4630 C   0  0  0  0  0  0  0  0  0  0  0  0
   20.7510   16.5780    7.0390 N   0  0  0  0  0  0  0  0  0  0  0  0
   18.8831   19.2843    8.7111 H   0  0  0  0  0  0  0  0  0  0  0  0
   19.7370   18.9604    7.1644 H   0  0  0  0  0  0  0  0  0  0  0  0
   17.9698   19.2823    7.1644 H   0  0  0  0  0  0  0  0  0  0  0  0
   17.9086   17.1765    8.7778 H   0  0  0  0  0  0  0  0  0  0  0  0
   18.0098   16.9779    6.9759 H   0  0  0  0  0  0  0  0  0  0  0  0
   19.6445   15.5093    9.9972 H   0  0  0  0  0  0  0  0  0  0  0  0
   20.3246   12.5831   10.1742 H   0  0  0  0  0  0  0  0  0  0  0  0
   19.0909   12.0455   12.2602 H   0  0  0  0  0  0  0  0  0  0  0  0
   19.6533   13.1972   14.4152 H   0  0  0  0  0  0  0  0  0  0  0  0
   25.0454   16.3750   13.2753 H   0  0  0  0  0  0  0  0  0  0  0  0
   26.7911   17.4766   14.3036 H   0  0  0  0  0  0  0  0  0  0  0  0
   24.8698   17.9285   16.6265 H   0  0  0  0  0  0  0  0  0  0  0  0
   26.0948   16.6235   16.4784 H   0  0  0  0  0  0  0  0  0  0  0  0
   26.8871   18.5451   17.8725 H   0  0  0  0  0  0  0  0  0  0  0  0
   27.8954   18.2748   16.3940 H   0  0  0  0  0  0  0  0  0  0  0  0
   26.2817   21.1380   14.6560 H   0  0  0  0  0  0  0  0  0  0  0  0
   22.6478   15.5901    6.9114 H   0  0  0  0  0  0  0  0  0  0  0  0
  1  2  1  0
  2  3  1  0
  3  4  2  0
  4  5  1  0
  5  6  1  0
  6  7  2  0
  6  8  2  0
  6  9  1  0
  9 10  2  0
 10 11  1  0
 11 12  2  0
 12 13  1  0
 13 14  1  0
 14 15  2  0
 15 16  1  0
 16 17  2  0
 16 18  1  0
 18 19  1  0
 19 20  1  0
 20 21  1  0
 21 22  1  0
 22 23  2  0
 22 24  1  0
 24 25  1  0
 25 26  2  0
 15 27  1  0
 27 28  1  0
  5 29  1  0
 29 30  2  0
 30  3  1  0
 28  9  1  0
 28 13  2  0
 25 19  1  0
  1 31  1  0
  1 32  1  0
  1 33  1  0
  2 34  1  0
  2 35  1  0
  4 36  1  0
 10 37  1  0
 11 38  1  0
 12 39  1  0
 18 40  1  0
 19 41  1  6
 20 42  1  0
 20 43  1  0
 21 44  1  0
 21 45  1  0
 24 46  1  0
 29 47  1  0
M  END
>  <meeko>  (889) 
{"is_sidechain": [true], "free_energy": -10.42, "intermolecular_energy": 0.0, "internal_energy": -10.42, "cluster_size": 10, "cluster_id": 1, "rank_in_cluster": 1}

>  <_RMSD_MCS_to_ref>  (889) 
0.5726484281146871

$$$$
ligand
     RDKit          3D

 53 56  0  0  0  0  0  0  0  0999 V2000
   18.7970   18.8170    7.7190 C   0  0  0  0  0  0  0  0  0  0  0  0
   18.5280   17.3290    7.8810 C   0  0  0  0  0  0  0  0  0  0  0  0
   19.7770   16.5220    7.8140 C   0  0  0  0  0  0  0  0  0  0  0  0
   20.1500   15.4380    8.5820 C   0  0  0  0  0  0  0  0  0  0  0  0
   21.3810   15.0950    8.1010 N   0  0  0  0  0  0  0  0  0  0  0  0
   22.3840   13.8760    8.6710 S   0  0  0  0  0  6  0  0  0  0  0  0
   21.5270   12.8040    9.1380 O   0  0  0  0  0  0  0  0  0  0  0  0
   23.3410   13.6760    7.5960 O   0  0  0  0  0  0  0  0  0  0  0  0
   23.2630   14.5390   10.0600 C   0  0  0  0  0  0  0  0  0  0  0  0
   22.6660   14.4320   11.3210 C   0  0  0  0  0  0  0  0  0  0  0  0
   23.3290   14.9190   12.4450 C   0  0  0  0  0  0  0  0  0  0  0  0
   24.5840   15.5330   12.3130 C   0  0  0  0  0  0  0  0  0  0  0  0
   25.2660   16.0160   13.5460 C   0  0  0  0  0  0  0  0  0  0  0  0
   25.5740   15.2410   14.4420 O   0  0  0  0  0  0  0  0  0  0  0  0
   25.5300   17.3670   13.5880 N   0  0  0  0  0  0  0  0  0  0  0  0
   26.3300   17.9450   14.6580 C   0  0  2  0  0  0  0  0  0  0  0  0
   25.6720   17.7840   16.0250 C   0  0  0  0  0  0  0  0  0  0  0  0
   26.5400   18.4420   17.0850 C   0  0  0  0  0  0  0  0  0  0  0  0
   26.8050   19.8920   16.7560 C   0  0  0  0  0  0  0  0  0  0  0  0
   26.9180   20.7560   17.6220 O   0  0  0  0  0  0  0  0  0  0  0  0
   26.9450   20.2050   15.4280 N   0  0  0  0  0  0  0  0  0  0  0  0
   26.5220   19.4380   14.3710 C   0  0  0  0  0  0  0  0  0  0  0  0
   26.3260   19.9320   13.2620 O   0  0  0  0  0  0  0  0  0  0  0  0
   25.1860   15.6640   11.0420 C   0  0  0  0  0  0  0  0  0  0  0  0
   24.5180   15.1440    9.9150 C   0  0  0  0  0  0  0  0  0  0  0  0
   25.0270   15.2460    8.6500 O   0  0  0  0  0  0  0  0  0  0  0  0
   26.4280   15.5170    8.5640 C   0  0  0  0  0  0  0  0  0  0  0  0
   26.8000   16.7010    9.4300 C   0  0  0  0  0  0  0  0  0  0  0  0
   26.5250   16.3410   10.8800 C   0  0  0  0  0  0  0  0  0  0  0  0
   21.7090   15.9290    7.0810 C   0  0  0  0  0  0  0  0  0  0  0  0
   20.7600   16.8220    6.8900 N   0  0  0  0  0  0  0  0  0  0  0  0
   18.8815   19.2845    8.7111 H   0  0  0  0  0  0  0  0  0  0  0  0
   19.7359   18.9616    7.1643 H   0  0  0  0  0  0  0  0  0  0  0  0
   17.9682   19.2812    7.1643 H   0  0  0  0  0  0  0  0  0  0  0  0
   18.0486   17.1597    8.8564 H   0  0  0  0  0  0  0  0  0  0  0  0
   17.8756   17.0115    7.0542 H   0  0  0  0  0  0  0  0  0  0  0  0
   19.5849   14.9596    9.3956 H   0  0  0  0  0  0  0  0  0  0  0  0
   21.6757   13.9645   11.4244 H   0  0  0  0  0  0  0  0  0  0  0  0
   22.8676   14.8221   13.4388 H   0  0  0  0  0  0  0  0  0  0  0  0
   25.1548   17.9791   12.8494 H   0  0  0  0  0  0  0  0  0  0  0  0
   27.2930   17.4141   14.6876 H   0  0  0  0  0  0  0  0  0  0  0  0
   24.6813   18.2618   16.0137 H   0  0  0  0  0  0  0  0  0  0  0  0
   25.5601   16.7141   16.2547 H   0  0  0  0  0  0  0  0  0  0  0  0
   26.0262   18.3831   18.0558 H   0  0  0  0  0  0  0  0  0  0  0  0
   27.5037   17.9129   17.1215 H   0  0  0  0  0  0  0  0  0  0  0  0
   27.4097   21.0964   15.2034 H   0  0  0  0  0  0  0  0  0  0  0  0
   26.9879   14.6326    8.9022 H   0  0  0  0  0  0  0  0  0  0  0  0
   26.6784   15.7518    7.5189 H   0  0  0  0  0  0  0  0  0  0  0  0
   27.8672   16.9344    9.3013 H   0  0  0  0  0  0  0  0  0  0  0  0
   26.2074   17.5814    9.1407 H   0  0  0  0  0  0  0  0  0  0  0  0
   27.3136   15.6609   11.2343 H   0  0  0  0  0  0  0  0  0  0  0  0
   26.5130   17.2705   11.4681 H   0  0  0  0  0  0  0  0  0  0  0  0
   22.6382   15.8674    6.4955 H   0  0  0  0  0  0  0  0  0  0  0  0
  1  2  1  0
  2  3  1  0
  3  4  2  0
  4  5  1  0
  5  6  1  0
  6  7  2  0
  6  8  2  0
  6  9  1  0
  9 10  2  0
 10 11  1  0
 11 12  2  0
 12 13  1  0
 13 14  2  0
 13 15  1  0
 15 16  1  0
 16 17  1  0
 17 18  1  0
 18 19  1  0
 19 20  2  0
 19 21  1  0
 21 22  1  0
 22 23  2  0
 12 24  1  0
 24 25  2  0
 25 26  1  0
 26 27  1  0
 27 28  1  0
 28 29  1  0
  5 30  1  0
 30 31  2  0
 31  3  1  0
 25  9  1  0
 22 16  1  0
 29 24  1  0
  1 32  1  0
  1 33  1  0
  1 34  1  0
  2 35  1  0
  2 36  1  0
  4 37  1  0
 10 38  1  0
 11 39  1  0
 15 40  1  0
 16 41  1  1
 17 42  1  0
 17 43  1  0
 18 44  1  0
 18 45  1  0
 21 46  1  0
 27 47  1  0
 27 48  1  0
 28 49  1  0
 28 50  1  0
 29 51  1  0
 29 52  1  0
 30 53  1  0
M  END
>  <meeko>  (890) 
{"is_sidechain": [true], "free_energy": -10.42, "intermolecular_energy": 0.0, "internal_energy": -10.42, "cluster_size": 17, "cluster_id": 1, "rank_in_cluster": 1}

>  <_RMSD_MCS_to_ref>  (890) 
0.9173748173759485

$$$$
ligand
     RDKit          3D

 49 52  0  0  0  0  0  0  0  0999 V2000
   18.7970   18.8170    7.7190 C   0  0  0  0  0  0  0  0  0  0  0  0
   18.5280   17.3290    7.8810 C   0  0  0  0  0  0  0  0  0  0  0  0
   19.7070   16.5000    7.5110 C   0  0  0  0  0  0  0  0  0  0  0  0
   20.5960   15.8400    8.3340 C   0  0  0  0  0  0  0  0  0  0  0  0
   21.4770   15.2520    7.4740 N   0  0  0  0  0  0  0  0  0  0  0  0
   22.6610   14.1440    7.8860 S   0  0  0  0  0  6  0  0  0  0  0  0
   23.9270   14.7120    7.4660 O   0  0  0  0  0  0  0  0  0  0  0  0
   22.2010   12.8530    7.4010 O   0  0  0  0  0  0  0  0  0  0  0  0
   22.7200   14.0060    9.6440 C   0  0  0  0  0  0  0  0  0  0  0  0
   23.2260   14.9290   10.3940 N   0  0  0  0  0  0  0  0  0  0  0  0
   23.2220   14.6890   11.7710 C   0  0  0  0  0  0  0  0  0  0  0  0
   23.7680   15.6810   12.4970 N   0  0  0  0  0  0  0  0  0  0  0  0
   23.7940   15.5070   13.8490 C   0  0  0  0  0  0  0  0  0  0  0  0
   24.4100   16.6200   14.6400 C   0  0  0  0  0  0  0  0  0  0  0  0
   23.7410   17.3250   15.3870 O   0  0  0  0  0  0  0  0  0  0  0  0
   25.7660   16.7660   14.4620 N   0  0  0  0  0  0  0  0  0  0  0  0
   26.5650   17.6870   15.2480 C   0  0  2  0  0  0  0  0  0  0  0  0
   26.1740   17.6630   16.7230 C   0  0  0  0  0  0  0  0  0  0  0  0
   27.0310   18.6560   17.4920 C   0  0  0  0  0  0  0  0  0  0  0  0
   26.9230   20.0430   16.9060 C   0  0  0  0  0  0  0  0  0  0  0  0
   26.9950   21.0570   17.5950 O   0  0  0  0  0  0  0  0  0  0  0  0
   26.7740   20.1260   15.5450 N   0  0  0  0  0  0  0  0  0  0  0  0
   26.3850   19.1090   14.7050 C   0  0  0  0  0  0  0  0  0  0  0  0
   25.9440   19.3540   13.5840 O   0  0  0  0  0  0  0  0  0  0  0  0
   23.2950   14.3830   14.4990 C   0  0  0  0  0  0  0  0  0  0  0  0
   22.7320   13.3720   13.7250 C   0  0  0  0  0  0  0  0  0  0  0  0
   22.6990   13.5350   12.3420 C   0  0  0  0  0  0  0  0  0  0  0  0
   22.1220   12.5290   11.4410 C   0  0  0  0  0  0  0  0  0  0  0  0
   21.6210   11.4960   11.8620 O   0  0  0  0  0  0  0  0  0  0  0  0
   22.1790   12.8310   10.1080 N   0  0  0  0  0  0  0  0  0  0  0  0
   21.0930   15.5110    6.1980 C   0  0  0  0  0  0  0  0  0  0  0  0
   20.0290   16.2860    6.1840 N   0  0  0  0  0  0  0  0  0  0  0  0
   18.8815   19.2845    8.7111 H   0  0  0  0  0  0  0  0  0  0  0  0
   19.7359   18.9616    7.1643 H   0  0  0  0  0  0  0  0  0  0  0  0
   17.9682   19.2812    7.1643 H   0  0  0  0  0  0  0  0  0  0  0  0
   18.2696   17.1282    8.9312 H   0  0  0  0  0  0  0  0  0  0  0  0
   17.7018   17.0603    7.2064 H   0  0  0  0  0  0  0  0  0  0  0  0
   20.5948   15.7975    9.4332 H   0  0  0  0  0  0  0  0  0  0  0  0
   26.2334   16.1980   13.7410 H   0  0  0  0  0  0  0  0  0  0  0  0
   27.6159   17.3720   15.1680 H   0  0  0  0  0  0  0  0  0  0  0  0
   25.1138   17.9375   16.8256 H   0  0  0  0  0  0  0  0  0  0  0  0
   26.3325   16.6524   17.1274 H   0  0  0  0  0  0  0  0  0  0  0  0
   26.6961   18.6825   18.5394 H   0  0  0  0  0  0  0  0  0  0  0  0
   28.0803   18.3324   17.4269 H   0  0  0  0  0  0  0  0  0  0  0  0
   26.9727   21.0383   15.1101 H   0  0  0  0  0  0  0  0  0  0  0  0
   23.3439   14.2954   15.5944 H   0  0  0  0  0  0  0  0  0  0  0  0
   22.3227   12.4654   14.1947 H   0  0  0  0  0  0  0  0  0  0  0  0
   21.8034   12.1542    9.4285 H   0  0  0  0  0  0  0  0  0  0  0  0
   21.6002   15.1268    5.3007 H   0  0  0  0  0  0  0  0  0  0  0  0
  1  2  1  0
  2  3  1  0
  3  4  2  0
  4  5  1  0
  5  6  1  0
  6  7  2  0
  6  8  2  0
  6  9  1  0
  9 10  2  0
 10 11  1  0
 11 12  2  0
 12 13  1  0
 13 14  1  0
 14 15  2  0
 14 16  1  0
 16 17  1  0
 17 18  1  0
 18 19  1  0
 19 20  1  0
 20 21  2  0
 20 22  1  0
 22 23  1  0
 23 24  2  0
 13 25  2  0
 25 26  1  0
 26 27  2  0
 27 28  1  0
 28 29  2  0
 28 30  1  0
  5 31  1  0
 31 32  2  0
 32  3  1  0
 30  9  1  0
 27 11  1  0
 23 17  1  0
  1 33  1  0
  1 34  1  0
  1 35  1  0
  2 36  1  0
  2 37  1  0
  4 38  1  0
 16 39  1  0
 17 40  1  1
 18 41  1  0
 18 42  1  0
 19 43  1  0
 19 44  1  0
 22 45  1  0
 25 46  1  0
 26 47  1  0
 30 48  1  0
 31 49  1  0
M  END
>  <meeko>  (891) 
{"is_sidechain": [true], "free_energy": -10.42, "intermolecular_energy": 0.0, "internal_energy": -10.42, "cluster_size": 19, "cluster_id": 1, "rank_in_cluster": 1}

>  <_RMSD_MCS_to_ref>  (891) 
1.0394193357618255

$$$$
ligand
     RDKit          3D

 53 57  0  0  0  0  0  0  0  0999 V2000
   18.7970   18.8160    7.7190 C   0  0  0  0  0  0  0  0  0  0  0  0
   18.5280   17.3300    7.8810 C   0  0  0  0  0  0  0  0  0  0  0  0
   19.7220   16.5000    7.5610 C   0  0  0  0  0  0  0  0  0  0  0  0
   20.7990   16.1830    8.3640 C   0  0  0  0  0  0  0  0  0  0  0  0
   21.6000   15.4240    7.5620 N   0  0  0  0  0  0  0  0  0  0  0  0
   23.0770   14.7420    7.9680 S   0  0  0  0  0  6  0  0  0  0  0  0
   22.9540   13.3070    7.8080 O   0  0  0  0  0  0  0  0  0  0  0  0
   24.0400   15.5110    7.2000 O   0  0  0  0  0  0  0  0  0  0  0  0
   23.3380   15.1030    9.6920 C   0  0  0  0  0  0  0  0  0  0  0  0
   24.5170   15.8120   10.0130 C   0  0  0  0  0  0  0  0  0  0  0  0
   24.7490   16.1450   11.3350 C   0  0  0  0  0  0  0  0  0  0  0  0
   23.8340   15.7840   12.3150 C   0  0  0  0  0  0  0  0  0  0  0  0
   22.6740   15.0860   12.0360 C   0  0  0  0  0  0  0  0  0  0  0  0
   22.4150   14.7280   10.7000 C   0  0  0  0  0  0  0  0  0  0  0  0
   21.2180   13.9530   10.4540 C   0  0  0  0  0  0  0  0  0  0  0  0
   19.8520   14.3080   10.6020 C   0  0  0  0  0  0  0  0  0  0  0  0
   19.1240   13.2210   10.1750 C   0  0  0  0  0  0  0  0  0  0  0  0
   19.9530   12.2290    9.7600 O   0  0  0  0  0  0  0  0  0  0  0  0
   21.2230   12.6820    9.9190 C   0  0  0  0  0  0  0  0  0  0  0  0
   24.3300   16.2730   13.6060 C   0  0  0  0  0  0  0  0  0  0  0  0
   23.7160   16.1920   14.6520 O   0  0  0  0  0  0  0  0  0  0  0  0
   25.5740   16.8380   13.3700 N   0  0  0  0  0  0  0  0  0  0  0  0
   26.2980   17.6570   14.3370 C   0  0  2  0  0  0  0  0  0  0  0  0
   25.8280   17.4740   15.7790 C   0  0  0  0  0  0  0  0  0  0  0  0
   26.6870   18.3240   16.7010 C   0  0  0  0  0  0  0  0  0  0  0  0
   26.6550   19.7790   16.2940 C   0  0  0  0  0  0  0  0  0  0  0  0
   26.8990   20.6850   17.0850 O   0  0  0  0  0  0  0  0  0  0  0  0
   26.4200   20.0440   14.9680 N   0  0  0  0  0  0  0  0  0  0  0  0
   26.2550   19.1410   13.9420 C   0  0  0  0  0  0  0  0  0  0  0  0
   26.1850   19.5300   12.7760 O   0  0  0  0  0  0  0  0  0  0  0  0
   25.8820   16.9020   11.9480 C   0  0  0  0  0  0  0  0  0  0  0  0
   20.9930   15.2500    6.3600 C   0  0  0  0  0  0  0  0  0  0  0  0
   19.8600   15.9180    6.3140 N   0  0  0  0  0  0  0  0  0  0  0  0
   18.8816   19.2836    8.7111 H   0  0  0  0  0  0  0  0  0  0  0  0
   19.7359   18.9603    7.1643 H   0  0  0  0  0  0  0  0  0  0  0  0
   17.9683   19.2803    7.1643 H   0  0  0  0  0  0  0  0  0  0  0  0
   18.2314   17.1359    8.9223 H   0  0  0  0  0  0  0  0  0  0  0  0
   17.7290   17.0546    7.1769 H   0  0  0  0  0  0  0  0  0  0  0  0
   20.9717   16.4753    9.4103 H   0  0  0  0  0  0  0  0  0  0  0  0
   25.2349   16.0931    9.2284 H   0  0  0  0  0  0  0  0  0  0  0  0
   21.9710   14.8171   12.8382 H   0  0  0  0  0  0  0  0  0  0  0  0
   19.4548   15.2609   10.9818 H   0  0  0  0  0  0  0  0  0  0  0  0
   18.0255   13.1639   10.1705 H   0  0  0  0  0  0  0  0  0  0  0  0
   22.1286   12.1149    9.6578 H   0  0  0  0  0  0  0  0  0  0  0  0
   27.3382   17.3005   14.3067 H   0  0  0  0  0  0  0  0  0  0  0  0
   24.7768   17.7865   15.8650 H   0  0  0  0  0  0  0  0  0  0  0  0
   25.9190   16.4154   16.0639 H   0  0  0  0  0  0  0  0  0  0  0  0
   26.3088   18.2312   17.7298 H   0  0  0  0  0  0  0  0  0  0  0  0
   27.7255   17.9675   16.6347 H   0  0  0  0  0  0  0  0  0  0  0  0
   26.3598   21.0391   14.7091 H   0  0  0  0  0  0  0  0  0  0  0  0
   25.9026   17.9428   11.5926 H   0  0  0  0  0  0  0  0  0  0  0  0
   26.8705   16.4908   11.6954 H   0  0  0  0  0  0  0  0  0  0  0  0
   21.3925   14.6363    5.5392 H   0  0  0  0  0  0  0  0  0  0  0  0
  1  2  1  0
  2  3  1  0
  3  4  2  0
  4  5  1  0
  5  6  1  0
  6  7  2  0
  6  8  2  0
  6  9  1  0
  9 10  2  0
 10 11  1  0
 11 12  2  0
 12 13  1  0
 13 14  2  0
 14 15  1  0
 15 16  1  0
 16 17  2  0
 17 18  1  0
 18 19  1  0
 12 20  1  0
 20 21  2  0
 20 22  1  0
 22 23  1  0
 23 24  1  0
 24 25  1  0
 25 26  1  0
 26 27  2  0
 26 28  1  0
 28 29  1  0
 29 30  2  0
 22 31  1  0
  5 32  1  0
 32 33  2  0
 33  3  1  0
 14  9  1  0
 19 15  2  0
 29 23  1  0
 31 11  1  0
  1 34  1  0
  1 35  1  0
  1 36  1  0
  2 37  1  0
  2 38  1  0
  4 39  1  0
 10 40  1  0
 13 41  1  0
 16 42  1  0
 17 43  1  0
 19 44  1  0
 23 45  1  1
 24 46  1  0
 24 47  1  0
 25 48  1  0
 25 49  1  0
 28 50  1  0
 31 51  1  0
 31 52  1  0
 32 53  1  0
M  END
>  <meeko>  (892) 
{"is_sidechain": [true], "free_energy": -10.42, "intermolecular_energy": 0.0, "internal_energy": -10.42, "cluster_size": 18, "cluster_id": 1, "rank_in_cluster": 1}

>  <_RMSD_MCS_to_ref>  (892) 
0.9594993486188509

$$$$
ligand
     RDKit          3D

 53 57  0  0  0  0  0  0  0  0999 V2000
   18.9090   19.1540    7.5370 C   0  0  0  0  0  0  0  0  0  0  0  0
   18.7730   17.6460    7.6780 C   0  0  0  0  0  0  0  0  0  0  0  0
   20.0460   17.0000    8.0970 C   0  0  0  0  0  0  0  0  0  0  0  0
   20.6720   15.8880    7.5680 C   0  0  0  0  0  0  0  0  0  0  0  0
   21.8060   15.7560    8.3150 N   0  0  0  0  0  0  0  0  0  0  0  0
   23.0400   14.6640    8.0240 S   0  0  0  0  0  6  0  0  0  0  0  0
   23.3770   14.8230    6.6230 O   0  0  0  0  0  0  0  0  0  0  0  0
   22.6410   13.3960    8.6000 O   0  0  0  0  0  0  0  0  0  0  0  0
   24.4760   15.1160    8.8860 C   0  0  0  0  0  0  0  0  0  0  0  0
   25.7310   15.3190    8.2290 C   0  0  0  0  0  0  0  0  0  0  0  0
   26.7290   15.6650    9.1110 C   0  0  0  0  0  0  0  0  0  0  0  0
   26.1610   15.7340   10.7200 S   0  0  0  0  0  0  0  0  0  0  0  0
   24.5630   15.3050   10.2540 C   0  0  0  0  0  0  0  0  0  0  0  0
   23.5510   15.1780   11.2980 C   0  0  0  0  0  0  0  0  0  0  0  0
   22.5350   14.2110   11.1870 C   0  0  0  0  0  0  0  0  0  0  0  0
   21.5200   14.1000   12.1570 C   0  0  0  0  0  0  0  0  0  0  0  0
   21.4960   14.9550   13.2570 C   0  0  0  0  0  0  0  0  0  0  0  0
   22.5040   15.8960   13.3510 C   0  0  0  0  0  0  0  0  0  0  0  0
   23.5260   16.0140   12.4080 C   0  0  0  0  0  0  0  0  0  0  0  0
   24.4570   17.1120   12.8120 C   0  0  0  0  0  0  0  0  0  0  0  0
   23.8290   17.6420   14.0130 N   0  0  0  0  0  0  0  0  0  0  0  0
   24.4540   18.6210   14.8990 C   0  0  1  0  0  0  0  0  0  0  0  0
   25.5120   17.9570   15.7830 C   0  0  0  0  0  0  0  0  0  0  0  0
   26.0530   18.9670   16.7820 C   0  0  0  0  0  0  0  0  0  0  0  0
   26.6020   20.1850   16.0820 C   0  0  0  0  0  0  0  0  0  0  0  0
   27.5560   20.8230   16.5180 O   0  0  0  0  0  0  0  0  0  0  0  0
   25.9590   20.5760   14.9340 N   0  0  0  0  0  0  0  0  0  0  0  0
   25.0720   19.8350   14.1870 C   0  0  0  0  0  0  0  0  0  0  0  0
   24.8010   20.1800   13.0390 O   0  0  0  0  0  0  0  0  0  0  0  0
   22.7170   16.9080   14.3910 C   0  0  0  0  0  0  0  0  0  0  0  0
   22.0550   17.0270   15.4030 O   0  0  0  0  0  0  0  0  0  0  0  0
   21.8460   16.7390    9.2490 C   0  0  0  0  0  0  0  0  0  0  0  0
   20.7910   17.5190    9.1390 N   0  0  0  0  0  0  0  0  0  0  0  0
   18.9504   19.6134    8.5356 H   0  0  0  0  0  0  0  0  0  0  0  0
   19.8320   19.3891    6.9867 H   0  0  0  0  0  0  0  0  0  0  0  0
   18.0430   19.5504    6.9867 H   0  0  0  0  0  0  0  0  0  0  0  0
   18.0018   17.4295    8.4319 H   0  0  0  0  0  0  0  0  0  0  0  0
   18.4982   17.2398    6.6934 H   0  0  0  0  0  0  0  0  0  0  0  0
   20.3336   15.2541    6.7351 H   0  0  0  0  0  0  0  0  0  0  0  0
   25.8806   15.2110    7.1446 H   0  0  0  0  0  0  0  0  0  0  0  0
   27.7680   15.8723    8.8151 H   0  0  0  0  0  0  0  0  0  0  0  0
   22.5334   13.5277   10.3250 H   0  0  0  0  0  0  0  0  0  0  0  0
   20.7401   13.3324   12.0454 H   0  0  0  0  0  0  0  0  0  0  0  0
   20.7067   14.8839   14.0198 H   0  0  0  0  0  0  0  0  0  0  0  0
   25.4612   16.7197   13.0302 H   0  0  0  0  0  0  0  0  0  0  0  0
   24.6041   17.8688   12.0274 H   0  0  0  0  0  0  0  0  0  0  0  0
   23.6270   19.0115   15.5103 H   0  0  0  0  0  0  0  0  0  0  0  0
   25.0588   17.1137   16.3248 H   0  0  0  0  0  0  0  0  0  0  0  0
   26.3359   17.5914   15.1525 H   0  0  0  0  0  0  0  0  0  0  0  0
   25.2403   19.2761   17.4558 H   0  0  0  0  0  0  0  0  0  0  0  0
   26.8680   18.4940   17.3494 H   0  0  0  0  0  0  0  0  0  0  0  0
   26.1624   21.5271   14.5949 H   0  0  0  0  0  0  0  0  0  0  0  0
   22.6464   16.8664    9.9928 H   0  0  0  0  0  0  0  0  0  0  0  0
  1  2  1  0
  2  3  1  0
  3  4  2  0
  4  5  1  0
  5  6  1  0
  6  7  2  0
  6  8  2  0
  6  9  1  0
  9 10  1  0
 10 11  2  0
 11 12  1  0
 12 13  1  0
 13 14  1  0
 14 15  2  0
 15 16  1  0
 16 17  2  0
 17 18  1  0
 18 19  2  0
 19 20  1  0
 20 21  1  0
 21 22  1  0
 22 23  1  0
 23 24  1  0
 24 25  1  0
 25 26  2  0
 25 27  1  0
 27 28  1  0
 28 29  2  0
 21 30  1  0
 30 31  2  0
  5 32  1  0
 32 33  2  0
 33  3  1  0
 13  9  2  0
 19 14  1  0
 28 22  1  0
 30 18  1  0
  1 34  1  0
  1 35  1  0
  1 36  1  0
  2 37  1  0
  2 38  1  0
  4 39  1  0
 10 40  1  0
 11 41  1  0
 15 42  1  0
 16 43  1  0
 17 44  1  0
 20 45  1  0
 20 46  1  0
 22 47  1  1
 23 48  1  0
 23 49  1  0
 24 50  1  0
 24 51  1  0
 27 52  1  0
 32 53  1  0
M  END
>  <meeko>  (893) 
{"is_sidechain": [true], "free_energy": -10.42, "intermolecular_energy": 0.0, "internal_energy": -10.42, "cluster_size": 13, "cluster_id": 1, "rank_in_cluster": 1}

>  <_RMSD_MCS_to_ref>  (893) 
1.671874463655158

$$$$
ligand
     RDKit          3D

 46 49  0  0  0  0  0  0  0  0999 V2000
   18.9090   19.1540    7.5370 C   0  0  0  0  0  0  0  0  0  0  0  0
   18.7730   17.6460    7.6780 C   0  0  0  0  0  0  0  0  0  0  0  0
   20.0830   16.9500    7.5560 C   0  0  0  0  0  0  0  0  0  0  0  0
   20.5980   15.9260    8.3260 C   0  0  0  0  0  0  0  0  0  0  0  0
   21.8150   15.6650    7.7660 N   0  0  0  0  0  0  0  0  0  0  0  0
   23.0040   14.6710    8.4110 S   0  0  0  0  0  6  0  0  0  0  0  0
   24.0060   14.5250    7.3730 O   0  0  0  0  0  0  0  0  0  0  0  0
   22.3130   13.5380    8.9930 O   0  0  0  0  0  0  0  0  0  0  0  0
   23.6980   15.6380    9.7270 C   0  0  0  0  0  0  0  0  0  0  0  0
   24.9560   16.2300    9.5550 C   0  0  0  0  0  0  0  0  0  0  0  0
   25.5010   17.0030   10.5840 C   0  0  0  0  0  0  0  0  0  0  0  0
   24.7820   17.1900   11.7710 C   0  0  0  0  0  0  0  0  0  0  0  0
   25.3300   17.9990   12.8750 C   0  0  0  0  0  0  0  0  0  0  0  0
   26.4390   18.5110   12.7490 O   0  0  0  0  0  0  0  0  0  0  0  0
   24.5230   18.1400   14.0080 N   0  0  0  0  0  0  0  0  0  0  0  0
   25.0850   18.8030   15.1860 C   0  0  1  0  0  0  0  0  0  0  0  0
   26.2160   18.0100   15.8440 C   0  0  0  0  0  0  0  0  0  0  0  0
   26.7130   18.7620   17.0680 C   0  0  0  0  0  0  0  0  0  0  0  0
   27.1600   20.1590   16.7060 C   0  0  0  0  0  0  0  0  0  0  0  0
   28.0370   20.7490   17.3310 O   0  0  0  0  0  0  0  0  0  0  0  0
   26.5010   20.7650   15.6660 N   0  0  0  0  0  0  0  0  0  0  0  0
   25.5910   20.1990   14.7980 C   0  0  0  0  0  0  0  0  0  0  0  0
   25.2000   20.8410   13.8240 O   0  0  0  0  0  0  0  0  0  0  0  0
   23.2840   17.5480   14.1500 N   0  0  0  0  0  0  0  0  0  0  0  0
   22.8210   16.8370   13.1710 C   0  0  0  0  0  0  0  0  0  0  0  0
   23.5320   16.6080   11.9200 C   0  0  0  0  0  0  0  0  0  0  0  0
   22.9700   15.8300   10.9060 C   0  0  0  0  0  0  0  0  0  0  0  0
   22.0260   16.5270    6.7380 C   0  0  0  0  0  0  0  0  0  0  0  0
   20.9870   17.3180    6.5780 N   0  0  0  0  0  0  0  0  0  0  0  0
   18.9504   19.6134    8.5356 H   0  0  0  0  0  0  0  0  0  0  0  0
   19.8320   19.3891    6.9867 H   0  0  0  0  0  0  0  0  0  0  0  0
   18.0430   19.5504    6.9867 H   0  0  0  0  0  0  0  0  0  0  0  0
   18.3421   17.4198    8.6645 H   0  0  0  0  0  0  0  0  0  0  0  0
   18.1232   17.2879    6.8659 H   0  0  0  0  0  0  0  0  0  0  0  0
   20.1335   15.4332    9.1928 H   0  0  0  0  0  0  0  0  0  0  0  0
   25.5112   16.0874    8.6162 H   0  0  0  0  0  0  0  0  0  0  0  0
   26.4925   17.4634   10.4617 H   0  0  0  0  0  0  0  0  0  0  0  0
   24.2756   18.8758   15.9274 H   0  0  0  0  0  0  0  0  0  0  0  0
   25.8426   17.0208   16.1474 H   0  0  0  0  0  0  0  0  0  0  0  0
   27.0422   17.8850   15.1286 H   0  0  0  0  0  0  0  0  0  0  0  0
   25.8991   18.8253   17.8053 H   0  0  0  0  0  0  0  0  0  0  0  0
   27.5730   18.2181   17.4858 H   0  0  0  0  0  0  0  0  0  0  0  0
   26.7112   21.7621   15.5157 H   0  0  0  0  0  0  0  0  0  0  0  0
   21.8289   16.3774   13.2918 H   0  0  0  0  0  0  0  0  0  0  0  0
   21.9753   15.3774   11.0316 H   0  0  0  0  0  0  0  0  0  0  0  0
   22.9385   16.5593    6.1246 H   0  0  0  0  0  0  0  0  0  0  0  0
  1  2  1  0
  2  3  1  0
  3  4  2  0
  4  5  1  0
  5  6  1  0
  6  7  2  0
  6  8  2  0
  6  9  1  0
  9 10  2  0
 10 11  1  0
 11 12  2  0
 12 13  1  0
 13 14  2  0
 13 15  1  0
 15 16  1  0
 16 17  1  0
 17 18  1  0
 18 19  1  0
 19 20  2  0
 19 21  1  0
 21 22  1  0
 22 23  2  0
 15 24  1  0
 24 25  2  0
 25 26  1  0
 26 27  2  0
  5 28  1  0
 28 29  2  0
 29  3  1  0
 27  9  1  0
 26 12  1  0
 22 16  1  0
  1 30  1  0
  1 31  1  0
  1 32  1  0
  2 33  1  0
  2 34  1  0
  4 35  1  0
 10 36  1  0
 11 37  1  0
 16 38  1  1
 17 39  1  0
 17 40  1  0
 18 41  1  0
 18 42  1  0
 21 43  1  0
 25 44  1  0
 27 45  1  0
 28 46  1  0
M  END
>  <meeko>  (894) 
{"is_sidechain": [true], "free_energy": -10.42, "intermolecular_energy": 0.0, "internal_energy": -10.42, "cluster_size": 13, "cluster_id": 1, "rank_in_cluster": 1}

>  <_RMSD_MCS_to_ref>  (894) 
0.707876637086812

$$$$
ligand
     RDKit          3D

 48 51  0  0  0  0  0  0  0  0999 V2000
   18.9090   19.1540    7.5370 C   0  0  0  0  0  0  0  0  0  0  0  0
   18.7730   17.6460    7.6780 C   0  0  0  0  0  0  0  0  0  0  0  0
   20.0910   16.9570    7.6350 C   0  0  0  0  0  0  0  0  0  0  0  0
   20.9320   16.6270    8.6800 C   0  0  0  0  0  0  0  0  0  0  0  0
   21.9860   16.0000    8.0790 N   0  0  0  0  0  0  0  0  0  0  0  0
   23.4610   15.6240    8.8100 S   0  0  0  0  0  6  0  0  0  0  0  0
   23.8690   14.3810    8.1800 O   0  0  0  0  0  0  0  0  0  0  0  0
   24.2560   16.8300    8.6400 O   0  0  0  0  0  0  0  0  0  0  0  0
   23.1130   15.3670   10.5050 C   0  0  0  0  0  0  0  0  0  0  0  0
   23.9830   15.8480   11.4240 C   0  0  0  0  0  0  0  0  0  0  0  0
   23.7320   15.7160   12.8590 C   0  0  0  0  0  0  0  0  0  0  0  0
   24.6530   16.2440   13.9080 C   0  0  0  0  0  0  0  0  0  0  0  0
   25.1800   15.5080   14.7340 O   0  0  0  0  0  0  0  0  0  0  0  0
   24.8910   17.5930   13.8370 N   0  0  0  0  0  0  0  0  0  0  0  0
   25.8920   18.2270   14.6850 C   0  0  2  0  0  0  0  0  0  0  0  0
   25.6610   17.9420   16.1650 C   0  0  0  0  0  0  0  0  0  0  0  0
   26.7120   18.6690   16.9900 C   0  0  0  0  0  0  0  0  0  0  0  0
   26.7150   20.1500   16.6960 C   0  0  0  0  0  0  0  0  0  0  0  0
   26.9750   20.9920   17.5500 O   0  0  0  0  0  0  0  0  0  0  0  0
   26.4430   20.5200   15.4020 N   0  0  0  0  0  0  0  0  0  0  0  0
   25.8340   19.7390   14.4530 C   0  0  0  0  0  0  0  0  0  0  0  0
   25.2880   20.2360   13.4670 O   0  0  0  0  0  0  0  0  0  0  0  0
   22.5830   15.1410   13.2640 C   0  0  0  0  0  0  0  0  0  0  0  0
   21.6990   14.6460   12.3150 N   0  0  0  0  0  0  0  0  0  0  0  0
   20.4940   14.0150   12.4840 C   0  0  0  0  0  0  0  0  0  0  0  0
   19.9590   13.6600   11.3370 N   0  0  0  0  0  0  0  0  0  0  0  0
   20.8450   14.0750   10.3770 C   0  0  0  0  0  0  0  0  0  0  0  0
   21.9240   14.7150   10.9470 C   0  0  0  0  0  0  0  0  0  0  0  0
   21.7960   16.0080    6.7330 C   0  0  0  0  0  0  0  0  0  0  0  0
   20.6470   16.5730    6.4310 N   0  0  0  0  0  0  0  0  0  0  0  0
   18.9504   19.6134    8.5356 H   0  0  0  0  0  0  0  0  0  0  0  0
   19.8320   19.3891    6.9867 H   0  0  0  0  0  0  0  0  0  0  0  0
   18.0430   19.5504    6.9867 H   0  0  0  0  0  0  0  0  0  0  0  0
   18.2874   17.4223    8.6393 H   0  0  0  0  0  0  0  0  0  0  0  0
   18.1727   17.2802    6.8319 H   0  0  0  0  0  0  0  0  0  0  0  0
   20.7860   16.8243    9.7523 H   0  0  0  0  0  0  0  0  0  0  0  0
   24.9006   16.3501   11.0834 H   0  0  0  0  0  0  0  0  0  0  0  0
   24.3529   18.1677   13.1728 H   0  0  0  0  0  0  0  0  0  0  0  0
   26.8769   17.8160   14.4186 H   0  0  0  0  0  0  0  0  0  0  0  0
   24.6597   18.2935   16.4544 H   0  0  0  0  0  0  0  0  0  0  0  0
   25.7356   16.8597   16.3466 H   0  0  0  0  0  0  0  0  0  0  0  0
   26.4973   18.5165   18.0580 H   0  0  0  0  0  0  0  0  0  0  0  0
   27.7000   18.2620   16.7287 H   0  0  0  0  0  0  0  0  0  0  0  0
   26.7215   21.4702   15.1182 H   0  0  0  0  0  0  0  0  0  0  0  0
   22.3477   15.0645   14.3358 H   0  0  0  0  0  0  0  0  0  0  0  0
   20.0297   13.8278   13.4635 H   0  0  0  0  0  0  0  0  0  0  0  0
   20.7124   13.9181    9.2963 H   0  0  0  0  0  0  0  0  0  0  0  0
   22.5048   15.5987    5.9981 H   0  0  0  0  0  0  0  0  0  0  0  0
  1  2  1  0
  2  3  1  0
  3  4  2  0
  4  5  1  0
  5  6  1  0
  6  7  2  0
  6  8  2  0
  6  9  1  0
  9 10  2  0
 10 11  1  0
 11 12  1  0
 12 13  2  0
 12 14  1  0
 14 15  1  0
 15 16  1  0
 16 17  1  0
 17 18  1  0
 18 19  2  0
 18 20  1  0
 20 21  1  0
 21 22  2  0
 11 23  2  0
 23 24  1  0
 24 25  1  0
 25 26  2  0
 26 27  1  0
 27 28  2  0
  5 29  1  0
 29 30  2  0
 30  3  1  0
 28  9  1  0
 21 15  1  0
 28 24  1  0
  1 31  1  0
  1 32  1  0
  1 33  1  0
  2 34  1  0
  2 35  1  0
  4 36  1  0
 10 37  1  0
 14 38  1  0
 15 39  1  6
 16 40  1  0
 16 41  1  0
 17 42  1  0
 17 43  1  0
 20 44  1  0
 23 45  1  0
 25 46  1  0
 27 47  1  0
 29 48  1  0
M  END
>  <meeko>  (895) 
{"is_sidechain": [true], "free_energy": -10.42, "intermolecular_energy": 0.0, "internal_energy": -10.42, "cluster_size": 19, "cluster_id": 1, "rank_in_cluster": 1}

>  <_RMSD_MCS_to_ref>  (895) 
0.6236513449035445

$$$$
ligand
     RDKit          3D

 51 54  0  0  0  0  0  0  0  0999 V2000
   18.9090   19.1540    7.5370 C   0  0  0  0  0  0  0  0  0  0  0  0
   18.7730   17.6460    7.6780 C   0  0  0  0  0  0  0  0  0  0  0  0
   20.0920   16.9580    7.6330 C   0  0  0  0  0  0  0  0  0  0  0  0
   21.0000   16.7500    8.6530 C   0  0  0  0  0  0  0  0  0  0  0  0
   22.0260   16.0780    8.0530 N   0  0  0  0  0  0  0  0  0  0  0  0
   23.4800   15.6620    8.7840 S   0  0  0  0  0  6  0  0  0  0  0  0
   23.8030   14.3630    8.2210 O   0  0  0  0  0  0  0  0  0  0  0  0
   24.3670   16.7990    8.6510 O   0  0  0  0  0  0  0  0  0  0  0  0
   23.1290   15.4220   10.5030 C   0  0  0  0  0  0  0  0  0  0  0  0
   24.0350   15.9530   11.4370 C   0  0  0  0  0  0  0  0  0  0  0  0
   23.8040   15.7840   12.8060 C   0  0  0  0  0  0  0  0  0  0  0  0
   24.7230   16.3330   13.8410 C   0  0  0  0  0  0  0  0  0  0  0  0
   25.2330   15.5840   14.6660 O   0  0  0  0  0  0  0  0  0  0  0  0
   24.9830   17.6820   13.7900 N   0  0  0  0  0  0  0  0  0  0  0  0
   25.9750   18.2890   14.6690 C   0  0  2  0  0  0  0  0  0  0  0  0
   25.6810   18.0210   16.1410 C   0  0  0  0  0  0  0  0  0  0  0  0
   26.7260   18.7150   17.0010 C   0  0  0  0  0  0  0  0  0  0  0  0
   26.7920   20.1940   16.7010 C   0  0  0  0  0  0  0  0  0  0  0  0
   27.0580   21.0290   17.5580 O   0  0  0  0  0  0  0  0  0  0  0  0
   26.5720   20.5680   15.3990 N   0  0  0  0  0  0  0  0  0  0  0  0
   25.9810   19.8010   14.4250 C   0  0  0  0  0  0  0  0  0  0  0  0
   25.5010   20.3100   13.4130 O   0  0  0  0  0  0  0  0  0  0  0  0
   22.6560   15.1070   13.2340 C   0  0  0  0  0  0  0  0  0  0  0  0
   21.7620   14.5830   12.2980 C   0  0  0  0  0  0  0  0  0  0  0  0
   21.9890   14.7330   10.9260 C   0  0  0  0  0  0  0  0  0  0  0  0
   21.1030   14.2950    9.9880 O   0  0  0  0  0  0  0  0  0  0  0  0
   20.1410   13.3480   10.4330 C   0  0  0  0  0  0  0  0  0  0  0  0
   19.7330   13.3320   11.9040 C   0  0  0  0  0  0  0  0  0  0  0  0
   18.7190   12.7790   12.3170 O   0  0  0  0  0  0  0  0  0  0  0  0
   20.6190   13.9280   12.7560 N   0  0  0  0  0  0  0  0  0  0  0  0
   21.7340   15.8920    6.7400 C   0  0  0  0  0  0  0  0  0  0  0  0
   20.5660   16.4280    6.4480 N   0  0  0  0  0  0  0  0  0  0  0  0
   18.9504   19.6134    8.5356 H   0  0  0  0  0  0  0  0  0  0  0  0
   19.8320   19.3891    6.9867 H   0  0  0  0  0  0  0  0  0  0  0  0
   18.0430   19.5504    6.9867 H   0  0  0  0  0  0  0  0  0  0  0  0
   18.2888   17.4220    8.6400 H   0  0  0  0  0  0  0  0  0  0  0  0
   18.1711   17.2798    6.8332 H   0  0  0  0  0  0  0  0  0  0  0  0
   20.9158   17.0555    9.7064 H   0  0  0  0  0  0  0  0  0  0  0  0
   24.9244   16.5006   11.0919 H   0  0  0  0  0  0  0  0  0  0  0  0
   24.4692   18.2727   13.1207 H   0  0  0  0  0  0  0  0  0  0  0  0
   26.9545   17.8439   14.4402 H   0  0  0  0  0  0  0  0  0  0  0  0
   24.6828   18.4091   16.3922 H   0  0  0  0  0  0  0  0  0  0  0  0
   25.7113   16.9377   16.3297 H   0  0  0  0  0  0  0  0  0  0  0  0
   26.4671   18.5759   18.0610 H   0  0  0  0  0  0  0  0  0  0  0  0
   27.7079   18.2721   16.7780 H   0  0  0  0  0  0  0  0  0  0  0  0
   26.8790   21.5127   15.1267 H   0  0  0  0  0  0  0  0  0  0  0  0
   22.4578   14.9876   14.3094 H   0  0  0  0  0  0  0  0  0  0  0  0
   19.2257   13.5214    9.8480 H   0  0  0  0  0  0  0  0  0  0  0  0
   20.6439   12.3799   10.2917 H   0  0  0  0  0  0  0  0  0  0  0  0
   20.4371   13.8925   13.7692 H   0  0  0  0  0  0  0  0  0  0  0  0
   22.3811   15.3678    6.0214 H   0  0  0  0  0  0  0  0  0  0  0  0
  1  2  1  0
  2  3  1  0
  3  4  2  0
  4  5  1  0
  5  6  1  0
  6  7  2  0
  6  8  2  0
  6  9  1  0
  9 10  2  0
 10 11  1  0
 11 12  1  0
 12 13  2  0
 12 14  1  0
 14 15  1  0
 15 16  1  0
 16 17  1  0
 17 18  1  0
 18 19  2  0
 18 20  1  0
 20 21  1  0
 21 22  2  0
 11 23  2  0
 23 24  1  0
 24 25  2  0
 25 26  1  0
 26 27  1  0
 27 28  1  0
 28 29  2  0
 28 30  1  0
  5 31  1  0
 31 32  2  0
 32  3  1  0
 25  9  1  0
 21 15  1  0
 30 24  1  0
  1 33  1  0
  1 34  1  0
  1 35  1  0
  2 36  1  0
  2 37  1  0
  4 38  1  0
 10 39  1  0
 14 40  1  0
 15 41  1  6
 16 42  1  0
 16 43  1  0
 17 44  1  0
 17 45  1  0
 20 46  1  0
 23 47  1  0
 27 48  1  0
 27 49  1  0
 30 50  1  0
 31 51  1  0
M  END
>  <meeko>  (896) 
{"is_sidechain": [true], "free_energy": -10.42, "intermolecular_energy": 0.0, "internal_energy": -10.42, "cluster_size": 19, "cluster_id": 1, "rank_in_cluster": 1}

>  <_RMSD_MCS_to_ref>  (896) 
0.7040356682883493

$$$$
ligand
     RDKit          3D

 55 59  0  0  0  0  0  0  0  0999 V2000
   18.9090   19.1540    7.5370 C   0  0  0  0  0  0  0  0  0  0  0  0
   18.7730   17.6460    7.6780 C   0  0  0  0  0  0  0  0  0  0  0  0
   20.0380   16.9340    7.3530 C   0  0  0  0  0  0  0  0  0  0  0  0
   20.9400   16.3310    8.2070 C   0  0  0  0  0  0  0  0  0  0  0  0
   21.9210   15.8600    7.3820 N   0  0  0  0  0  0  0  0  0  0  0  0
   23.1810   14.8430    7.8320 S   0  0  0  0  0  6  0  0  0  0  0  0
   22.7400   13.4990    7.5100 O   0  0  0  0  0  0  0  0  0  0  0  0
   24.3800   15.4240    7.2610 O   0  0  0  0  0  0  0  0  0  0  0  0
   23.2400   15.0170    9.5950 C   0  0  0  0  0  0  0  0  0  0  0  0
   23.0820   16.2910   10.1690 C   0  0  0  0  0  0  0  0  0  0  0  0
   23.1430   16.4480   11.5560 C   0  0  0  0  0  0  0  0  0  0  0  0
   23.3440   15.3220   12.3440 C   0  0  0  0  0  0  0  0  0  0  0  0
   23.4780   14.0530   11.7620 C   0  0  0  0  0  0  0  0  0  0  0  0
   23.4330   13.8810   10.3890 C   0  0  0  0  0  0  0  0  0  0  0  0
   23.7110   13.0010   12.8020 C   0  0  0  0  0  0  0  0  0  0  0  0
   23.2280   13.7180   14.0720 C   0  0  0  0  0  0  0  0  0  0  0  0
   23.4780   15.2240   13.8470 C   0  0  2  0  0  0  0  0  0  0  0  0
   22.5470   16.1220   14.6520 C   0  0  0  0  0  0  0  0  0  0  0  0
   23.4400   17.2510   15.0810 C   0  0  0  0  0  0  0  0  0  0  0  0
   23.0430   18.2830   15.6000 O   0  0  0  0  0  0  0  0  0  0  0  0
   24.7420   16.9170   14.8420 N   0  0  0  0  0  0  0  0  0  0  0  0
   25.8520   17.6730   15.4070 C   0  0  2  0  0  0  0  0  0  0  0  0
   25.7660   17.8890   16.9160 C   0  0  0  0  0  0  0  0  0  0  0  0
   26.9910   18.6620   17.3810 C   0  0  0  0  0  0  0  0  0  0  0  0
   27.1290   19.9710   16.6380 C   0  0  0  0  0  0  0  0  0  0  0  0
   27.6710   20.9530   17.1350 O   0  0  0  0  0  0  0  0  0  0  0  0
   26.6650   19.9980   15.3460 N   0  0  0  0  0  0  0  0  0  0  0  0
   25.9590   19.0200   14.6840 C   0  0  0  0  0  0  0  0  0  0  0  0
   25.5020   19.2270   13.5610 O   0  0  0  0  0  0  0  0  0  0  0  0
   24.8540   15.6610   14.3110 C   0  0  0  0  0  0  0  0  0  0  0  0
   25.8820   15.0060   14.2160 O   0  0  0  0  0  0  0  0  0  0  0  0
   21.5860   16.1300    6.0950 C   0  0  0  0  0  0  0  0  0  0  0  0
   20.4490   16.7930    6.0420 N   0  0  0  0  0  0  0  0  0  0  0  0
   18.9504   19.6134    8.5356 H   0  0  0  0  0  0  0  0  0  0  0  0
   19.8320   19.3891    6.9867 H   0  0  0  0  0  0  0  0  0  0  0  0
   18.0430   19.5504    6.9867 H   0  0  0  0  0  0  0  0  0  0  0  0
   18.4910   17.4113    8.7150 H   0  0  0  0  0  0  0  0  0  0  0  0
   18.0040   17.3088    6.9674 H   0  0  0  0  0  0  0  0  0  0  0  0
   20.8817   16.2488    9.3024 H   0  0  0  0  0  0  0  0  0  0  0  0
   22.9100   17.1658    9.5247 H   0  0  0  0  0  0  0  0  0  0  0  0
   23.0342   17.4421   12.0141 H   0  0  0  0  0  0  0  0  0  0  0  0
   23.5452   12.8844    9.9372 H   0  0  0  0  0  0  0  0  0  0  0  0
   23.1176   12.0971   12.5999 H   0  0  0  0  0  0  0  0  0  0  0  0
   24.7499   12.6434   12.8550 H   0  0  0  0  0  0  0  0  0  0  0  0
   22.1557   13.5302   14.2299 H   0  0  0  0  0  0  0  0  0  0  0  0
   23.7630   13.3546   14.9618 H   0  0  0  0  0  0  0  0  0  0  0  0
   21.7186   16.4900   14.0289 H   0  0  0  0  0  0  0  0  0  0  0  0
   22.0738   15.6025   15.4983 H   0  0  0  0  0  0  0  0  0  0  0  0
   26.7566   17.0668   15.2513 H   0  0  0  0  0  0  0  0  0  0  0  0
   24.8574   18.4612   17.1546 H   0  0  0  0  0  0  0  0  0  0  0  0
   25.7270   16.9157   17.4271 H   0  0  0  0  0  0  0  0  0  0  0  0
   26.8968   18.8690   18.4572 H   0  0  0  0  0  0  0  0  0  0  0  0
   27.8838   18.0521   17.1787 H   0  0  0  0  0  0  0  0  0  0  0  0
   26.8699   20.8522   14.8082 H   0  0  0  0  0  0  0  0  0  0  0  0
   22.1812   15.8361    5.2179 H   0  0  0  0  0  0  0  0  0  0  0  0
  1  2  1  0
  2  3  1  0
  3  4  2  0
  4  5  1  0
  5  6  1  0
  6  7  2  0
  6  8  2  0
  6  9  1  0
  9 10  2  0
 10 11  1  0
 11 12  2  0
 12 13  1  0
 13 14  2  0
 13 15  1  0
 15 16  1  0
 17 16  1  1
 17 18  1  0
 18 19  1  0
 19 20  2  0
 19 21  1  0
 21 22  1  0
 22 23  1  0
 23 24  1  0
 24 25  1  0
 25 26  2  0
 25 27  1  0
 27 28  1  0
 28 29  2  0
 21 30  1  0
 30 31  2  0
  5 32  1  0
 32 33  2  0
 33  3  1  0
 14  9  1  0
 30 17  1  0
 17 12  1  0
 28 22  1  0
  1 34  1  0
  1 35  1  0
  1 36  1  0
  2 37  1  0
  2 38  1  0
  4 39  1  0
 10 40  1  0
 11 41  1  0
 14 42  1  0
 15 43  1  0
 15 44  1  0
 16 45  1  0
 16 46  1  0
 18 47  1  0
 18 48  1  0
 22 49  1  1
 23 50  1  0
 23 51  1  0
 24 52  1  0
 24 53  1  0
 27 54  1  0
 32 55  1  0
M  END
>  <meeko>  (897) 
{"is_sidechain": [true], "free_energy": -10.42, "intermolecular_energy": 0.0, "internal_energy": -10.42, "cluster_size": 16, "cluster_id": 1, "rank_in_cluster": 1}

>  <_RMSD_MCS_to_ref>  (897) 
1.997382904369281

$$$$
ligand
     RDKit          3D

 53 57  0  0  0  0  0  0  0  0999 V2000
   18.8250   19.0170    7.5350 C   0  0  0  0  0  0  0  0  0  0  0  0
   18.5200   17.5420    7.7330 C   0  0  0  0  0  0  0  0  0  0  0  0
   19.6190   16.6690    7.2360 C   0  0  0  0  0  0  0  0  0  0  0  0
   20.7230   16.1990    7.9190 C   0  0  0  0  0  0  0  0  0  0  0  0
   21.3870   15.4420    7.0010 N   0  0  0  0  0  0  0  0  0  0  0  0
   22.6870   14.4350    7.2980 S   0  0  0  0  0  6  0  0  0  0  0  0
   22.2600   13.5060    8.3260 O   0  0  0  0  0  0  0  0  0  0  0  0
   23.2030   14.0000    6.0180 O   0  0  0  0  0  0  0  0  0  0  0  0
   24.0140   15.3100    8.0340 C   0  0  0  0  0  0  0  0  0  0  0  0
   25.0800   15.6480    7.2420 N   0  0  0  0  0  0  0  0  0  0  0  0
   26.0550   16.3100    7.8850 N   0  0  0  0  0  0  0  0  0  0  0  0
   25.6030   16.3980    9.1360 C   0  0  0  0  0  0  0  0  0  0  0  0
   24.3310   15.8070    9.2860 C   0  0  0  0  0  0  0  0  0  0  0  0
   23.5250   15.6720   10.4720 C   0  0  0  0  0  0  0  0  0  0  0  0
   22.2560   15.0720   10.3870 C   0  0  0  0  0  0  0  0  0  0  0  0
   21.4390   14.9330   11.5250 C   0  0  0  0  0  0  0  0  0  0  0  0
   21.8800   15.3810   12.7690 C   0  0  0  0  0  0  0  0  0  0  0  0
   23.1370   15.9520   12.8290 C   0  0  0  0  0  0  0  0  0  0  0  0
   23.9610   16.1050   11.7130 C   0  0  0  0  0  0  0  0  0  0  0  0
   25.2320   16.7760   12.1190 C   0  0  0  0  0  0  0  0  0  0  0  0
   25.0810   16.9140   13.5610 N   0  0  0  0  0  0  0  0  0  0  0  0
   25.9650   17.7830   14.3320 C   0  0  2  0  0  0  0  0  0  0  0  0
   25.8070   17.6360   15.8440 C   0  0  0  0  0  0  0  0  0  0  0  0
   26.8130   18.5360   16.5440 C   0  0  0  0  0  0  0  0  0  0  0  0
   26.6560   19.9760   16.1110 C   0  0  0  0  0  0  0  0  0  0  0  0
   27.0030   20.9140   16.8230 O   0  0  0  0  0  0  0  0  0  0  0  0
   26.1740   20.1900   14.8440 N   0  0  0  0  0  0  0  0  0  0  0  0
   25.7880   19.2520   13.9140 C   0  0  0  0  0  0  0  0  0  0  0  0
   25.4100   19.6010   12.7960 O   0  0  0  0  0  0  0  0  0  0  0  0
   23.8250   16.5170   13.9930 C   0  0  0  0  0  0  0  0  0  0  0  0
   23.3350   16.6290   15.0990 O   0  0  0  0  0  0  0  0  0  0  0  0
   20.7010   15.4560    5.8300 C   0  0  0  0  0  0  0  0  0  0  0  0
   19.6180   16.1970    5.9380 N   0  0  0  0  0  0  0  0  0  0  0  0
   18.9260   19.5054    8.5155 H   0  0  0  0  0  0  0  0  0  0  0  0
   19.7645   19.1250    6.9731 H   0  0  0  0  0  0  0  0  0  0  0  0
   18.0054   19.4887    6.9731 H   0  0  0  0  0  0  0  0  0  0  0  0
   18.3740   17.3514    8.8065 H   0  0  0  0  0  0  0  0  0  0  0  0
   17.6132   17.3043    7.1574 H   0  0  0  0  0  0  0  0  0  0  0  0
   21.0027   16.3916    8.9653 H   0  0  0  0  0  0  0  0  0  0  0  0
   25.1290   15.4144    6.2400 H   0  0  0  0  0  0  0  0  0  0  0  0
   26.1579   16.8763    9.9566 H   0  0  0  0  0  0  0  0  0  0  0  0
   21.8956   14.7050    9.4147 H   0  0  0  0  0  0  0  0  0  0  0  0
   20.4465   14.4680   11.4319 H   0  0  0  0  0  0  0  0  0  0  0  0
   21.2525   15.2839   13.6672 H   0  0  0  0  0  0  0  0  0  0  0  0
   26.1047   16.1543   11.8702 H   0  0  0  0  0  0  0  0  0  0  0  0
   25.4002   17.7345   11.6062 H   0  0  0  0  0  0  0  0  0  0  0  0
   26.9882   17.4553   14.0962 H   0  0  0  0  0  0  0  0  0  0  0  0
   24.7874   17.9269   16.1370 H   0  0  0  0  0  0  0  0  0  0  0  0
   25.9847   16.5897   16.1332 H   0  0  0  0  0  0  0  0  0  0  0  0
   26.6577   18.4697   17.6310 H   0  0  0  0  0  0  0  0  0  0  0  0
   27.8254   18.2007   16.2745 H   0  0  0  0  0  0  0  0  0  0  0  0
   26.0909   21.1746   14.5532 H   0  0  0  0  0  0  0  0  0  0  0  0
   21.0071   14.9227    4.9179 H   0  0  0  0  0  0  0  0  0  0  0  0
  1  2  1  0
  2  3  1  0
  3  4  2  0
  4  5  1  0
  5  6  1  0
  6  7  2  0
  6  8  2  0
  6  9  1  0
  9 10  1  0
 10 11  1  0
 11 12  2  0
 12 13  1  0
 13 14  1  0
 14 15  2  0
 15 16  1  0
 16 17  2  0
 17 18  1  0
 18 19  2  0
 19 20  1  0
 20 21  1  0
 21 22  1  0
 22 23  1  0
 23 24  1  0
 24 25  1  0
 25 26  2  0
 25 27  1  0
 27 28  1  0
 28 29  2  0
 21 30  1  0
 30 31  2  0
  5 32  1  0
 32 33  2  0
 33  3  1  0
 13  9  2  0
 19 14  1  0
 28 22  1  0
 30 18  1  0
  1 34  1  0
  1 35  1  0
  1 36  1  0
  2 37  1  0
  2 38  1  0
  4 39  1  0
 10 40  1  0
 12 41  1  0
 15 42  1  0
 16 43  1  0
 17 44  1  0
 20 45  1  0
 20 46  1  0
 22 47  1  1
 23 48  1  0
 23 49  1  0
 24 50  1  0
 24 51  1  0
 27 52  1  0
 32 53  1  0
M  END
>  <meeko>  (898) 
{"is_sidechain": [true], "free_energy": -10.41, "intermolecular_energy": 0.0, "internal_energy": -10.41, "cluster_size": 13, "cluster_id": 1, "rank_in_cluster": 1}

>  <_RMSD_MCS_to_ref>  (898) 
0.937197743867916

$$$$
ligand
     RDKit          3D

 52 56  0  0  0  0  0  0  0  0999 V2000
   18.7970   18.8170    7.7190 C   0  0  0  0  0  0  0  0  0  0  0  0
   18.5280   17.3290    7.8810 C   0  0  0  0  0  0  0  0  0  0  0  0
   19.4360   16.5000    7.0440 C   0  0  0  0  0  0  0  0  0  0  0  0
   19.9670   15.2530    7.3130 C   0  0  0  0  0  0  0  0  0  0  0  0
   20.7030   14.9550    6.2020 N   0  0  0  0  0  0  0  0  0  0  0  0
   21.7510   13.6550    6.0310 S   0  0  0  0  0  6  0  0  0  0  0  0
   20.9120   12.4720    5.9800 O   0  0  0  0  0  0  0  0  0  0  0  0
   22.6600   14.0220    4.9600 O   0  0  0  0  0  0  0  0  0  0  0  0
   22.7080   13.5530    7.5050 C   0  0  0  0  0  0  0  0  0  0  0  0
   22.6130   14.3670    8.5370 N   0  0  0  0  0  0  0  0  0  0  0  0
   23.5240   13.9900    9.5160 C   0  0  0  0  0  0  0  0  0  0  0  0
   23.6160   14.7410   10.7700 C   0  0  0  0  0  0  0  0  0  0  0  0
   22.4710   15.0720   11.5350 C   0  0  0  0  0  0  0  0  0  0  0  0
   22.5790   15.7950   12.7290 C   0  0  0  0  0  0  0  0  0  0  0  0
   23.8430   16.1740   13.1330 C   0  0  0  0  0  0  0  0  0  0  0  0
   24.9850   15.8720   12.4020 C   0  0  0  0  0  0  0  0  0  0  0  0
   24.8860   15.1590   11.2180 C   0  0  0  0  0  0  0  0  0  0  0  0
   26.1880   16.4400   13.0750 C   0  0  0  0  0  0  0  0  0  0  0  0
   25.6350   16.9880   14.3070 N   0  0  0  0  0  0  0  0  0  0  0  0
   26.4340   17.8410   15.1800 C   0  0  2  0  0  0  0  0  0  0  0  0
   25.9820   17.8220   16.6400 C   0  0  0  0  0  0  0  0  0  0  0  0
   26.9140   18.6910   17.4680 C   0  0  0  0  0  0  0  0  0  0  0  0
   26.9700   20.1020   16.9300 C   0  0  0  0  0  0  0  0  0  0  0  0
   27.2910   21.0570   17.6320 O   0  0  0  0  0  0  0  0  0  0  0  0
   26.7240   20.2620   15.5900 N   0  0  0  0  0  0  0  0  0  0  0  0
   26.4860   19.2830   14.6510 C   0  0  0  0  0  0  0  0  0  0  0  0
   26.4300   19.5710   13.4550 O   0  0  0  0  0  0  0  0  0  0  0  0
   24.2490   16.9340   14.3210 C   0  0  0  0  0  0  0  0  0  0  0  0
   23.4790   17.4190   15.1270 O   0  0  0  0  0  0  0  0  0  0  0  0
   24.3000   12.8950    9.1810 C   0  0  0  0  0  0  0  0  0  0  0  0
   23.8740   12.3160    7.6180 S   0  0  0  0  0  0  0  0  0  0  0  0
   20.6600   16.0090    5.3450 C   0  0  0  0  0  0  0  0  0  0  0  0
   19.8810   16.9580    5.8190 N   0  0  0  0  0  0  0  0  0  0  0  0
   18.8815   19.2845    8.7111 H   0  0  0  0  0  0  0  0  0  0  0  0
   19.7359   18.9616    7.1643 H   0  0  0  0  0  0  0  0  0  0  0  0
   17.9682   19.2812    7.1643 H   0  0  0  0  0  0  0  0  0  0  0  0
   18.6715   17.0559    8.9368 H   0  0  0  0  0  0  0  0  0  0  0  0
   17.4958   17.1347    7.5542 H   0  0  0  0  0  0  0  0  0  0  0  0
   19.8285   14.6402    8.2159 H   0  0  0  0  0  0  0  0  0  0  0  0
   21.4778   14.7549   11.1843 H   0  0  0  0  0  0  0  0  0  0  0  0
   21.6894   16.0514   13.3230 H   0  0  0  0  0  0  0  0  0  0  0  0
   25.7877   14.9218   10.6343 H   0  0  0  0  0  0  0  0  0  0  0  0
   26.9309   15.6570   13.2872 H   0  0  0  0  0  0  0  0  0  0  0  0
   26.7193   17.1853   12.4648 H   0  0  0  0  0  0  0  0  0  0  0  0
   27.4476   17.4139   15.1643 H   0  0  0  0  0  0  0  0  0  0  0  0
   24.9560   18.2122   16.7117 H   0  0  0  0  0  0  0  0  0  0  0  0
   26.0080   16.7898   17.0194 H   0  0  0  0  0  0  0  0  0  0  0  0
   26.5516   18.7173   18.5063 H   0  0  0  0  0  0  0  0  0  0  0  0
   27.9250   18.2603   17.4200 H   0  0  0  0  0  0  0  0  0  0  0  0
   26.7164   21.2321   15.2441 H   0  0  0  0  0  0  0  0  0  0  0  0
   25.0786   12.4568    9.8226 H   0  0  0  0  0  0  0  0  0  0  0  0
   21.2009   16.0615    4.3886 H   0  0  0  0  0  0  0  0  0  0  0  0
  1  2  1  0
  2  3  1  0
  3  4  2  0
  4  5  1  0
  5  6  1  0
  6  7  2  0
  6  8  2  0
  6  9  1  0
  9 10  2  0
 10 11  1  0
 11 12  1  0
 12 13  2  0
 13 14  1  0
 14 15  2  0
 15 16  1  0
 16 17  2  0
 16 18  1  0
 18 19  1  0
 19 20  1  0
 20 21  1  0
 21 22  1  0
 22 23  1  0
 23 24  2  0
 23 25  1  0
 25 26  1  0
 26 27  2  0
 19 28  1  0
 28 29  2  0
 11 30  2  0
 30 31  1  0
  5 32  1  0
 32 33  2  0
 33  3  1  0
 31  9  1  0
 17 12  1  0
 26 20  1  0
 28 15  1  0
  1 34  1  0
  1 35  1  0
  1 36  1  0
  2 37  1  0
  2 38  1  0
  4 39  1  0
 13 40  1  0
 14 41  1  0
 17 42  1  0
 18 43  1  0
 18 44  1  0
 20 45  1  1
 21 46  1  0
 21 47  1  0
 22 48  1  0
 22 49  1  0
 25 50  1  0
 30 51  1  0
 32 52  1  0
M  END
>  <meeko>  (899) 
{"is_sidechain": [true], "free_energy": -10.41, "intermolecular_energy": 0.0, "internal_energy": -10.41, "cluster_size": 13, "cluster_id": 1, "rank_in_cluster": 1}

>  <_RMSD_MCS_to_ref>  (899) 
1.0447892929517733

$$$$
ligand
     RDKit          3D

 45 48  0  0  0  0  0  0  0  0999 V2000
   18.7970   18.8170    7.7190 C   0  0  0  0  0  0  0  0  0  0  0  0
   18.5280   17.3290    7.8810 C   0  0  0  0  0  0  0  0  0  0  0  0
   19.7560   16.5120    7.6830 C   0  0  0  0  0  0  0  0  0  0  0  0
   20.2230   15.4460    8.4270 C   0  0  0  0  0  0  0  0  0  0  0  0
   21.3990   15.1050    7.8230 N   0  0  0  0  0  0  0  0  0  0  0  0
   22.2970   13.7150    8.1370 S   0  0  0  0  0  6  0  0  0  0  0  0
   22.8390   13.3180    6.8520 O   0  0  0  0  0  0  0  0  0  0  0  0
   21.4060   12.8510    8.8870 O   0  0  0  0  0  0  0  0  0  0  0  0
   23.5240   14.1750    9.1070 O   0  0  0  0  0  0  0  0  0  0  0  0
   23.3080   14.7410   10.3370 C   0  0  0  0  0  0  0  0  0  0  0  0
   22.2140   14.4860   11.1850 C   0  0  0  0  0  0  0  0  0  0  0  0
   22.0360   15.0670   12.4030 N   0  0  0  0  0  0  0  0  0  0  0  0
   23.0100   15.9230   12.7530 C   0  0  0  0  0  0  0  0  0  0  0  0
   24.1080   16.2340   11.9920 C   0  0  0  0  0  0  0  0  0  0  0  0
   24.2880   15.6460   10.7590 C   0  0  0  0  0  0  0  0  0  0  0  0
   24.9030   17.1970   12.7380 C   0  0  0  0  0  0  0  0  0  0  0  0
   25.9600   17.6500   12.3430 O   0  0  0  0  0  0  0  0  0  0  0  0
   24.2320   17.4570   13.9020 N   0  0  0  0  0  0  0  0  0  0  0  0
   24.8070   18.2480   14.9800 C   0  0  1  0  0  0  0  0  0  0  0  0
   25.9800   17.5860   15.6980 C   0  0  0  0  0  0  0  0  0  0  0  0
   26.4610   18.5000   16.8160 C   0  0  0  0  0  0  0  0  0  0  0  0
   26.8320   19.8670   16.2880 C   0  0  0  0  0  0  0  0  0  0  0  0
   27.6590   20.5820   16.8450 O   0  0  0  0  0  0  0  0  0  0  0  0
   26.1490   20.3050   15.1800 N   0  0  0  0  0  0  0  0  0  0  0  0
   25.2290   19.6130   14.4260 C   0  0  0  0  0  0  0  0  0  0  0  0
   24.7470   20.1130   13.4100 O   0  0  0  0  0  0  0  0  0  0  0  0
   23.1020   16.6840   14.0080 C   0  0  0  0  0  0  0  0  0  0  0  0
   22.3370   16.6050   14.9510 O   0  0  0  0  0  0  0  0  0  0  0  0
   21.5760   15.8810    6.7230 C   0  0  0  0  0  0  0  0  0  0  0  0
   20.6050   16.7640    6.6220 N   0  0  0  0  0  0  0  0  0  0  0  0
   18.8815   19.2845    8.7111 H   0  0  0  0  0  0  0  0  0  0  0  0
   19.7359   18.9616    7.1643 H   0  0  0  0  0  0  0  0  0  0  0  0
   17.9682   19.2812    7.1643 H   0  0  0  0  0  0  0  0  0  0  0  0
   18.1408   17.1471    8.8944 H   0  0  0  0  0  0  0  0  0  0  0  0
   17.7971   17.0321    7.1145 H   0  0  0  0  0  0  0  0  0  0  0  0
   19.7544   14.9785    9.3056 H   0  0  0  0  0  0  0  0  0  0  0  0
   21.4529   13.7702   10.8409 H   0  0  0  0  0  0  0  0  0  0  0  0
   25.1632   15.8778   10.1342 H   0  0  0  0  0  0  0  0  0  0  0  0
   24.0225   18.3525   15.7439 H   0  0  0  0  0  0  0  0  0  0  0  0
   25.6564   16.6241   16.1224 H   0  0  0  0  0  0  0  0  0  0  0  0
   26.7991   17.4107   14.9850 H   0  0  0  0  0  0  0  0  0  0  0  0
   25.6580   18.6092   17.5598 H   0  0  0  0  0  0  0  0  0  0  0  0
   27.3554   18.0497   17.2714 H   0  0  0  0  0  0  0  0  0  0  0  0
   26.3497   21.2686   14.8764 H   0  0  0  0  0  0  0  0  0  0  0  0
   22.4130   15.7853    6.0157 H   0  0  0  0  0  0  0  0  0  0  0  0
  1  2  1  0
  2  3  1  0
  3  4  2  0
  4  5  1  0
  5  6  1  0
  6  7  2  0
  6  8  2  0
  6  9  1  0
  9 10  1  0
 10 11  2  0
 11 12  1  0
 12 13  2  0
 13 14  1  0
 14 15  2  0
 14 16  1  0
 16 17  2  0
 16 18  1  0
 18 19  1  0
 19 20  1  0
 20 21  1  0
 21 22  1  0
 22 23  2  0
 22 24  1  0
 24 25  1  0
 25 26  2  0
 18 27  1  0
 27 28  2  0
  5 29  1  0
 29 30  2  0
 30  3  1  0
 15 10  1  0
 25 19  1  0
 27 13  1  0
  1 31  1  0
  1 32  1  0
  1 33  1  0
  2 34  1  0
  2 35  1  0
  4 36  1  0
 11 37  1  0
 15 38  1  0
 19 39  1  1
 20 40  1  0
 20 41  1  0
 21 42  1  0
 21 43  1  0
 24 44  1  0
 29 45  1  0
M  END
>  <meeko>  (900) 
{"is_sidechain": [true], "free_energy": -10.41, "intermolecular_energy": 0.0, "internal_energy": -10.41, "cluster_size": 20, "cluster_id": 1, "rank_in_cluster": 1}

>  <_RMSD_MCS_to_ref>  (900) 
1.5425573617488957

$$$$
ligand
     RDKit          3D

 46 49  0  0  0  0  0  0  0  0999 V2000
   18.7970   18.8170    7.7190 C   0  0  0  0  0  0  0  0  0  0  0  0
   18.5280   17.3290    7.8810 C   0  0  0  0  0  0  0  0  0  0  0  0
   19.7800   16.5250    7.8470 C   0  0  0  0  0  0  0  0  0  0  0  0
   20.5780   16.1150    8.8970 C   0  0  0  0  0  0  0  0  0  0  0  0
   21.5970   15.4320    8.2960 N   0  0  0  0  0  0  0  0  0  0  0  0
   22.8200   14.5880    9.0760 S   0  0  0  0  0  6  0  0  0  0  0  0
   23.8300   15.5820    9.3950 O   0  0  0  0  0  0  0  0  0  0  0  0
   23.1010   13.4370    8.2390 O   0  0  0  0  0  0  0  0  0  0  0  0
   22.1190   14.0140   10.5860 C   0  0  0  0  0  0  0  0  0  0  0  0
   21.0030   13.2560   10.4670 N   0  0  0  0  0  0  0  0  0  0  0  0
   20.4460   12.8010   11.5970 C   0  0  0  0  0  0  0  0  0  0  0  0
   20.8690   13.0130   12.8460 N   0  0  0  0  0  0  0  0  0  0  0  0
   21.9780   13.7710   12.9070 C   0  0  0  0  0  0  0  0  0  0  0  0
   22.6820   14.1600   14.4050 S   0  0  0  0  0  0  0  0  0  0  0  0
   23.9330   15.0640   13.6640 C   0  0  0  0  0  0  0  0  0  0  0  0
   24.9770   15.7300   14.4300 C   0  0  0  0  0  0  0  0  0  0  0  0
   25.8680   15.1140   15.0090 O   0  0  0  0  0  0  0  0  0  0  0  0
   24.9230   17.1050   14.4690 N   0  0  0  0  0  0  0  0  0  0  0  0
   25.9800   17.9040   15.0680 C   0  0  2  0  0  0  0  0  0  0  0  0
   26.0000   17.7860   16.5880 C   0  0  0  0  0  0  0  0  0  0  0  0
   27.1020   18.6720   17.1500 C   0  0  0  0  0  0  0  0  0  0  0  0
   26.9390   20.1040   16.6980 C   0  0  0  0  0  0  0  0  0  0  0  0
   27.2490   21.0580   17.4040 O   0  0  0  0  0  0  0  0  0  0  0  0
   26.4470   20.2960   15.4300 N   0  0  0  0  0  0  0  0  0  0  0  0
   25.7610   19.3710   14.6850 C   0  0  0  0  0  0  0  0  0  0  0  0
   25.0270   19.7160   13.7600 O   0  0  0  0  0  0  0  0  0  0  0  0
   23.7980   15.0600   12.2860 C   0  0  0  0  0  0  0  0  0  0  0  0
   22.6640   14.3110   11.8340 C   0  0  0  0  0  0  0  0  0  0  0  0
   21.3850   15.4050    6.9550 C   0  0  0  0  0  0  0  0  0  0  0  0
   20.2920   16.0730    6.6460 N   0  0  0  0  0  0  0  0  0  0  0  0
   18.8815   19.2845    8.7111 H   0  0  0  0  0  0  0  0  0  0  0  0
   19.7359   18.9616    7.1643 H   0  0  0  0  0  0  0  0  0  0  0  0
   17.9682   19.2812    7.1643 H   0  0  0  0  0  0  0  0  0  0  0  0
   18.0261   17.1626    8.8456 H   0  0  0  0  0  0  0  0  0  0  0  0
   17.8962   17.0063    7.0404 H   0  0  0  0  0  0  0  0  0  0  0  0
   20.4275   16.2968    9.9714 H   0  0  0  0  0  0  0  0  0  0  0  0
   19.5414   12.1855   11.4840 H   0  0  0  0  0  0  0  0  0  0  0  0
   24.1074   17.5834   14.0606 H   0  0  0  0  0  0  0  0  0  0  0  0
   26.9441   17.5318   14.6911 H   0  0  0  0  0  0  0  0  0  0  0  0
   25.0290   18.1064   16.9936 H   0  0  0  0  0  0  0  0  0  0  0  0
   26.1887   16.7403   16.8726 H   0  0  0  0  0  0  0  0  0  0  0  0
   27.0648   18.6366   18.2488 H   0  0  0  0  0  0  0  0  0  0  0  0
   28.0690   18.2994   16.7811 H   0  0  0  0  0  0  0  0  0  0  0  0
   26.6078   21.2179   14.9998 H   0  0  0  0  0  0  0  0  0  0  0  0
   24.4910   15.5791   11.6076 H   0  0  0  0  0  0  0  0  0  0  0  0
   22.0351   14.8964    6.2279 H   0  0  0  0  0  0  0  0  0  0  0  0
  1  2  1  0
  2  3  1  0
  3  4  2  0
  4  5  1  0
  5  6  1  0
  6  7  2  0
  6  8  2  0
  6  9  1  0
  9 10  2  0
 10 11  1  0
 11 12  2  0
 12 13  1  0
 13 14  1  0
 14 15  1  0
 15 16  1  0
 16 17  2  0
 16 18  1  0
 18 19  1  0
 19 20  1  0
 20 21  1  0
 21 22  1  0
 22 23  2  0
 22 24  1  0
 24 25  1  0
 25 26  2  0
 15 27  2  0
 27 28  1  0
  5 29  1  0
 29 30  2  0
 30  3  1  0
 28  9  1  0
 28 13  2  0
 25 19  1  0
  1 31  1  0
  1 32  1  0
  1 33  1  0
  2 34  1  0
  2 35  1  0
  4 36  1  0
 11 37  1  0
 18 38  1  0
 19 39  1  6
 20 40  1  0
 20 41  1  0
 21 42  1  0
 21 43  1  0
 24 44  1  0
 27 45  1  0
 29 46  1  0
M  END
>  <meeko>  (901) 
{"is_sidechain": [true], "free_energy": -10.41, "intermolecular_energy": 0.0, "internal_energy": -10.41, "cluster_size": 16, "cluster_id": 1, "rank_in_cluster": 1}

>  <_RMSD_MCS_to_ref>  (901) 
0.6029622247242726

$$$$
ligand
     RDKit          3D

 46 49  0  0  0  0  0  0  0  0999 V2000
   18.7970   18.8170    7.7190 C   0  0  0  0  0  0  0  0  0  0  0  0
   18.5280   17.3290    7.8810 C   0  0  0  0  0  0  0  0  0  0  0  0
   19.7810   16.5280    7.8840 C   0  0  0  0  0  0  0  0  0  0  0  0
   20.4630   15.9850    8.9560 C   0  0  0  0  0  0  0  0  0  0  0  0
   21.5440   15.3740    8.3900 N   0  0  0  0  0  0  0  0  0  0  0  0
   22.6340   14.3590    9.1700 S   0  0  0  0  0  6  0  0  0  0  0  0
   22.6550   13.1460    8.3750 O   0  0  0  0  0  0  0  0  0  0  0  0
   23.8270   15.1440    9.4100 O   0  0  0  0  0  0  0  0  0  0  0  0
   21.8750   14.0080   10.7070 C   0  0  0  0  0  0  0  0  0  0  0  0
   20.6670   13.3320   10.7080 C   0  0  0  0  0  0  0  0  0  0  0  0
   19.9870   13.0300   11.8340 N   0  0  0  0  0  0  0  0  0  0  0  0
   20.4680   13.3700   13.0100 N   0  0  0  0  0  0  0  0  0  0  0  0
   21.6540   14.0060   13.0570 C   0  0  0  0  0  0  0  0  0  0  0  0
   22.3510   14.4650   14.5350 S   0  0  0  0  0  0  0  0  0  0  0  0
   23.7200   15.1350   13.7590 C   0  0  0  0  0  0  0  0  0  0  0  0
   24.8140   15.7570   14.4930 C   0  0  0  0  0  0  0  0  0  0  0  0
   25.7350   15.1060   14.9800 O   0  0  0  0  0  0  0  0  0  0  0  0
   24.7710   17.1280   14.6060 N   0  0  0  0  0  0  0  0  0  0  0  0
   25.8640   17.8920   15.1850 C   0  0  2  0  0  0  0  0  0  0  0  0
   25.8690   17.8280   16.7090 C   0  0  0  0  0  0  0  0  0  0  0  0
   27.0100   18.6740   17.2480 C   0  0  0  0  0  0  0  0  0  0  0  0
   26.9270   20.0970   16.7430 C   0  0  0  0  0  0  0  0  0  0  0  0
   27.2860   21.0570   17.4170 O   0  0  0  0  0  0  0  0  0  0  0  0
   26.4540   20.2680   15.4670 N   0  0  0  0  0  0  0  0  0  0  0  0
   25.7260   19.3530   14.7480 C   0  0  0  0  0  0  0  0  0  0  0  0
   25.0180   19.7010   13.8040 O   0  0  0  0  0  0  0  0  0  0  0  0
   23.6280   14.9980   12.3840 C   0  0  0  0  0  0  0  0  0  0  0  0
   22.4210   14.3540   11.9540 C   0  0  0  0  0  0  0  0  0  0  0  0
   21.4890   15.5260    7.0430 C   0  0  0  0  0  0  0  0  0  0  0  0
   20.4250   16.2230    6.7010 N   0  0  0  0  0  0  0  0  0  0  0  0
   18.8815   19.2845    8.7111 H   0  0  0  0  0  0  0  0  0  0  0  0
   19.7359   18.9616    7.1643 H   0  0  0  0  0  0  0  0  0  0  0  0
   17.9682   19.2812    7.1643 H   0  0  0  0  0  0  0  0  0  0  0  0
   18.0012   17.1659    8.8328 H   0  0  0  0  0  0  0  0  0  0  0  0
   17.9199   17.0009    7.0251 H   0  0  0  0  0  0  0  0  0  0  0  0
   20.1957   16.0340   10.0219 H   0  0  0  0  0  0  0  0  0  0  0  0
   20.2396   13.0254    9.7419 H   0  0  0  0  0  0  0  0  0  0  0  0
   23.9367   17.6294   14.2692 H   0  0  0  0  0  0  0  0  0  0  0  0
   26.8093   17.4561   14.8294 H   0  0  0  0  0  0  0  0  0  0  0  0
   24.9134   18.2124   17.0952 H   0  0  0  0  0  0  0  0  0  0  0  0
   26.0021   16.7848   17.0316 H   0  0  0  0  0  0  0  0  0  0  0  0
   26.9626   18.6807   18.3470 H   0  0  0  0  0  0  0  0  0  0  0  0
   27.9585   18.2380   16.9013 H   0  0  0  0  0  0  0  0  0  0  0  0
   26.6643   21.1649   15.0062 H   0  0  0  0  0  0  0  0  0  0  0  0
   24.4052   15.3490   11.6892 H   0  0  0  0  0  0  0  0  0  0  0  0
   22.2291   15.1236    6.3357 H   0  0  0  0  0  0  0  0  0  0  0  0
  1  2  1  0
  2  3  1  0
  3  4  2  0
  4  5  1  0
  5  6  1  0
  6  7  2  0
  6  8  2  0
  6  9  1  0
  9 10  2  0
 10 11  1  0
 11 12  2  0
 12 13  1  0
 13 14  1  0
 14 15  1  0
 15 16  1  0
 16 17  2  0
 16 18  1  0
 18 19  1  0
 19 20  1  0
 20 21  1  0
 21 22  1  0
 22 23  2  0
 22 24  1  0
 24 25  1  0
 25 26  2  0
 15 27  2  0
 27 28  1  0
  5 29  1  0
 29 30  2  0
 30  3  1  0
 28  9  1  0
 28 13  2  0
 25 19  1  0
  1 31  1  0
  1 32  1  0
  1 33  1  0
  2 34  1  0
  2 35  1  0
  4 36  1  0
 10 37  1  0
 18 38  1  0
 19 39  1  6
 20 40  1  0
 20 41  1  0
 21 42  1  0
 21 43  1  0
 24 44  1  0
 27 45  1  0
 29 46  1  0
M  END
>  <meeko>  (902) 
{"is_sidechain": [true], "free_energy": -10.41, "intermolecular_energy": 0.0, "internal_energy": -10.41, "cluster_size": 17, "cluster_id": 1, "rank_in_cluster": 1}

>  <_RMSD_MCS_to_ref>  (902) 
0.6145700394042432

$$$$
ligand
     RDKit          3D

 57 61  0  0  0  0  0  0  0  0999 V2000
   18.9090   19.1540    7.5370 C   0  0  0  0  0  0  0  0  0  0  0  0
   18.7730   17.6460    7.6780 C   0  0  0  0  0  0  0  0  0  0  0  0
   20.0960   16.9660    7.7360 C   0  0  0  0  0  0  0  0  0  0  0  0
   20.7620   16.4550    8.8320 C   0  0  0  0  0  0  0  0  0  0  0  0
   21.9140   15.9390    8.3130 N   0  0  0  0  0  0  0  0  0  0  0  0
   23.2320   15.4010    9.2070 S   0  0  0  0  0  6  0  0  0  0  0  0
   24.2100   16.4680    9.1790 O   0  0  0  0  0  0  0  0  0  0  0  0
   23.5200   14.0710    8.7030 O   0  0  0  0  0  0  0  0  0  0  0  0
   22.5940   15.2670   10.8510 C   0  0  0  0  0  0  0  0  0  0  0  0
   21.5530   14.3610   11.1110 C   0  0  0  0  0  0  0  0  0  0  0  0
   21.0510   14.1980   12.4210 C   0  0  0  0  0  0  0  0  0  0  0  0
   19.9450   13.2290   12.6310 C   0  0  0  0  0  0  0  0  0  0  0  0
   20.2030   12.0290   12.6170 O   0  0  0  0  0  0  0  0  0  0  0  0
   18.6780   13.7340   12.8370 N   0  0  0  0  0  0  0  0  0  0  0  0
   17.5580   12.9290   13.3350 C   0  0  0  0  0  0  0  0  0  0  0  0
   16.9180   14.2500   13.7640 C   0  0  0  0  0  0  0  0  0  0  0  0
   18.3060   14.8870   13.6610 C   0  0  0  0  0  0  0  0  0  0  0  0
   21.5580   14.9660   13.4730 C   0  0  0  0  0  0  0  0  0  0  0  0
   22.5700   15.8600   13.1750 C   0  0  0  0  0  0  0  0  0  0  0  0
   23.0940   16.0320   11.8930 C   0  0  0  0  0  0  0  0  0  0  0  0
   24.1700   17.0700   11.9280 C   0  0  0  0  0  0  0  0  0  0  0  0
   24.1680   17.4900   13.3230 N   0  0  0  0  0  0  0  0  0  0  0  0
   25.2470   18.2650   13.9250 C   0  0  2  0  0  0  0  0  0  0  0  0
   25.5250   17.8640   15.3700 C   0  0  0  0  0  0  0  0  0  0  0  0
   26.7090   18.6620   15.8960 C   0  0  0  0  0  0  0  0  0  0  0  0
   26.4730   20.1480   15.7550 C   0  0  0  0  0  0  0  0  0  0  0  0
   26.8800   20.9600   16.5800 O   0  0  0  0  0  0  0  0  0  0  0  0
   25.7920   20.5590   14.6370 N   0  0  0  0  0  0  0  0  0  0  0  0
   24.9570   19.7760   13.8730 C   0  0  0  0  0  0  0  0  0  0  0  0
   24.0490   20.2840   13.2180 O   0  0  0  0  0  0  0  0  0  0  0  0
   23.2870   16.7500   14.0930 C   0  0  0  0  0  0  0  0  0  0  0  0
   23.1230   16.7830   15.2960 O   0  0  0  0  0  0  0  0  0  0  0  0
   21.9450   16.1730    6.9750 C   0  0  0  0  0  0  0  0  0  0  0  0
   20.8470   16.7910    6.5920 N   0  0  0  0  0  0  0  0  0  0  0  0
   18.9504   19.6134    8.5356 H   0  0  0  0  0  0  0  0  0  0  0  0
   19.8320   19.3891    6.9867 H   0  0  0  0  0  0  0  0  0  0  0  0
   18.0430   19.5504    6.9867 H   0  0  0  0  0  0  0  0  0  0  0  0
   18.2200   17.4249    8.6029 H   0  0  0  0  0  0  0  0  0  0  0  0
   18.2384   17.2705    6.7930 H   0  0  0  0  0  0  0  0  0  0  0  0
   20.4382   16.4621    9.8832 H   0  0  0  0  0  0  0  0  0  0  0  0
   21.1244   13.7726   10.2863 H   0  0  0  0  0  0  0  0  0  0  0  0
   17.0049   12.3775   12.5605 H   0  0  0  0  0  0  0  0  0  0  0  0
   17.7026   12.0930   14.0351 H   0  0  0  0  0  0  0  0  0  0  0  0
   16.1769   14.6506   13.0567 H   0  0  0  0  0  0  0  0  0  0  0  0
   16.3151   14.3273   14.6808 H   0  0  0  0  0  0  0  0  0  0  0  0
   18.3326   15.8554   13.1399 H   0  0  0  0  0  0  0  0  0  0  0  0
   18.8827   15.1831   14.5497 H   0  0  0  0  0  0  0  0  0  0  0  0
   21.1679   14.8634   14.4964 H   0  0  0  0  0  0  0  0  0  0  0  0
   25.1428   16.6420   11.6445 H   0  0  0  0  0  0  0  0  0  0  0  0
   23.9997   17.8977   11.2237 H   0  0  0  0  0  0  0  0  0  0  0  0
   26.1410   18.0406   13.3246 H   0  0  0  0  0  0  0  0  0  0  0  0
   24.6382   18.0734   15.9863 H   0  0  0  0  0  0  0  0  0  0  0  0
   25.7561   16.7895   15.4156 H   0  0  0  0  0  0  0  0  0  0  0  0
   26.8596   18.4220   16.9589 H   0  0  0  0  0  0  0  0  0  0  0  0
   27.5988   18.3935   15.3076 H   0  0  0  0  0  0  0  0  0  0  0  0
   25.9165   21.5386   14.3441 H   0  0  0  0  0  0  0  0  0  0  0  0
   22.7703   15.8868    6.3064 H   0  0  0  0  0  0  0  0  0  0  0  0
  1  2  1  0
  2  3  1  0
  3  4  2  0
  4  5  1  0
  5  6  1  0
  6  7  2  0
  6  8  2  0
  6  9  1  0
  9 10  2  0
 10 11  1  0
 11 12  1  0
 12 13  2  0
 12 14  1  0
 14 15  1  0
 15 16  1  0
 16 17  1  0
 11 18  2  0
 18 19  1  0
 19 20  2  0
 20 21  1  0
 21 22  1  0
 22 23  1  0
 23 24  1  0
 24 25  1  0
 25 26  1  0
 26 27  2  0
 26 28  1  0
 28 29  1  0
 29 30  2  0
 22 31  1  0
 31 32  2  0
  5 33  1  0
 33 34  2  0
 34  3  1  0
 20  9  1  0
 29 23  1  0
 17 14  1  0
 31 19  1  0
  1 35  1  0
  1 36  1  0
  1 37  1  0
  2 38  1  0
  2 39  1  0
  4 40  1  0
 10 41  1  0
 15 42  1  0
 15 43  1  0
 16 44  1  0
 16 45  1  0
 17 46  1  0
 17 47  1  0
 18 48  1  0
 21 49  1  0
 21 50  1  0
 23 51  1  6
 24 52  1  0
 24 53  1  0
 25 54  1  0
 25 55  1  0
 28 56  1  0
 33 57  1  0
M  END
>  <meeko>  (903) 
{"is_sidechain": [true], "free_energy": -10.41, "intermolecular_energy": 0.0, "internal_energy": -10.41, "cluster_size": 19, "cluster_id": 1, "rank_in_cluster": 1}

>  <_RMSD_MCS_to_ref>  (903) 
1.901525820083557

$$$$
ligand
     RDKit          3D

 45 48  0  0  0  0  0  0  0  0999 V2000
   18.9090   19.1540    7.5370 C   0  0  0  0  0  0  0  0  0  0  0  0
   18.7730   17.6460    7.6780 C   0  0  0  0  0  0  0  0  0  0  0  0
   20.0350   16.9340    7.3390 C   0  0  0  0  0  0  0  0  0  0  0  0
   20.9750   16.3810    8.1870 C   0  0  0  0  0  0  0  0  0  0  0  0
   21.9310   15.8840    7.3500 N   0  0  0  0  0  0  0  0  0  0  0  0
   23.2260   14.9100    7.7940 S   0  0  0  0  0  6  0  0  0  0  0  0
   24.2260   15.0770    6.7570 O   0  0  0  0  0  0  0  0  0  0  0  0
   22.6490   13.6190    8.1160 O   0  0  0  0  0  0  0  0  0  0  0  0
   23.8230   15.6620    9.2830 C   0  0  0  0  0  0  0  0  0  0  0  0
   25.1650   16.0520    9.3710 C   0  0  0  0  0  0  0  0  0  0  0  0
   25.6630   16.6460   10.5360 C   0  0  0  0  0  0  0  0  0  0  0  0
   24.7560   16.8280   11.5810 C   0  0  0  0  0  0  0  0  0  0  0  0
   24.8860   17.3680   12.8360 N   0  0  0  0  0  0  0  0  0  0  0  0
   23.6680   17.3030   13.4430 C   0  0  0  0  0  0  0  0  0  0  0  0
   23.4720   17.9100   15.0440 S   0  0  0  0  0  0  0  0  0  0  0  0
   25.1860   18.3530   15.5000 C   0  0  2  0  0  0  0  0  0  0  0  0
   25.3590   18.4140   17.0160 C   0  0  0  0  0  0  0  0  0  0  0  0
   26.7720   18.8650   17.3520 C   0  0  0  0  0  0  0  0  0  0  0  0
   27.0830   20.1980   16.7170 C   0  0  0  0  0  0  0  0  0  0  0  0
   27.9380   20.9540   17.1680 O   0  0  0  0  0  0  0  0  0  0  0  0
   26.4310   20.4820   15.5430 N   0  0  0  0  0  0  0  0  0  0  0  0
   25.6390   19.6350   14.8050 C   0  0  0  0  0  0  0  0  0  0  0  0
   25.4050   19.8900   13.6230 O   0  0  0  0  0  0  0  0  0  0  0  0
   22.7550   16.7580   12.6770 N   0  0  0  0  0  0  0  0  0  0  0  0
   23.4140   16.4590   11.5090 C   0  0  0  0  0  0  0  0  0  0  0  0
   22.9230   15.8680   10.3390 C   0  0  0  0  0  0  0  0  0  0  0  0
   21.5470   16.0910    6.0630 C   0  0  0  0  0  0  0  0  0  0  0  0
   20.4010   16.7380    6.0210 N   0  0  0  0  0  0  0  0  0  0  0  0
   18.9504   19.6134    8.5356 H   0  0  0  0  0  0  0  0  0  0  0  0
   19.8320   19.3891    6.9867 H   0  0  0  0  0  0  0  0  0  0  0  0
   18.0430   19.5504    6.9867 H   0  0  0  0  0  0  0  0  0  0  0  0
   18.5015   17.4104    8.7176 H   0  0  0  0  0  0  0  0  0  0  0  0
   17.9962   17.3097    6.9755 H   0  0  0  0  0  0  0  0  0  0  0  0
   20.9568   16.3487    9.2864 H   0  0  0  0  0  0  0  0  0  0  0  0
   25.8356   15.8895    8.5143 H   0  0  0  0  0  0  0  0  0  0  0  0
   26.7154   16.9537   10.6237 H   0  0  0  0  0  0  0  0  0  0  0  0
   25.7491   17.7531   13.2454 H   0  0  0  0  0  0  0  0  0  0  0  0
   25.8485   17.5529   15.1381 H   0  0  0  0  0  0  0  0  0  0  0  0
   24.6369   19.1284   17.4381 H   0  0  0  0  0  0  0  0  0  0  0  0
   25.1834   17.4158   17.4435 H   0  0  0  0  0  0  0  0  0  0  0  0
   26.8699   18.9558   18.4439 H   0  0  0  0  0  0  0  0  0  0  0  0
   27.4790   18.1186   16.9608 H   0  0  0  0  0  0  0  0  0  0  0  0
   26.5483   21.4364   15.1738 H   0  0  0  0  0  0  0  0  0  0  0  0
   21.8665   15.5748   10.2506 H   0  0  0  0  0  0  0  0  0  0  0  0
   22.1145   15.7636    5.1794 H   0  0  0  0  0  0  0  0  0  0  0  0
  1  2  1  0
  2  3  1  0
  3  4  2  0
  4  5  1  0
  5  6  1  0
  6  7  2  0
  6  8  2  0
  6  9  1  0
  9 10  2  0
 10 11  1  0
 11 12  2  0
 12 13  1  0
 13 14  1  0
 14 15  1  0
 15 16  1  0
 16 17  1  0
 17 18  1  0
 18 19  1  0
 19 20  2  0
 19 21  1  0
 21 22  1  0
 22 23  2  0
 14 24  2  0
 24 25  1  0
 25 26  2  0
  5 27  1  0
 27 28  2  0
 28  3  1  0
 26  9  1  0
 25 12  1  0
 22 16  1  0
  1 29  1  0
  1 30  1  0
  1 31  1  0
  2 32  1  0
  2 33  1  0
  4 34  1  0
 10 35  1  0
 11 36  1  0
 13 37  1  0
 16 38  1  6
 17 39  1  0
 17 40  1  0
 18 41  1  0
 18 42  1  0
 21 43  1  0
 26 44  1  0
 27 45  1  0
M  END
>  <meeko>  (904) 
{"is_sidechain": [true], "free_energy": -10.41, "intermolecular_energy": 0.0, "internal_energy": -10.41, "cluster_size": 20, "cluster_id": 1, "rank_in_cluster": 1}

>  <_RMSD_MCS_to_ref>  (904) 
0.8826212381310562

$$$$
ligand
     RDKit          3D

 48 51  0  0  0  0  0  0  0  0999 V2000
   18.9090   19.1540    7.5370 C   0  0  0  0  0  0  0  0  0  0  0  0
   18.7730   17.6460    7.6780 C   0  0  0  0  0  0  0  0  0  0  0  0
   20.0060   16.9280    7.2540 C   0  0  0  0  0  0  0  0  0  0  0  0
   21.0510   16.4640    8.0280 C   0  0  0  0  0  0  0  0  0  0  0  0
   21.8950   15.8740    7.1320 N   0  0  0  0  0  0  0  0  0  0  0  0
   23.4480   15.3350    7.4640 S   0  0  0  0  0  6  0  0  0  0  0  0
   23.3860   13.8880    7.4320 O   0  0  0  0  0  0  0  0  0  0  0  0
   24.3440   16.1110    6.6340 O   0  0  0  0  0  0  0  0  0  0  0  0
   23.8380   15.7400    9.0780 C   0  0  0  0  0  0  0  0  0  0  0  0
   24.9290   16.4770    9.4680 C   0  0  0  0  0  0  0  0  0  0  0  0
   24.9650   16.5790   10.8200 O   0  0  0  0  0  0  0  0  0  0  0  0
   23.8800   15.9090   11.3130 C   0  0  0  0  0  0  0  0  0  0  0  0
   23.5400   15.7620   12.6630 C   0  0  0  0  0  0  0  0  0  0  0  0
   24.3290   16.3270   13.7840 C   0  0  0  0  0  0  0  0  0  0  0  0
   24.3020   15.7900   14.8870 O   0  0  0  0  0  0  0  0  0  0  0  0
   25.0780   17.4510   13.5300 N   0  0  0  0  0  0  0  0  0  0  0  0
   25.9860   18.0110   14.5180 C   0  0  2  0  0  0  0  0  0  0  0  0
   25.3590   18.0690   15.9060 C   0  0  0  0  0  0  0  0  0  0  0  0
   26.3460   18.6850   16.8840 C   0  0  0  0  0  0  0  0  0  0  0  0
   26.8060   20.0450   16.4170 C   0  0  0  0  0  0  0  0  0  0  0  0
   27.0720   20.9550   17.1960 O   0  0  0  0  0  0  0  0  0  0  0  0
   26.9450   20.2150   15.0620 N   0  0  0  0  0  0  0  0  0  0  0  0
   26.3780   19.4290   14.0890 C   0  0  0  0  0  0  0  0  0  0  0  0
   26.2180   19.8560   12.9450 O   0  0  0  0  0  0  0  0  0  0  0  0
   22.3740   15.0250   12.9340 C   0  0  0  0  0  0  0  0  0  0  0  0
   21.6030   14.4770   11.9070 C   0  0  0  0  0  0  0  0  0  0  0  0
   21.9710   14.6420   10.5660 C   0  0  0  0  0  0  0  0  0  0  0  0
   23.1390   15.3680   10.2590 C   0  0  0  0  0  0  0  0  0  0  0  0
   21.3950   16.0300    5.8800 C   0  0  0  0  0  0  0  0  0  0  0  0
   20.2380   16.6560    5.9210 N   0  0  0  0  0  0  0  0  0  0  0  0
   18.9504   19.6134    8.5356 H   0  0  0  0  0  0  0  0  0  0  0  0
   19.8320   19.3891    6.9867 H   0  0  0  0  0  0  0  0  0  0  0  0
   18.0430   19.5504    6.9867 H   0  0  0  0  0  0  0  0  0  0  0  0
   18.5679   17.4058    8.7317 H   0  0  0  0  0  0  0  0  0  0  0  0
   17.9504   17.3187    7.0252 H   0  0  0  0  0  0  0  0  0  0  0  0
   21.1750   16.5501    9.1176 H   0  0  0  0  0  0  0  0  0  0  0  0
   25.6668   16.9204    8.7832 H   0  0  0  0  0  0  0  0  0  0  0  0
   24.9936   17.9105   12.6121 H   0  0  0  0  0  0  0  0  0  0  0  0
   26.8686   17.3568   14.5732 H   0  0  0  0  0  0  0  0  0  0  0  0
   24.4468   18.6827   15.8706 H   0  0  0  0  0  0  0  0  0  0  0  0
   25.1043   17.0509   16.2354 H   0  0  0  0  0  0  0  0  0  0  0  0
   25.8603   18.7887   17.8655 H   0  0  0  0  0  0  0  0  0  0  0  0
   27.2243   18.0262   16.9516 H   0  0  0  0  0  0  0  0  0  0  0  0
   27.5274   21.0037   14.7464 H   0  0  0  0  0  0  0  0  0  0  0  0
   22.0621   14.8767   13.9784 H   0  0  0  0  0  0  0  0  0  0  0  0
   20.6946   13.9082   12.1545 H   0  0  0  0  0  0  0  0  0  0  0  0
   21.3561   14.2104    9.7625 H   0  0  0  0  0  0  0  0  0  0  0  0
   21.8876   15.6821    4.9601 H   0  0  0  0  0  0  0  0  0  0  0  0
  1  2  1  0
  2  3  1  0
  3  4  2  0
  4  5  1  0
  5  6  1  0
  6  7  2  0
  6  8  2  0
  6  9  1  0
  9 10  2  0
 10 11  1  0
 11 12  1  0
 12 13  2  0
 13 14  1  0
 14 15  2  0
 14 16  1  0
 16 17  1  0
 17 18  1  0
 18 19  1  0
 19 20  1  0
 20 21  2  0
 20 22  1  0
 22 23  1  0
 23 24  2  0
 13 25  1  0
 25 26  2  0
 26 27  1  0
 27 28  2  0
  5 29  1  0
 29 30  2  0
 30  3  1  0
 28  9  1  0
 28 12  1  0
 23 17  1  0
  1 31  1  0
  1 32  1  0
  1 33  1  0
  2 34  1  0
  2 35  1  0
  4 36  1  0
 10 37  1  0
 16 38  1  0
 17 39  1  1
 18 40  1  0
 18 41  1  0
 19 42  1  0
 19 43  1  0
 22 44  1  0
 25 45  1  0
 26 46  1  0
 27 47  1  0
 29 48  1  0
M  END
>  <meeko>  (905) 
{"is_sidechain": [true], "free_energy": -10.41, "intermolecular_energy": 0.0, "internal_energy": -10.41, "cluster_size": 13, "cluster_id": 1, "rank_in_cluster": 1}

>  <_RMSD_MCS_to_ref>  (905) 
0.9327517235458626

$$$$
ligand
     RDKit          3D

 48 51  0  0  0  0  0  0  0  0999 V2000
   18.9090   19.1540    7.5370 C   0  0  0  0  0  0  0  0  0  0  0  0
   18.7730   17.6460    7.6780 C   0  0  0  0  0  0  0  0  0  0  0  0
   19.8780   16.9160    6.9990 C   0  0  0  0  0  0  0  0  0  0  0  0
   20.7990   16.0390    7.5370 C   0  0  0  0  0  0  0  0  0  0  0  0
   21.5600   15.6570    6.4690 N   0  0  0  0  0  0  0  0  0  0  0  0
   22.9740   14.7520    6.5430 S   0  0  0  0  0  6  0  0  0  0  0  0
   24.0090   15.5850    5.9620 O   0  0  0  0  0  0  0  0  0  0  0  0
   22.6350   13.4480    6.0070 O   0  0  0  0  0  0  0  0  0  0  0  0
   23.2740   14.5920    8.2820 C   0  0  0  0  0  0  0  0  0  0  0  0
   23.0660   13.3530    8.9050 C   0  0  0  0  0  0  0  0  0  0  0  0
   23.2980   13.1950   10.2750 C   0  0  0  0  0  0  0  0  0  0  0  0
   23.7470   14.3200   10.9680 C   0  0  0  0  0  0  0  0  0  0  0  0
   24.0700   14.5240   12.2850 N   0  0  0  0  0  0  0  0  0  0  0  0
   24.4650   15.8290   12.4340 C   0  0  0  0  0  0  0  0  0  0  0  0
   24.8750   16.4150   13.6930 C   0  0  0  0  0  0  0  0  0  0  0  0
   24.9120   15.7880   14.7480 O   0  0  0  0  0  0  0  0  0  0  0  0
   25.2160   17.7480   13.5910 N   0  0  0  0  0  0  0  0  0  0  0  0
   25.3270   18.5820   14.7720 C   0  0  1  0  0  0  0  0  0  0  0  0
   26.2780   17.9580   15.7860 C   0  0  0  0  0  0  0  0  0  0  0  0
   26.3710   18.8530   17.0130 C   0  0  0  0  0  0  0  0  0  0  0  0
   26.7890   20.2560   16.6380 C   0  0  0  0  0  0  0  0  0  0  0  0
   27.4820   20.9520   17.3720 O   0  0  0  0  0  0  0  0  0  0  0  0
   26.3290   20.7320   15.4360 N   0  0  0  0  0  0  0  0  0  0  0  0
   25.8450   19.9780   14.3940 C   0  0  0  0  0  0  0  0  0  0  0  0
   25.8340   20.4280   13.2500 O   0  0  0  0  0  0  0  0  0  0  0  0
   24.4110   16.4780   11.2830 N   0  0  0  0  0  0  0  0  0  0  0  0
   23.9710   15.5550   10.3670 C   0  0  0  0  0  0  0  0  0  0  0  0
   23.7390   15.7080    8.9940 C   0  0  0  0  0  0  0  0  0  0  0  0
   21.1370   16.3190    5.3610 C   0  0  0  0  0  0  0  0  0  0  0  0
   20.1050   17.0850    5.6470 N   0  0  0  0  0  0  0  0  0  0  0  0
   18.9504   19.6134    8.5356 H   0  0  0  0  0  0  0  0  0  0  0  0
   19.8320   19.3891    6.9867 H   0  0  0  0  0  0  0  0  0  0  0  0
   18.0430   19.5504    6.9867 H   0  0  0  0  0  0  0  0  0  0  0  0
   18.7824   17.3879    8.7472 H   0  0  0  0  0  0  0  0  0  0  0  0
   17.8277   17.3462    7.2021 H   0  0  0  0  0  0  0  0  0  0  0  0
   20.8973   15.7209    8.5854 H   0  0  0  0  0  0  0  0  0  0  0  0
   22.7167   12.4964    8.3098 H   0  0  0  0  0  0  0  0  0  0  0  0
   23.1347   12.2321   10.7811 H   0  0  0  0  0  0  0  0  0  0  0  0
   24.0239   13.8183   13.0338 H   0  0  0  0  0  0  0  0  0  0  0  0
   25.3943   18.1567   12.6625 H   0  0  0  0  0  0  0  0  0  0  0  0
   24.3257   18.6680   15.2191 H   0  0  0  0  0  0  0  0  0  0  0  0
   25.9002   16.9683   16.0821 H   0  0  0  0  0  0  0  0  0  0  0  0
   27.2754   17.8502   15.3348 H   0  0  0  0  0  0  0  0  0  0  0  0
   25.3875   18.8912   17.5042 H   0  0  0  0  0  0  0  0  0  0  0  0
   27.1286   18.4344   17.6918 H   0  0  0  0  0  0  0  0  0  0  0  0
   26.3483   21.7530   15.3018 H   0  0  0  0  0  0  0  0  0  0  0  0
   23.9154   16.6703    8.4912 H   0  0  0  0  0  0  0  0  0  0  0  0
   21.5929   16.2279    4.3641 H   0  0  0  0  0  0  0  0  0  0  0  0
  1  2  1  0
  2  3  1  0
  3  4  2  0
  4  5  1  0
  5  6  1  0
  6  7  2  0
  6  8  2  0
  6  9  1  0
  9 10  2  0
 10 11  1  0
 11 12  2  0
 12 13  1  0
 13 14  1  0
 14 15  1  0
 15 16  2  0
 15 17  1  0
 17 18  1  0
 18 19  1  0
 19 20  1  0
 20 21  1  0
 21 22  2  0
 21 23  1  0
 23 24  1  0
 24 25  2  0
 14 26  2  0
 26 27  1  0
 27 28  2  0
  5 29  1  0
 29 30  2  0
 30  3  1  0
 28  9  1  0
 27 12  1  0
 24 18  1  0
  1 31  1  0
  1 32  1  0
  1 33  1  0
  2 34  1  0
  2 35  1  0
  4 36  1  0
 10 37  1  0
 11 38  1  0
 13 39  1  0
 17 40  1  0
 18 41  1  1
 19 42  1  0
 19 43  1  0
 20 44  1  0
 20 45  1  0
 23 46  1  0
 28 47  1  0
 29 48  1  0
M  END
>  <meeko>  (906) 
{"is_sidechain": [true], "free_energy": -10.41, "intermolecular_energy": 0.0, "internal_energy": -10.41, "cluster_size": 16, "cluster_id": 1, "rank_in_cluster": 1}

>  <_RMSD_MCS_to_ref>  (906) 
0.6236949931211927

$$$$
ligand
     RDKit          3D

 45 48  0  0  0  0  0  0  0  0999 V2000
   18.9090   19.1540    7.5370 C   0  0  0  0  0  0  0  0  0  0  0  0
   18.7730   17.6460    7.6780 C   0  0  0  0  0  0  0  0  0  0  0  0
   20.0500   16.9370    7.3920 C   0  0  0  0  0  0  0  0  0  0  0  0
   20.6600   15.9270    8.1080 C   0  0  0  0  0  0  0  0  0  0  0  0
   21.7830   15.6380    7.3880 N   0  0  0  0  0  0  0  0  0  0  0  0
   23.0000   14.5780    7.8340 S   0  0  0  0  0  6  0  0  0  0  0  0
   22.3480   13.3370    8.2070 O   0  0  0  0  0  0  0  0  0  0  0  0
   24.0170   14.6660    6.8030 O   0  0  0  0  0  0  0  0  0  0  0  0
   23.7550   15.1480    9.2700 C   0  0  0  0  0  0  0  0  0  0  0  0
   25.0340   15.7000    9.3100 N   0  0  0  0  0  0  0  0  0  0  0  0
   25.2500   16.0030   10.5790 C   0  0  0  0  0  0  0  0  0  0  0  0
   24.1720   15.6810   11.3580 N   0  0  0  0  0  0  0  0  0  0  0  0
   23.8200   15.7660   12.6930 C   0  0  0  0  0  0  0  0  0  0  0  0
   24.7150   16.2970   13.7460 C   0  0  0  0  0  0  0  0  0  0  0  0
   25.2220   15.5500   14.5740 O   0  0  0  0  0  0  0  0  0  0  0  0
   24.9650   17.6430   13.7070 N   0  0  0  0  0  0  0  0  0  0  0  0
   25.9450   18.2600   14.5950 C   0  0  2  0  0  0  0  0  0  0  0  0
   25.6860   17.9340   16.0620 C   0  0  0  0  0  0  0  0  0  0  0  0
   26.7130   18.6470   16.9280 C   0  0  0  0  0  0  0  0  0  0  0  0
   26.7080   20.1370   16.6700 C   0  0  0  0  0  0  0  0  0  0  0  0
   26.9280   20.9600   17.5540 O   0  0  0  0  0  0  0  0  0  0  0  0
   26.4730   20.5360   15.3790 N   0  0  0  0  0  0  0  0  0  0  0  0
   25.8770   19.7780   14.4030 C   0  0  0  0  0  0  0  0  0  0  0  0
   25.3270   20.2960   13.4320 O   0  0  0  0  0  0  0  0  0  0  0  0
   22.5870   15.2560   12.8980 C   0  0  0  0  0  0  0  0  0  0  0  0
   21.8130   14.6800   11.4130 S   0  0  0  0  0  0  0  0  0  0  0  0
   23.2300   15.1380   10.5300 C   0  0  0  0  0  0  0  0  0  0  0  0
   21.8620   16.4840    6.3290 C   0  0  0  0  0  0  0  0  0  0  0  0
   20.8070   17.2710    6.2870 N   0  0  0  0  0  0  0  0  0  0  0  0
   18.9504   19.6134    8.5356 H   0  0  0  0  0  0  0  0  0  0  0  0
   19.8320   19.3891    6.9867 H   0  0  0  0  0  0  0  0  0  0  0  0
   18.0430   19.5504    6.9867 H   0  0  0  0  0  0  0  0  0  0  0  0
   18.4613   17.4131    8.7069 H   0  0  0  0  0  0  0  0  0  0  0  0
   18.0260   17.3045    6.9463 H   0  0  0  0  0  0  0  0  0  0  0  0
   20.3192   15.4615    9.0445 H   0  0  0  0  0  0  0  0  0  0  0  0
   26.1774   16.4559   10.9596 H   0  0  0  0  0  0  0  0  0  0  0  0
   24.4505   18.2322   13.0368 H   0  0  0  0  0  0  0  0  0  0  0  0
   26.9382   17.8625   14.3392 H   0  0  0  0  0  0  0  0  0  0  0  0
   24.6759   18.2695   16.3395 H   0  0  0  0  0  0  0  0  0  0  0  0
   25.7665   16.8479   16.2163 H   0  0  0  0  0  0  0  0  0  0  0  0
   26.4769   18.4657   17.9870 H   0  0  0  0  0  0  0  0  0  0  0  0
   27.7101   18.2544   16.6795 H   0  0  0  0  0  0  0  0  0  0  0  0
   26.7698   21.4876   15.1196 H   0  0  0  0  0  0  0  0  0  0  0  0
   22.1108   15.2035   13.8882 H   0  0  0  0  0  0  0  0  0  0  0  0
   22.6915   16.5086    5.6069 H   0  0  0  0  0  0  0  0  0  0  0  0
  1  2  1  0
  2  3  1  0
  3  4  2  0
  4  5  1  0
  5  6  1  0
  6  7  2  0
  6  8  2  0
  6  9  1  0
  9 10  1  0
 10 11  2  0
 11 12  1  0
 12 13  1  0
 13 14  1  0
 14 15  2  0
 14 16  1  0
 16 17  1  0
 17 18  1  0
 18 19  1  0
 19 20  1  0
 20 21  2  0
 20 22  1  0
 22 23  1  0
 23 24  2  0
 13 25  2  0
 25 26  1  0
 26 27  1  0
  5 28  1  0
 28 29  2  0
 29  3  1  0
 27  9  2  0
 27 12  1  0
 23 17  1  0
  1 30  1  0
  1 31  1  0
  1 32  1  0
  2 33  1  0
  2 34  1  0
  4 35  1  0
 11 36  1  0
 16 37  1  0
 17 38  1  6
 18 39  1  0
 18 40  1  0
 19 41  1  0
 19 42  1  0
 22 43  1  0
 25 44  1  0
 28 45  1  0
M  END
>  <meeko>  (907) 
{"is_sidechain": [true], "free_energy": -10.41, "intermolecular_energy": 0.0, "internal_energy": -10.41, "cluster_size": 14, "cluster_id": 1, "rank_in_cluster": 1}

>  <_RMSD_MCS_to_ref>  (907) 
0.635281914673408

$$$$
ligand
     RDKit          3D

 50 53  0  0  0  0  0  0  0  0999 V2000
   18.9090   19.1540    7.5370 C   0  0  0  0  0  0  0  0  0  0  0  0
   18.7730   17.6460    7.6780 C   0  0  0  0  0  0  0  0  0  0  0  0
   19.8240   16.9140    6.9200 C   0  0  0  0  0  0  0  0  0  0  0  0
   20.2970   15.6300    7.1080 C   0  0  0  0  0  0  0  0  0  0  0  0
   21.2350   15.4720    6.1280 N   0  0  0  0  0  0  0  0  0  0  0  0
   22.3120   14.1890    5.9960 S   0  0  0  0  0  6  0  0  0  0  0  0
   21.5820   13.0100    6.4180 O   0  0  0  0  0  0  0  0  0  0  0  0
   22.9060   14.3070    4.6780 O   0  0  0  0  0  0  0  0  0  0  0  0
   23.5460   14.5580    7.2140 C   0  0  0  0  0  0  0  0  0  0  0  0
   24.8620   14.1350    7.0170 C   0  0  0  0  0  0  0  0  0  0  0  0
   25.8280   14.4270    7.9810 C   0  0  0  0  0  0  0  0  0  0  0  0
   25.4820   15.1350    9.1470 C   0  0  0  0  0  0  0  0  0  0  0  0
   26.4120   15.4520   10.1400 C   0  0  0  0  0  0  0  0  0  0  0  0
   26.1220   16.1250   11.2750 N   0  0  0  0  0  0  0  0  0  0  0  0
   24.8260   16.5070   11.4350 C   0  0  0  0  0  0  0  0  0  0  0  0
   24.5100   17.2600   12.6920 C   0  0  0  0  0  0  0  0  0  0  0  0
   23.3640   17.5940   12.9730 O   0  0  0  0  0  0  0  0  0  0  0  0
   25.6030   17.5480   13.4770 N   0  0  0  0  0  0  0  0  0  0  0  0
   25.5240   18.4050   14.6450 C   0  0  1  0  0  0  0  0  0  0  0  0
   26.3400   17.8560   15.8110 C   0  0  0  0  0  0  0  0  0  0  0  0
   26.2330   18.8030   16.9970 C   0  0  0  0  0  0  0  0  0  0  0  0
   26.6600   20.2020   16.6220 C   0  0  0  0  0  0  0  0  0  0  0  0
   27.2150   20.9550   17.4150 O   0  0  0  0  0  0  0  0  0  0  0  0
   26.3670   20.6120   15.3460 N   0  0  0  0  0  0  0  0  0  0  0  0
   26.0390   19.8030   14.2860 C   0  0  0  0  0  0  0  0  0  0  0  0
   26.1440   20.2070   13.1280 O   0  0  0  0  0  0  0  0  0  0  0  0
   23.8200   16.2460   10.5160 C   0  0  0  0  0  0  0  0  0  0  0  0
   24.1460   15.5480    9.3470 C   0  0  0  0  0  0  0  0  0  0  0  0
   23.1800   15.2510    8.3740 C   0  0  0  0  0  0  0  0  0  0  0  0
   21.3420   16.6280    5.4240 C   0  0  0  0  0  0  0  0  0  0  0  0
   20.4900   17.5240    5.8740 N   0  0  0  0  0  0  0  0  0  0  0  0
   18.9504   19.6134    8.5356 H   0  0  0  0  0  0  0  0  0  0  0  0
   19.8320   19.3891    6.9867 H   0  0  0  0  0  0  0  0  0  0  0  0
   18.0430   19.5504    6.9867 H   0  0  0  0  0  0  0  0  0  0  0  0
   18.8543   17.3809    8.7425 H   0  0  0  0  0  0  0  0  0  0  0  0
   17.7952   17.3550    7.2668 H   0  0  0  0  0  0  0  0  0  0  0  0
   19.9887   14.9014    7.8722 H   0  0  0  0  0  0  0  0  0  0  0  0
   25.1351   13.5763    6.1096 H   0  0  0  0  0  0  0  0  0  0  0  0
   26.8675   14.1013    7.8283 H   0  0  0  0  0  0  0  0  0  0  0  0
   27.4530   15.1313    9.9871 H   0  0  0  0  0  0  0  0  0  0  0  0
   26.5140   17.1386   13.2252 H   0  0  0  0  0  0  0  0  0  0  0  0
   24.4704   18.4487   14.9580 H   0  0  0  0  0  0  0  0  0  0  0  0
   25.9524   16.8668   16.0959 H   0  0  0  0  0  0  0  0  0  0  0  0
   27.3939   17.7646   15.5094 H   0  0  0  0  0  0  0  0  0  0  0  0
   25.1891   18.8275   17.3429 H   0  0  0  0  0  0  0  0  0  0  0  0
   26.8984   18.4386   17.7935 H   0  0  0  0  0  0  0  0  0  0  0  0
   26.3959   21.6256   15.1654 H   0  0  0  0  0  0  0  0  0  0  0  0
   22.7886   16.5802   10.7018 H   0  0  0  0  0  0  0  0  0  0  0  0
   22.1355   15.5625    8.5225 H   0  0  0  0  0  0  0  0  0  0  0  0
   22.0435   16.7926    4.5929 H   0  0  0  0  0  0  0  0  0  0  0  0
  1  2  1  0
  2  3  1  0
  3  4  2  0
  4  5  1  0
  5  6  1  0
  6  7  2  0
  6  8  2  0
  6  9  1  0
  9 10  2  0
 10 11  1  0
 11 12  2  0
 12 13  1  0
 13 14  2  0
 14 15  1  0
 15 16  1  0
 16 17  2  0
 16 18  1  0
 18 19  1  0
 19 20  1  0
 20 21  1  0
 21 22  1  0
 22 23  2  0
 22 24  1  0
 24 25  1  0
 25 26  2  0
 15 27  2  0
 27 28  1  0
 28 29  2  0
  5 30  1  0
 30 31  2  0
 31  3  1  0
 29  9  1  0
 28 12  1  0
 25 19  1  0
  1 32  1  0
  1 33  1  0
  1 34  1  0
  2 35  1  0
  2 36  1  0
  4 37  1  0
 10 38  1  0
 11 39  1  0
 13 40  1  0
 18 41  1  0
 19 42  1  1
 20 43  1  0
 20 44  1  0
 21 45  1  0
 21 46  1  0
 24 47  1  0
 27 48  1  0
 29 49  1  0
 30 50  1  0
M  END
>  <meeko>  (908) 
{"is_sidechain": [true], "free_energy": -10.41, "intermolecular_energy": 0.0, "internal_energy": -10.41, "cluster_size": 17, "cluster_id": 1, "rank_in_cluster": 1}

>  <_RMSD_MCS_to_ref>  (908) 
0.7557853898796638

$$$$
ligand
     RDKit          3D

 48 51  0  0  0  0  0  0  0  0999 V2000
   18.9090   19.1540    7.5370 C   0  0  0  0  0  0  0  0  0  0  0  0
   18.7730   17.6460    7.6780 C   0  0  0  0  0  0  0  0  0  0  0  0
   19.9270   16.9200    7.0820 C   0  0  0  0  0  0  0  0  0  0  0  0
   21.2480   16.9070    7.4850 C   0  0  0  0  0  0  0  0  0  0  0  0
   21.8600   16.0660    6.6010 N   0  0  0  0  0  0  0  0  0  0  0  0
   23.5190   15.8450    6.4450 S   0  0  0  0  0  6  0  0  0  0  0  0
   24.1040   17.1710    6.4710 O   0  0  0  0  0  0  0  0  0  0  0  0
   23.6980   14.9340    5.3340 O   0  0  0  0  0  0  0  0  0  0  0  0
   23.9680   15.0030    7.9400 C   0  0  0  0  0  0  0  0  0  0  0  0
   24.1390   13.6220    7.9320 C   0  0  0  0  0  0  0  0  0  0  0  0
   24.5090   12.9820    9.1150 C   0  0  0  0  0  0  0  0  0  0  0  0
   24.7150   13.7010   10.2900 C   0  0  0  0  0  0  0  0  0  0  0  0
   25.0670   13.0840   11.4260 N   0  0  0  0  0  0  0  0  0  0  0  0
   25.2630   13.8170   12.5590 N   0  0  0  0  0  0  0  0  0  0  0  0
   25.0970   15.1520   12.4970 C   0  0  0  0  0  0  0  0  0  0  0  0
   25.3110   15.9460   13.7550 C   0  0  0  0  0  0  0  0  0  0  0  0
   25.3950   15.4230   14.8620 O   0  0  0  0  0  0  0  0  0  0  0  0
   25.3900   17.3170   13.5750 N   0  0  0  0  0  0  0  0  0  0  0  0
   25.4170   18.2460   14.6920 C   0  0  1  0  0  0  0  0  0  0  0  0
   26.3290   17.7660   15.8170 C   0  0  0  0  0  0  0  0  0  0  0  0
   26.3380   18.7950   16.9370 C   0  0  0  0  0  0  0  0  0  0  0  0
   26.7420   20.1580   16.4270 C   0  0  0  0  0  0  0  0  0  0  0  0
   27.3830   20.9520   17.1080 O   0  0  0  0  0  0  0  0  0  0  0  0
   26.3300   20.4860   15.1610 N   0  0  0  0  0  0  0  0  0  0  0  0
   25.9150   19.6060   14.1920 C   0  0  0  0  0  0  0  0  0  0  0  0
   25.9370   19.9130   13.0010 O   0  0  0  0  0  0  0  0  0  0  0  0
   24.7430   15.8430   11.3870 N   0  0  0  0  0  0  0  0  0  0  0  0
   24.5540   15.1020   10.2880 C   0  0  0  0  0  0  0  0  0  0  0  0
   24.1870   15.7380    9.1100 C   0  0  0  0  0  0  0  0  0  0  0  0
   20.9500   15.6400    5.6880 C   0  0  0  0  0  0  0  0  0  0  0  0
   19.7610   16.1360    5.9570 N   0  0  0  0  0  0  0  0  0  0  0  0
   18.9504   19.6134    8.5356 H   0  0  0  0  0  0  0  0  0  0  0  0
   19.8320   19.3891    6.9867 H   0  0  0  0  0  0  0  0  0  0  0  0
   18.0430   19.5504    6.9867 H   0  0  0  0  0  0  0  0  0  0  0  0
   18.7098   17.3943    8.7470 H   0  0  0  0  0  0  0  0  0  0  0  0
   17.8648   17.3368    7.1399 H   0  0  0  0  0  0  0  0  0  0  0  0
   21.7030   17.4503    8.3263 H   0  0  0  0  0  0  0  0  0  0  0  0
   23.9850   13.0447    7.0084 H   0  0  0  0  0  0  0  0  0  0  0  0
   24.6404   11.8899    9.1200 H   0  0  0  0  0  0  0  0  0  0  0  0
   25.4310   17.6910   12.6162 H   0  0  0  0  0  0  0  0  0  0  0  0
   24.3965   18.3208   15.0957 H   0  0  0  0  0  0  0  0  0  0  0  0
   25.9586   16.8055   16.2046 H   0  0  0  0  0  0  0  0  0  0  0  0
   27.3506   17.6362   15.4304 H   0  0  0  0  0  0  0  0  0  0  0  0
   25.3298   18.8597   17.3722 H   0  0  0  0  0  0  0  0  0  0  0  0
   27.0694   18.4771   17.6946 H   0  0  0  0  0  0  0  0  0  0  0  0
   26.3320   21.4859   14.9137 H   0  0  0  0  0  0  0  0  0  0  0  0
   24.0671   16.8314    9.0963 H   0  0  0  0  0  0  0  0  0  0  0  0
   21.1749   14.9738    4.8421 H   0  0  0  0  0  0  0  0  0  0  0  0
  1  2  1  0
  2  3  1  0
  3  4  2  0
  4  5  1  0
  5  6  1  0
  6  7  2  0
  6  8  2  0
  6  9  1  0
  9 10  2  0
 10 11  1  0
 11 12  2  0
 12 13  1  0
 13 14  2  0
 14 15  1  0
 15 16  1  0
 16 17  2  0
 16 18  1  0
 18 19  1  0
 19 20  1  0
 20 21  1  0
 21 22  1  0
 22 23  2  0
 22 24  1  0
 24 25  1  0
 25 26  2  0
 15 27  2  0
 27 28  1  0
 28 29  2  0
  5 30  1  0
 30 31  2  0
 31  3  1  0
 29  9  1  0
 28 12  1  0
 25 19  1  0
  1 32  1  0
  1 33  1  0
  1 34  1  0
  2 35  1  0
  2 36  1  0
  4 37  1  0
 10 38  1  0
 11 39  1  0
 18 40  1  0
 19 41  1  1
 20 42  1  0
 20 43  1  0
 21 44  1  0
 21 45  1  0
 24 46  1  0
 29 47  1  0
 30 48  1  0
M  END
>  <meeko>  (909) 
{"is_sidechain": [true], "free_energy": -10.41, "intermolecular_energy": 0.0, "internal_energy": -10.41, "cluster_size": 16, "cluster_id": 1, "rank_in_cluster": 1}

>  <_RMSD_MCS_to_ref>  (909) 
0.660663891686066

$$$$
ligand
     RDKit          3D

 50 53  0  0  0  0  0  0  0  0999 V2000
   18.9090   19.1540    7.5370 C   0  0  0  0  0  0  0  0  0  0  0  0
   18.7730   17.6460    7.6780 C   0  0  0  0  0  0  0  0  0  0  0  0
   20.0900   16.9550    7.6240 C   0  0  0  0  0  0  0  0  0  0  0  0
   21.0410   16.8190    8.6170 C   0  0  0  0  0  0  0  0  0  0  0  0
   22.0490   16.1170    8.0190 N   0  0  0  0  0  0  0  0  0  0  0  0
   23.4390   15.5620    8.7830 S   0  0  0  0  0  6  0  0  0  0  0  0
   24.3900   16.6470    8.6290 O   0  0  0  0  0  0  0  0  0  0  0  0
   23.7000   14.2310    8.2740 O   0  0  0  0  0  0  0  0  0  0  0  0
   23.0330   15.4350   10.4960 C   0  0  0  0  0  0  0  0  0  0  0  0
   23.9490   15.9160   11.4340 C   0  0  0  0  0  0  0  0  0  0  0  0
   23.6140   15.8050   12.7730 C   0  0  0  0  0  0  0  0  0  0  0  0
   24.5520   16.3060   13.8270 C   0  0  0  0  0  0  0  0  0  0  0  0
   25.0000   15.5620   14.6910 O   0  0  0  0  0  0  0  0  0  0  0  0
   24.8670   17.6410   13.7290 N   0  0  0  0  0  0  0  0  0  0  0  0
   25.8640   18.2730   14.5740 C   0  0  2  0  0  0  0  0  0  0  0  0
   25.6420   17.9550   16.0500 C   0  0  0  0  0  0  0  0  0  0  0  0
   26.7040   18.6520   16.8850 C   0  0  0  0  0  0  0  0  0  0  0  0
   26.7130   20.1410   16.6290 C   0  0  0  0  0  0  0  0  0  0  0  0
   26.9930   20.9580   17.5000 O   0  0  0  0  0  0  0  0  0  0  0  0
   26.4230   20.5450   15.3500 N   0  0  0  0  0  0  0  0  0  0  0  0
   25.8160   19.7910   14.3750 C   0  0  0  0  0  0  0  0  0  0  0  0
   25.2920   20.3280   13.4000 O   0  0  0  0  0  0  0  0  0  0  0  0
   22.4500   15.2650   13.2170 N   0  0  0  0  0  0  0  0  0  0  0  0
   21.5920   14.8100   12.2850 C   0  0  0  0  0  0  0  0  0  0  0  0
   21.8410   14.8510   10.9130 C   0  0  0  0  0  0  0  0  0  0  0  0
   20.9730   14.3550    9.9820 O   0  0  0  0  0  0  0  0  0  0  0  0
   19.9550   13.5320   10.5650 C   0  0  0  0  0  0  0  0  0  0  0  0
   19.4060   14.1820   11.8220 C   0  0  0  0  0  0  0  0  0  0  0  0
   20.4360   14.2920   12.8080 O   0  0  0  0  0  0  0  0  0  0  0  0
   21.7040   15.8450    6.7350 C   0  0  0  0  0  0  0  0  0  0  0  0
   20.5120   16.3340    6.4650 N   0  0  0  0  0  0  0  0  0  0  0  0
   18.9504   19.6134    8.5356 H   0  0  0  0  0  0  0  0  0  0  0  0
   19.8320   19.3891    6.9867 H   0  0  0  0  0  0  0  0  0  0  0  0
   18.0430   19.5504    6.9867 H   0  0  0  0  0  0  0  0  0  0  0  0
   18.2949   17.4222    8.6430 H   0  0  0  0  0  0  0  0  0  0  0  0
   18.1659   17.2816    6.8362 H   0  0  0  0  0  0  0  0  0  0  0  0
   20.9967   17.1906    9.6514 H   0  0  0  0  0  0  0  0  0  0  0  0
   24.9022   16.3668   11.1205 H   0  0  0  0  0  0  0  0  0  0  0  0
   24.3763   18.2150   13.0286 H   0  0  0  0  0  0  0  0  0  0  0  0
   26.8482   17.8772   14.2832 H   0  0  0  0  0  0  0  0  0  0  0  0
   24.6459   18.3080   16.3551 H   0  0  0  0  0  0  0  0  0  0  0  0
   25.7097   16.8680   16.2046 H   0  0  0  0  0  0  0  0  0  0  0  0
   26.4971   18.4727   17.9504 H   0  0  0  0  0  0  0  0  0  0  0  0
   27.6874   18.2456   16.6061 H   0  0  0  0  0  0  0  0  0  0  0  0
   26.6862   21.5079   15.0961 H   0  0  0  0  0  0  0  0  0  0  0  0
   19.1386   13.3971    9.8403 H   0  0  0  0  0  0  0  0  0  0  0  0
   20.3910   12.5570   10.8282 H   0  0  0  0  0  0  0  0  0  0  0  0
   19.0278   15.1855   11.5773 H   0  0  0  0  0  0  0  0  0  0  0  0
   18.5900   13.5618   12.2212 H   0  0  0  0  0  0  0  0  0  0  0  0
   22.3322   15.2933    6.0202 H   0  0  0  0  0  0  0  0  0  0  0  0
  1  2  1  0
  2  3  1  0
  3  4  2  0
  4  5  1  0
  5  6  1  0
  6  7  2  0
  6  8  2  0
  6  9  1  0
  9 10  2  0
 10 11  1  0
 11 12  1  0
 12 13  2  0
 12 14  1  0
 14 15  1  0
 15 16  1  0
 16 17  1  0
 17 18  1  0
 18 19  2  0
 18 20  1  0
 20 21  1  0
 21 22  2  0
 11 23  2  0
 23 24  1  0
 24 25  2  0
 25 26  1  0
 26 27  1  0
 27 28  1  0
 28 29  1  0
  5 30  1  0
 30 31  2  0
 31  3  1  0
 25  9  1  0
 21 15  1  0
 29 24  1  0
  1 32  1  0
  1 33  1  0
  1 34  1  0
  2 35  1  0
  2 36  1  0
  4 37  1  0
 10 38  1  0
 14 39  1  0
 15 40  1  6
 16 41  1  0
 16 42  1  0
 17 43  1  0
 17 44  1  0
 20 45  1  0
 27 46  1  0
 27 47  1  0
 28 48  1  0
 28 49  1  0
 30 50  1  0
M  END
>  <meeko>  (910) 
{"is_sidechain": [true], "free_energy": -10.41, "intermolecular_energy": 0.0, "internal_energy": -10.41, "cluster_size": 20, "cluster_id": 1, "rank_in_cluster": 1}

>  <_RMSD_MCS_to_ref>  (910) 
0.5929792014340246

$$$$
ligand
     RDKit          3D

 46 49  0  0  0  0  0  0  0  0999 V2000
   18.9090   19.1540    7.5370 C   0  0  0  0  0  0  0  0  0  0  0  0
   18.7730   17.6460    7.6780 C   0  0  0  0  0  0  0  0  0  0  0  0
   20.0920   16.9750    7.8260 C   0  0  0  0  0  0  0  0  0  0  0  0
   20.5100   16.0870    8.7990 C   0  0  0  0  0  0  0  0  0  0  0  0
   21.7990   15.7970    8.4560 N   0  0  0  0  0  0  0  0  0  0  0  0
   22.7570   14.5960    9.1370 S   0  0  0  0  0  6  0  0  0  0  0  0
   22.0780   13.3470    8.8490 O   0  0  0  0  0  0  0  0  0  0  0  0
   24.1130   14.8620    8.7020 O   0  0  0  0  0  0  0  0  0  0  0  0
   22.6590   14.9120   10.8790 C   0  0  0  0  0  0  0  0  0  0  0  0
   21.6990   14.2550   11.6520 C   0  0  0  0  0  0  0  0  0  0  0  0
   21.6290   14.5120   13.0210 C   0  0  0  0  0  0  0  0  0  0  0  0
   22.5180   15.4150   13.6140 C   0  0  0  0  0  0  0  0  0  0  0  0
   23.4890   16.0590   12.8380 C   0  0  0  0  0  0  0  0  0  0  0  0
   24.4440   17.0210   13.4350 C   0  0  0  0  0  0  0  0  0  0  0  0
   25.7000   16.7530   13.6020 N   0  0  0  0  0  0  0  0  0  0  0  0
   26.3010   17.9020   14.1650 O   0  0  0  0  0  0  0  0  0  0  0  0
   25.2610   18.7440   14.6870 C   0  0  1  0  0  0  0  0  0  0  0  0
   25.1030   18.4840   16.1870 C   0  0  0  0  0  0  0  0  0  0  0  0
   26.4080   18.7840   16.9150 C   0  0  0  0  0  0  0  0  0  0  0  0
   26.9030   20.1760   16.6050 C   0  0  0  0  0  0  0  0  0  0  0  0
   27.4590   20.8790   17.4440 O   0  0  0  0  0  0  0  0  0  0  0  0
   26.7060   20.6300   15.3260 N   0  0  0  0  0  0  0  0  0  0  0  0
   25.7110   20.1900   14.4830 C   0  0  0  0  0  0  0  0  0  0  0  0
   25.2090   20.9580   13.6650 O   0  0  0  0  0  0  0  0  0  0  0  0
   24.0290   18.3820   13.8780 C   0  0  0  0  0  0  0  0  0  0  0  0
   23.5620   15.8040   11.4640 C   0  0  0  0  0  0  0  0  0  0  0  0
   22.1130   16.4520    7.3090 C   0  0  0  0  0  0  0  0  0  0  0  0
   21.0990   17.1870    6.9040 N   0  0  0  0  0  0  0  0  0  0  0  0
   18.9504   19.6134    8.5356 H   0  0  0  0  0  0  0  0  0  0  0  0
   19.8320   19.3891    6.9867 H   0  0  0  0  0  0  0  0  0  0  0  0
   18.0430   19.5504    6.9867 H   0  0  0  0  0  0  0  0  0  0  0  0
   18.1623   17.4268    8.5662 H   0  0  0  0  0  0  0  0  0  0  0  0
   18.2995   17.2623    6.7623 H   0  0  0  0  0  0  0  0  0  0  0  0
   19.9354   15.7020    9.6543 H   0  0  0  0  0  0  0  0  0  0  0  0
   21.0043   13.5412   11.1852 H   0  0  0  0  0  0  0  0  0  0  0  0
   20.8725   14.0031   13.6364 H   0  0  0  0  0  0  0  0  0  0  0  0
   22.4538   15.6195   14.6929 H   0  0  0  0  0  0  0  0  0  0  0  0
   24.3077   19.1309   16.5858 H   0  0  0  0  0  0  0  0  0  0  0  0
   24.8412   17.4269   16.3418 H   0  0  0  0  0  0  0  0  0  0  0  0
   26.2418   18.6961   17.9988 H   0  0  0  0  0  0  0  0  0  0  0  0
   27.1670   18.0630   16.5773 H   0  0  0  0  0  0  0  0  0  0  0  0
   27.3488   21.3521   14.9708 H   0  0  0  0  0  0  0  0  0  0  0  0
   23.1200   18.3566   14.4970 H   0  0  0  0  0  0  0  0  0  0  0  0
   23.7633   19.0844   13.0742 H   0  0  0  0  0  0  0  0  0  0  0  0
   24.3252   16.3024   10.8483 H   0  0  0  0  0  0  0  0  0  0  0  0
   23.0803   16.3786    6.7903 H   0  0  0  0  0  0  0  0  0  0  0  0
  1  2  1  0
  2  3  1  0
  3  4  2  0
  4  5  1  0
  5  6  1  0
  6  7  2  0
  6  8  2  0
  6  9  1  0
  9 10  2  0
 10 11  1  0
 11 12  2  0
 12 13  1  0
 13 14  1  0
 14 15  2  0
 15 16  1  0
 17 16  1  6
 17 18  1  0
 18 19  1  0
 19 20  1  0
 20 21  2  0
 20 22  1  0
 22 23  1  0
 23 24  2  0
 17 25  1  0
 13 26  2  0
  5 27  1  0
 27 28  2  0
 28  3  1  0
 26  9  1  0
 25 14  1  0
 23 17  1  0
  1 29  1  0
  1 30  1  0
  1 31  1  0
  2 32  1  0
  2 33  1  0
  4 34  1  0
 10 35  1  0
 11 36  1  0
 12 37  1  0
 18 38  1  0
 18 39  1  0
 19 40  1  0
 19 41  1  0
 22 42  1  0
 25 43  1  0
 25 44  1  0
 26 45  1  0
 27 46  1  0
M  END
>  <meeko>  (911) 
{"is_sidechain": [true], "free_energy": -10.41, "intermolecular_energy": 0.0, "internal_energy": -10.41, "cluster_size": 20, "cluster_id": 1, "rank_in_cluster": 1}

>  <_RMSD_MCS_to_ref>  (911) 
0.7321686110452972

$$$$
ligand
     RDKit          3D

 46 49  0  0  0  0  0  0  0  0999 V2000
   18.9090   19.1540    7.5370 C   0  0  0  0  0  0  0  0  0  0  0  0
   18.7730   17.6460    7.6780 C   0  0  0  0  0  0  0  0  0  0  0  0
   20.0710   16.9440    7.4830 C   0  0  0  0  0  0  0  0  0  0  0  0
   21.1330   16.8250    8.3580 C   0  0  0  0  0  0  0  0  0  0  0  0
   22.0550   16.0930    7.6680 N   0  0  0  0  0  0  0  0  0  0  0  0
   23.4660   15.4320    8.2990 S   0  0  0  0  0  6  0  0  0  0  0  0
   24.5400   16.3230    7.9080 O   0  0  0  0  0  0  0  0  0  0  0  0
   23.4400   14.0320    7.9230 O   0  0  0  0  0  0  0  0  0  0  0  0
   23.2430   15.5570   10.0520 C   0  0  0  0  0  0  0  0  0  0  0  0
   22.2610   14.7900   10.6860 C   0  0  0  0  0  0  0  0  0  0  0  0
   22.0840   14.9040   12.0650 C   0  0  0  0  0  0  0  0  0  0  0  0
   22.8900   15.7730   12.8080 C   0  0  0  0  0  0  0  0  0  0  0  0
   23.8900   16.5200   12.1720 C   0  0  0  0  0  0  0  0  0  0  0  0
   24.7640   17.4640   12.9180 C   0  0  0  0  0  0  0  0  0  0  0  0
   25.8250   17.8320   12.4300 O   0  0  0  0  0  0  0  0  0  0  0  0
   24.3240   17.8650   14.1660 N   0  0  0  0  0  0  0  0  0  0  0  0
   25.2230   18.6350   15.0610 C   0  0  1  0  0  0  0  0  0  0  0  0
   24.8390   18.5830   16.5870 C   0  0  0  0  0  0  0  0  0  0  0  0
   26.3800   18.7350   16.7980 C   0  0  1  0  0  0  0  0  0  0  0  0
   26.4900   17.8270   15.5240 C   0  0  0  0  0  0  0  0  0  0  0  0
   26.9060   20.2110   16.5750 C   0  0  0  0  0  0  0  0  0  0  0  0
   27.7540   20.7950   17.2450 O   0  0  0  0  0  0  0  0  0  0  0  0
   26.3360   20.8170   15.4710 N   0  0  0  0  0  0  0  0  0  0  0  0
   25.6090   20.1070   14.5340 C   0  0  0  0  0  0  0  0  0  0  0  0
   25.3990   20.5780   13.4170 O   0  0  0  0  0  0  0  0  0  0  0  0
   24.0650   16.4150   10.7880 C   0  0  0  0  0  0  0  0  0  0  0  0
   21.5410   15.7590    6.4560 C   0  0  0  0  0  0  0  0  0  0  0  0
   20.3370   16.2710    6.3070 N   0  0  0  0  0  0  0  0  0  0  0  0
   18.9504   19.6134    8.5356 H   0  0  0  0  0  0  0  0  0  0  0  0
   19.8320   19.3891    6.9867 H   0  0  0  0  0  0  0  0  0  0  0  0
   18.0430   19.5504    6.9867 H   0  0  0  0  0  0  0  0  0  0  0  0
   18.3942   17.4170    8.6850 H   0  0  0  0  0  0  0  0  0  0  0  0
   18.0790   17.2952    6.9000 H   0  0  0  0  0  0  0  0  0  0  0  0
   21.2165   17.2282    9.3780 H   0  0  0  0  0  0  0  0  0  0  0  0
   21.6326   14.1017   10.1018 H   0  0  0  0  0  0  0  0  0  0  0  0
   21.3085   14.3089   12.5695 H   0  0  0  0  0  0  0  0  0  0  0  0
   22.7384   15.8699   13.8932 H   0  0  0  0  0  0  0  0  0  0  0  0
   23.3703   17.6288   14.4751 H   0  0  0  0  0  0  0  0  0  0  0  0
   24.2262   19.4212   16.9501 H   0  0  0  0  0  0  0  0  0  0  0  0
   24.2353   17.7824   17.0393 H   0  0  0  0  0  0  0  0  0  0  0  0
   26.8890   18.5114   17.7472 H   0  0  0  0  0  0  0  0  0  0  0  0
   27.3941   17.9727   14.9145 H   0  0  0  0  0  0  0  0  0  0  0  0
   26.5384   16.7285   15.5564 H   0  0  0  0  0  0  0  0  0  0  0  0
   26.4571   21.8317   15.3423 H   0  0  0  0  0  0  0  0  0  0  0  0
   24.8444   17.0039   10.2823 H   0  0  0  0  0  0  0  0  0  0  0  0
   22.0586   15.1460    5.7034 H   0  0  0  0  0  0  0  0  0  0  0  0
  1  2  1  0
  2  3  1  0
  3  4  2  0
  4  5  1  0
  5  6  1  0
  6  7  2  0
  6  8  2  0
  6  9  1  0
  9 10  2  0
 10 11  1  0
 11 12  2  0
 12 13  1  0
 13 14  1  0
 14 15  2  0
 14 16  1  0
 17 16  1  6
 17 18  1  0
 18 19  1  0
 19 20  1  0
 19 21  1  0
 21 22  2  0
 21 23  1  0
 23 24  1  0
 24 25  2  0
 13 26  2  0
  5 27  1  0
 27 28  2  0
 28  3  1  0
 26  9  1  0
 20 17  1  0
 24 17  1  0
  1 29  1  0
  1 30  1  0
  1 31  1  0
  2 32  1  0
  2 33  1  0
  4 34  1  0
 10 35  1  0
 11 36  1  0
 12 37  1  0
 16 38  1  0
 18 39  1  0
 18 40  1  0
 19 41  1  1
 20 42  1  0
 20 43  1  0
 23 44  1  0
 26 45  1  0
 27 46  1  0
M  END
>  <meeko>  (912) 
{"is_sidechain": [true], "free_energy": -10.41, "intermolecular_energy": 0.0, "internal_energy": -10.41, "cluster_size": 20, "cluster_id": 1, "rank_in_cluster": 1}

>  <_RMSD_MCS_to_ref>  (912) 
0.7867060018414337

$$$$
ligand
     RDKit          3D

 56 60  0  0  0  0  0  0  0  0999 V2000
   18.8250   19.0170    7.5350 C   0  0  0  0  0  0  0  0  0  0  0  0
   18.5200   17.5420    7.7330 C   0  0  0  0  0  0  0  0  0  0  0  0
   19.7530   16.7360    7.9450 C   0  0  0  0  0  0  0  0  0  0  0  0
   20.4900   16.5650    9.1000 C   0  0  0  0  0  0  0  0  0  0  0  0
   21.4980   15.7210    8.7320 N   0  0  0  0  0  0  0  0  0  0  0  0
   22.8380   15.3310    9.6700 S   0  0  0  0  0  6  0  0  0  0  0  0
   23.1690   13.9660    9.3130 O   0  0  0  0  0  0  0  0  0  0  0  0
   23.7780   16.4220    9.5120 O   0  0  0  0  0  0  0  0  0  0  0  0
   22.2180   15.3650   11.3240 C   0  0  0  0  0  0  0  0  0  0  0  0
   21.0950   14.5830   11.6510 C   0  0  0  0  0  0  0  0  0  0  0  0
   20.5760   14.5440   12.9680 C   0  0  0  0  0  0  0  0  0  0  0  0
   19.4120   13.7040   13.2890 C   0  0  0  0  0  0  0  0  0  0  0  0
   18.2080   14.2750   13.7360 C   0  0  0  0  0  0  0  0  0  0  0  0
   17.1010   13.4780   14.0390 C   0  0  0  0  0  0  0  0  0  0  0  0
   17.1780   12.0940   13.9010 C   0  0  0  0  0  0  0  0  0  0  0  0
   18.3630   11.5070   13.4630 C   0  0  0  0  0  0  0  0  0  0  0  0
   19.4690   12.3060   13.1590 C   0  0  0  0  0  0  0  0  0  0  0  0
   21.1990   15.3210   13.9580 C   0  0  0  0  0  0  0  0  0  0  0  0
   22.2870   16.0990   13.5990 C   0  0  0  0  0  0  0  0  0  0  0  0
   22.8060   16.1420   12.3060 C   0  0  0  0  0  0  0  0  0  0  0  0
   23.9810   17.0640   12.2680 C   0  0  0  0  0  0  0  0  0  0  0  0
   24.0380   17.5720   13.6320 N   0  0  0  0  0  0  0  0  0  0  0  0
   25.1910   18.2830   14.1720 C   0  0  2  0  0  0  0  0  0  0  0  0
   25.5040   17.8850   15.6110 C   0  0  0  0  0  0  0  0  0  0  0  0
   26.7610   18.6070   16.0710 C   0  0  0  0  0  0  0  0  0  0  0  0
   26.6240   20.1040   15.9120 C   0  0  0  0  0  0  0  0  0  0  0  0
   27.1210   20.8970   16.7050 O   0  0  0  0  0  0  0  0  0  0  0  0
   25.9250   20.5430   14.8170 N   0  0  0  0  0  0  0  0  0  0  0  0
   25.0040   19.8090   14.1060 C   0  0  0  0  0  0  0  0  0  0  0  0
   24.1040   20.3710   13.4850 O   0  0  0  0  0  0  0  0  0  0  0  0
   23.1000   16.9690   14.4540 C   0  0  0  0  0  0  0  0  0  0  0  0
   22.9550   17.1030   15.6530 O   0  0  0  0  0  0  0  0  0  0  0  0
   21.3830   15.4390    7.4090 C   0  0  0  0  0  0  0  0  0  0  0  0
   20.3270   16.0380    6.9010 N   0  0  0  0  0  0  0  0  0  0  0  0
   18.9260   19.5054    8.5155 H   0  0  0  0  0  0  0  0  0  0  0  0
   19.7645   19.1250    6.9731 H   0  0  0  0  0  0  0  0  0  0  0  0
   18.0054   19.4887    6.9731 H   0  0  0  0  0  0  0  0  0  0  0  0
   17.8682   17.4300    8.6120 H   0  0  0  0  0  0  0  0  0  0  0  0
   18.0287   17.1735    6.8204 H   0  0  0  0  0  0  0  0  0  0  0  0
   20.3069   17.0076   10.0902 H   0  0  0  0  0  0  0  0  0  0  0  0
   20.6084   13.9875   10.8646 H   0  0  0  0  0  0  0  0  0  0  0  0
   18.1360   15.3668   13.8491 H   0  0  0  0  0  0  0  0  0  0  0  0
   16.1674   13.9441   14.3870 H   0  0  0  0  0  0  0  0  0  0  0  0
   16.3059   11.4666   14.1371 H   0  0  0  0  0  0  0  0  0  0  0  0
   18.4284   10.4141   13.3563 H   0  0  0  0  0  0  0  0  0  0  0  0
   20.3994   11.8325   12.8123 H   0  0  0  0  0  0  0  0  0  0  0  0
   20.8313   15.3119   14.9947 H   0  0  0  0  0  0  0  0  0  0  0  0
   24.9020   16.5214   12.0087 H   0  0  0  0  0  0  0  0  0  0  0  0
   23.8873   17.8573   11.5118 H   0  0  0  0  0  0  0  0  0  0  0  0
   26.0395   17.9911   13.5358 H   0  0  0  0  0  0  0  0  0  0  0  0
   24.6615   18.1641   16.2608 H   0  0  0  0  0  0  0  0  0  0  0  0
   25.6629   16.7979   15.6660 H   0  0  0  0  0  0  0  0  0  0  0  0
   26.9403   18.3742   17.1310 H   0  0  0  0  0  0  0  0  0  0  0  0
   27.6032   18.2676   15.4501 H   0  0  0  0  0  0  0  0  0  0  0  0
   26.1052   21.5060   14.4992 H   0  0  0  0  0  0  0  0  0  0  0  0
   22.0752   14.7997    6.8414 H   0  0  0  0  0  0  0  0  0  0  0  0
  1  2  1  0
  2  3  1  0
  3  4  2  0
  4  5  1  0
  5  6  1  0
  6  7  2  0
  6  8  2  0
  6  9  1  0
  9 10  2  0
 10 11  1  0
 11 12  1  0
 12 13  2  0
 13 14  1  0
 14 15  2  0
 15 16  1  0
 16 17  2  0
 11 18  2  0
 18 19  1  0
 19 20  2  0
 20 21  1  0
 21 22  1  0
 22 23  1  0
 23 24  1  0
 24 25  1  0
 25 26  1  0
 26 27  2  0
 26 28  1  0
 28 29  1  0
 29 30  2  0
 22 31  1  0
 31 32  2  0
  5 33  1  0
 33 34  2  0
 34  3  1  0
 20  9  1  0
 29 23  1  0
 17 12  1  0
 31 19  1  0
  1 35  1  0
  1 36  1  0
  1 37  1  0
  2 38  1  0
  2 39  1  0
  4 40  1  0
 10 41  1  0
 13 42  1  0
 14 43  1  0
 15 44  1  0
 16 45  1  0
 17 46  1  0
 18 47  1  0
 21 48  1  0
 21 49  1  0
 23 50  1  6
 24 51  1  0
 24 52  1  0
 25 53  1  0
 25 54  1  0
 28 55  1  0
 33 56  1  0
M  END
>  <meeko>  (913) 
{"is_sidechain": [true], "free_energy": -10.4, "intermolecular_energy": 0.0, "internal_energy": -10.4, "cluster_size": 16, "cluster_id": 1, "rank_in_cluster": 1}

>  <_RMSD_MCS_to_ref>  (913) 
1.5441172235293537

$$$$
ligand
     RDKit          3D

 57 61  0  0  0  0  0  0  0  0999 V2000
   18.7970   18.8170    7.7190 C   0  0  0  0  0  0  0  0  0  0  0  0
   18.5280   17.3290    7.8810 C   0  0  0  0  0  0  0  0  0  0  0  0
   19.7710   16.5180    7.7800 C   0  0  0  0  0  0  0  0  0  0  0  0
   20.2560   15.5570    8.6470 C   0  0  0  0  0  0  0  0  0  0  0  0
   21.4110   15.1280    8.0570 N   0  0  0  0  0  0  0  0  0  0  0  0
   22.5470   14.1160    8.7650 S   0  0  0  0  0  6  0  0  0  0  0  0
   23.7320   14.2660    7.9380 O   0  0  0  0  0  0  0  0  0  0  0  0
   21.9360   12.8150    8.9550 O   0  0  0  0  0  0  0  0  0  0  0  0
   22.9240   14.7990   10.3620 C   0  0  0  0  0  0  0  0  0  0  0  0
   24.0900   15.5790   10.4920 C   0  0  0  0  0  0  0  0  0  0  0  0
   24.4370   16.0330   11.7520 C   0  0  0  0  0  0  0  0  0  0  0  0
   23.6490   15.7160   12.8560 C   0  0  0  0  0  0  0  0  0  0  0  0
   22.5030   14.9520   12.7650 C   0  0  0  0  0  0  0  0  0  0  0  0
   22.1450   14.4780   11.4940 C   0  0  0  0  0  0  0  0  0  0  0  0
   20.8950   13.7090   11.3760 C   0  0  0  0  0  0  0  0  0  0  0  0
   19.8890   14.3110   11.0230 O   0  0  0  0  0  0  0  0  0  0  0  0
   20.9470   12.3750   11.6900 N   0  0  0  0  0  0  0  0  0  0  0  0
   22.0580   11.4430   11.5160 C   0  0  0  0  0  0  0  0  0  0  0  0
   21.0090   10.3280   11.5900 C   0  0  0  0  0  0  0  0  0  0  0  0
   19.9450   11.3880   11.2930 C   0  0  0  0  0  0  0  0  0  0  0  0
   24.2530   16.3340   14.0410 C   0  0  0  0  0  0  0  0  0  0  0  0
   23.7590   16.3110   15.1500 O   0  0  0  0  0  0  0  0  0  0  0  0
   25.4320   16.9320   13.6250 N   0  0  0  0  0  0  0  0  0  0  0  0
   26.2090   17.8640   14.4380 C   0  0  2  0  0  0  0  0  0  0  0  0
   25.9990   17.6980   15.9420 C   0  0  0  0  0  0  0  0  0  0  0  0
   26.8990   18.6720   16.6870 C   0  0  0  0  0  0  0  0  0  0  0  0
   26.6440   20.0970   16.2510 C   0  0  0  0  0  0  0  0  0  0  0  0
   26.9110   21.0570   16.9660 O   0  0  0  0  0  0  0  0  0  0  0  0
   26.1710   20.2760   14.9750 N   0  0  0  0  0  0  0  0  0  0  0  0
   25.9430   19.3170   14.0150 C   0  0  0  0  0  0  0  0  0  0  0  0
   25.6430   19.6430   12.8660 O   0  0  0  0  0  0  0  0  0  0  0  0
   25.5870   16.8870   12.1770 C   0  0  0  0  0  0  0  0  0  0  0  0
   21.6280   15.8500    6.9280 C   0  0  0  0  0  0  0  0  0  0  0  0
   20.6400   16.6960    6.7220 N   0  0  0  0  0  0  0  0  0  0  0  0
   18.8815   19.2845    8.7111 H   0  0  0  0  0  0  0  0  0  0  0  0
   19.7359   18.9616    7.1643 H   0  0  0  0  0  0  0  0  0  0  0  0
   17.9682   19.2812    7.1643 H   0  0  0  0  0  0  0  0  0  0  0  0
   18.0721   17.1569    8.8672 H   0  0  0  0  0  0  0  0  0  0  0  0
   17.8551   17.0175    7.0685 H   0  0  0  0  0  0  0  0  0  0  0  0
   19.8135   15.2159    9.5946 H   0  0  0  0  0  0  0  0  0  0  0  0
   24.7082   15.8207    9.6148 H   0  0  0  0  0  0  0  0  0  0  0  0
   21.8951   14.7241   13.6530 H   0  0  0  0  0  0  0  0  0  0  0  0
   22.5820   11.5223   10.5521 H   0  0  0  0  0  0  0  0  0  0  0  0
   22.9456   11.4589   12.1655 H   0  0  0  0  0  0  0  0  0  0  0  0
   21.1105    9.5525   10.8165 H   0  0  0  0  0  0  0  0  0  0  0  0
   20.9334    9.6662   12.4654 H   0  0  0  0  0  0  0  0  0  0  0  0
   19.6304   11.4456   10.2405 H   0  0  0  0  0  0  0  0  0  0  0  0
   18.9418   11.3556   11.7431 H   0  0  0  0  0  0  0  0  0  0  0  0
   27.2633   17.6151   14.2470 H   0  0  0  0  0  0  0  0  0  0  0  0
   24.9478   17.9053   16.1911 H   0  0  0  0  0  0  0  0  0  0  0  0
   26.2479   16.6679   16.2368 H   0  0  0  0  0  0  0  0  0  0  0  0
   26.7038   18.5869   17.7662 H   0  0  0  0  0  0  0  0  0  0  0  0
   27.9458   18.4211   16.4605 H   0  0  0  0  0  0  0  0  0  0  0  0
   25.9611   21.2469   14.7028 H   0  0  0  0  0  0  0  0  0  0  0  0
   25.5173   17.8935   11.7388 H   0  0  0  0  0  0  0  0  0  0  0  0
   26.5637   16.4978   11.8536 H   0  0  0  0  0  0  0  0  0  0  0  0
   22.5072   15.7432    6.2757 H   0  0  0  0  0  0  0  0  0  0  0  0
  1  2  1  0
  2  3  1  0
  3  4  2  0
  4  5  1  0
  5  6  1  0
  6  7  2  0
  6  8  2  0
  6  9  1  0
  9 10  2  0
 10 11  1  0
 11 12  2  0
 12 13  1  0
 13 14  2  0
 14 15  1  0
 15 16  2  0
 15 17  1  0
 17 18  1  0
 18 19  1  0
 19 20  1  0
 12 21  1  0
 21 22  2  0
 21 23  1  0
 23 24  1  0
 24 25  1  0
 25 26  1  0
 26 27  1  0
 27 28  2  0
 27 29  1  0
 29 30  1  0
 30 31  2  0
 23 32  1  0
  5 33  1  0
 33 34  2  0
 34  3  1  0
 14  9  1  0
 20 17  1  0
 30 24  1  0
 32 11  1  0
  1 35  1  0
  1 36  1  0
  1 37  1  0
  2 38  1  0
  2 39  1  0
  4 40  1  0
 10 41  1  0
 13 42  1  0
 18 43  1  0
 18 44  1  0
 19 45  1  0
 19 46  1  0
 20 47  1  0
 20 48  1  0
 24 49  1  1
 25 50  1  0
 25 51  1  0
 26 52  1  0
 26 53  1  0
 29 54  1  0
 32 55  1  0
 32 56  1  0
 33 57  1  0
M  END
>  <meeko>  (914) 
{"is_sidechain": [true], "free_energy": -10.4, "intermolecular_energy": 0.0, "internal_energy": -10.4, "cluster_size": 11, "cluster_id": 1, "rank_in_cluster": 1}

>  <_RMSD_MCS_to_ref>  (914) 
1.0156430092420377

$$$$
ligand
     RDKit          3D

 50 53  0  0  0  0  0  0  0  0999 V2000
   18.7970   18.8170    7.7190 C   0  0  0  0  0  0  0  0  0  0  0  0
   18.5280   17.3290    7.8810 C   0  0  0  0  0  0  0  0  0  0  0  0
   19.7770   16.5230    7.8110 C   0  0  0  0  0  0  0  0  0  0  0  0
   20.1030   15.3660    8.4920 C   0  0  0  0  0  0  0  0  0  0  0  0
   21.3550   15.0540    8.0410 N   0  0  0  0  0  0  0  0  0  0  0  0
   22.3560   13.8560    8.6610 S   0  0  0  0  0  6  0  0  0  0  0  0
   21.4620   12.7820    9.0450 O   0  0  0  0  0  0  0  0  0  0  0  0
   23.4000   13.6880    7.6700 O   0  0  0  0  0  0  0  0  0  0  0  0
   23.1190   14.4810   10.1460 C   0  0  0  0  0  0  0  0  0  0  0  0
   24.4130   15.0010   10.0980 C   0  0  0  0  0  0  0  0  0  0  0  0
   24.9920   15.4870   11.2630 C   0  0  0  0  0  0  0  0  0  0  0  0
   24.2940   15.4570   12.4820 C   0  0  0  0  0  0  0  0  0  0  0  0
   25.0300   16.0130   13.6660 C   0  0  0  0  0  0  0  0  0  0  0  0
   25.2870   15.2920   14.6260 O   0  0  0  0  0  0  0  0  0  0  0  0
   25.3930   17.3370   13.6360 N   0  0  0  0  0  0  0  0  0  0  0  0
   26.2310   17.9430   14.6560 C   0  0  2  0  0  0  0  0  0  0  0  0
   25.6240   17.8000   16.0490 C   0  0  0  0  0  0  0  0  0  0  0  0
   26.5380   18.4570   17.0720 C   0  0  0  0  0  0  0  0  0  0  0  0
   26.8010   19.9020   16.7220 C   0  0  0  0  0  0  0  0  0  0  0  0
   26.9660   20.7670   17.5770 O   0  0  0  0  0  0  0  0  0  0  0  0
   26.8820   20.2060   15.3870 N   0  0  0  0  0  0  0  0  0  0  0  0
   26.4230   19.4330   14.3470 C   0  0  0  0  0  0  0  0  0  0  0  0
   26.2100   19.9330   13.2430 O   0  0  0  0  0  0  0  0  0  0  0  0
   22.9900   14.9380   12.5570 C   0  0  0  0  0  0  0  0  0  0  0  0
   22.3250   14.9210   13.7380 N   0  0  0  0  0  0  0  0  0  0  0  0
   21.0700   14.4350   13.8060 C   0  0  0  0  0  0  0  0  0  0  0  0
   20.4030   13.9310   12.7190 C   0  0  0  0  0  0  0  0  0  0  0  0
   21.0680   13.9340   11.5000 C   0  0  0  0  0  0  0  0  0  0  0  0
   22.3860   14.4420   11.3710 C   0  0  0  0  0  0  0  0  0  0  0  0
   21.7570   15.9990    7.1510 C   0  0  0  0  0  0  0  0  0  0  0  0
   20.8220   16.9110    6.9960 N   0  0  0  0  0  0  0  0  0  0  0  0
   18.8815   19.2845    8.7111 H   0  0  0  0  0  0  0  0  0  0  0  0
   19.7359   18.9616    7.1643 H   0  0  0  0  0  0  0  0  0  0  0  0
   17.9682   19.2812    7.1643 H   0  0  0  0  0  0  0  0  0  0  0  0
   18.0506   17.1592    8.8574 H   0  0  0  0  0  0  0  0  0  0  0  0
   17.8735   17.0115    7.0559 H   0  0  0  0  0  0  0  0  0  0  0  0
   19.4944   14.8208    9.2285 H   0  0  0  0  0  0  0  0  0  0  0  0
   24.9679   15.0257    9.1486 H   0  0  0  0  0  0  0  0  0  0  0  0
   26.0106   15.9009   11.2310 H   0  0  0  0  0  0  0  0  0  0  0  0
   25.0576   17.9240   12.8590 H   0  0  0  0  0  0  0  0  0  0  0  0
   27.1980   17.4187   14.6457 H   0  0  0  0  0  0  0  0  0  0  0  0
   24.6386   18.2883   16.0711 H   0  0  0  0  0  0  0  0  0  0  0  0
   25.5109   16.7330   16.2912 H   0  0  0  0  0  0  0  0  0  0  0  0
   26.0613   18.4088   18.0621 H   0  0  0  0  0  0  0  0  0  0  0  0
   27.4979   17.9198   17.0767 H   0  0  0  0  0  0  0  0  0  0  0  0
   27.3301   21.0999   15.1398 H   0  0  0  0  0  0  0  0  0  0  0  0
   20.5566   14.4429   14.7788 H   0  0  0  0  0  0  0  0  0  0  0  0
   19.3792   13.5389   12.8093 H   0  0  0  0  0  0  0  0  0  0  0  0
   20.5594   13.5320   10.6113 H   0  0  0  0  0  0  0  0  0  0  0  0
   22.7275   16.0009    6.6332 H   0  0  0  0  0  0  0  0  0  0  0  0
  1  2  1  0
  2  3  1  0
  3  4  2  0
  4  5  1  0
  5  6  1  0
  6  7  2  0
  6  8  2  0
  6  9  1  0
  9 10  2  0
 10 11  1  0
 11 12  2  0
 12 13  1  0
 13 14  2  0
 13 15  1  0
 15 16  1  0
 16 17  1  0
 17 18  1  0
 18 19  1  0
 19 20  2  0
 19 21  1  0
 21 22  1  0
 22 23  2  0
 12 24  1  0
 24 25  2  0
 25 26  1  0
 26 27  2  0
 27 28  1  0
 28 29  2  0
  5 30  1  0
 30 31  2  0
 31  3  1  0
 29  9  1  0
 22 16  1  0
 29 24  1  0
  1 32  1  0
  1 33  1  0
  1 34  1  0
  2 35  1  0
  2 36  1  0
  4 37  1  0
 10 38  1  0
 11 39  1  0
 15 40  1  0
 16 41  1  1
 17 42  1  0
 17 43  1  0
 18 44  1  0
 18 45  1  0
 21 46  1  0
 26 47  1  0
 27 48  1  0
 28 49  1  0
 30 50  1  0
M  END
>  <meeko>  (915) 
{"is_sidechain": [true], "free_energy": -10.4, "intermolecular_energy": 0.0, "internal_energy": -10.4, "cluster_size": 12, "cluster_id": 1, "rank_in_cluster": 1}

>  <_RMSD_MCS_to_ref>  (915) 
0.8476609647206312

$$$$
ligand
     RDKit          3D

 48 51  0  0  0  0  0  0  0  0999 V2000
   18.9090   19.1540    7.5370 C   0  0  0  0  0  0  0  0  0  0  0  0
   18.7730   17.6460    7.6780 C   0  0  0  0  0  0  0  0  0  0  0  0
   20.0500   16.9390    7.3920 C   0  0  0  0  0  0  0  0  0  0  0  0
   20.6940   15.9710    8.1380 C   0  0  0  0  0  0  0  0  0  0  0  0
   21.8190   15.6880    7.4170 N   0  0  0  0  0  0  0  0  0  0  0  0
   22.9650   14.5130    7.8110 S   0  0  0  0  0  6  0  0  0  0  0  0
   22.2220   13.4800    8.5140 O   0  0  0  0  0  0  0  0  0  0  0  0
   23.5850   14.2080    6.5290 O   0  0  0  0  0  0  0  0  0  0  0  0
   24.1530   15.2020    8.8680 C   0  0  0  0  0  0  0  0  0  0  0  0
   25.3410   15.5840    8.3510 C   0  0  0  0  0  0  0  0  0  0  0  0
   26.3810   16.1480    9.1930 C   0  0  0  0  0  0  0  0  0  0  0  0
   26.1550   16.2750   10.5100 C   0  0  0  0  0  0  0  0  0  0  0  0
   24.9300   15.8680   11.0500 N   0  0  0  0  0  0  0  0  0  0  0  0
   24.4570   15.9000   12.3560 C   0  0  0  0  0  0  0  0  0  0  0  0
   25.1850   16.3780   13.5060 C   0  0  0  0  0  0  0  0  0  0  0  0
   25.5700   15.6540   14.4210 O   0  0  0  0  0  0  0  0  0  0  0  0
   25.4460   17.7290   13.5220 N   0  0  0  0  0  0  0  0  0  0  0  0
   26.2810   18.3340   14.5510 C   0  0  2  0  0  0  0  0  0  0  0  0
   25.8220   17.9660   15.9580 C   0  0  0  0  0  0  0  0  0  0  0  0
   26.7090   18.6620   16.9780 C   0  0  0  0  0  0  0  0  0  0  0  0
   26.7250   20.1590   16.7640 C   0  0  0  0  0  0  0  0  0  0  0  0
   26.8240   20.9560   17.6910 O   0  0  0  0  0  0  0  0  0  0  0  0
   26.6530   20.5930   15.4650 N   0  0  0  0  0  0  0  0  0  0  0  0
   26.2200   19.8560   14.3900 C   0  0  0  0  0  0  0  0  0  0  0  0
   25.8210   20.3980   13.3610 O   0  0  0  0  0  0  0  0  0  0  0  0
   23.1840   15.3630   12.2670 C   0  0  0  0  0  0  0  0  0  0  0  0
   22.8600   15.0200   10.9850 N   0  0  0  0  0  0  0  0  0  0  0  0
   23.9110   15.3280   10.2620 C   0  0  0  0  0  0  0  0  0  0  0  0
   21.8180   16.4270    6.2780 C   0  0  0  0  0  0  0  0  0  0  0  0
   20.7630   17.2170    6.2420 N   0  0  0  0  0  0  0  0  0  0  0  0
   18.9504   19.6134    8.5356 H   0  0  0  0  0  0  0  0  0  0  0  0
   19.8320   19.3891    6.9867 H   0  0  0  0  0  0  0  0  0  0  0  0
   18.0430   19.5504    6.9867 H   0  0  0  0  0  0  0  0  0  0  0  0
   18.4614   17.4128    8.7068 H   0  0  0  0  0  0  0  0  0  0  0  0
   18.0257   17.3038    6.9469 H   0  0  0  0  0  0  0  0  0  0  0  0
   20.3742   15.5295    9.0934 H   0  0  0  0  0  0  0  0  0  0  0  0
   25.5239   15.4657    7.2728 H   0  0  0  0  0  0  0  0  0  0  0  0
   27.3398   16.4664    8.7580 H   0  0  0  0  0  0  0  0  0  0  0  0
   26.9317   16.6984   11.1638 H   0  0  0  0  0  0  0  0  0  0  0  0
   25.0408   18.3274   12.7881 H   0  0  0  0  0  0  0  0  0  0  0  0
   27.3064   17.9559   14.4263 H   0  0  0  0  0  0  0  0  0  0  0  0
   24.7793   18.2866   16.0993 H   0  0  0  0  0  0  0  0  0  0  0  0
   25.8919   16.8766   16.0936 H   0  0  0  0  0  0  0  0  0  0  0  0
   26.3287   18.4487   17.9879 H   0  0  0  0  0  0  0  0  0  0  0  0
   27.7353   18.2841   16.8599 H   0  0  0  0  0  0  0  0  0  0  0  0
   26.9512   21.5611   15.2784 H   0  0  0  0  0  0  0  0  0  0  0  0
   22.5123   15.2283   13.1276 H   0  0  0  0  0  0  0  0  0  0  0  0
   22.5890   16.3741    5.4952 H   0  0  0  0  0  0  0  0  0  0  0  0
  1  2  1  0
  2  3  1  0
  3  4  2  0
  4  5  1  0
  5  6  1  0
  6  7  2  0
  6  8  2  0
  6  9  1  0
  9 10  2  0
 10 11  1  0
 11 12  2  0
 12 13  1  0
 13 14  1  0
 14 15  1  0
 15 16  2  0
 15 17  1  0
 17 18  1  0
 18 19  1  0
 19 20  1  0
 20 21  1  0
 21 22  2  0
 21 23  1  0
 23 24  1  0
 24 25  2  0
 14 26  2  0
 26 27  1  0
 27 28  2  0
  5 29  1  0
 29 30  2  0
 30  3  1  0
 28  9  1  0
 28 13  1  0
 24 18  1  0
  1 31  1  0
  1 32  1  0
  1 33  1  0
  2 34  1  0
  2 35  1  0
  4 36  1  0
 10 37  1  0
 11 38  1  0
 12 39  1  0
 17 40  1  0
 18 41  1  6
 19 42  1  0
 19 43  1  0
 20 44  1  0
 20 45  1  0
 23 46  1  0
 26 47  1  0
 29 48  1  0
M  END
>  <meeko>  (916) 
{"is_sidechain": [true], "free_energy": -10.4, "intermolecular_energy": 0.0, "internal_energy": -10.4, "cluster_size": 20, "cluster_id": 1, "rank_in_cluster": 1}

>  <_RMSD_MCS_to_ref>  (916) 
0.8810733983802557

$$$$
ligand
     RDKit          3D

 47 50  0  0  0  0  0  0  0  0999 V2000
   18.9090   19.1540    7.5370 C   0  0  0  0  0  0  0  0  0  0  0  0
   18.7730   17.6460    7.6780 C   0  0  0  0  0  0  0  0  0  0  0  0
   20.0150   16.9290    7.2770 C   0  0  0  0  0  0  0  0  0  0  0  0
   20.6130   15.8330    7.8650 C   0  0  0  0  0  0  0  0  0  0  0  0
   21.7210   15.6080    7.0990 N   0  0  0  0  0  0  0  0  0  0  0  0
   22.7650   14.3080    7.2380 S   0  0  0  0  0  6  0  0  0  0  0  0
   22.0310   13.2560    7.9130 O   0  0  0  0  0  0  0  0  0  0  0  0
   23.3590   14.1130    5.9280 O   0  0  0  0  0  0  0  0  0  0  0  0
   24.0770   14.7250    8.2940 C   0  0  0  0  0  0  0  0  0  0  0  0
   25.3600   14.6110    8.0050 N   0  0  0  0  0  0  0  0  0  0  0  0
   26.0800   15.0400    9.0940 N   0  0  0  0  0  0  0  0  0  0  0  0
   25.2250   15.4080   10.0230 C   0  0  0  0  0  0  0  0  0  0  0  0
   25.3990   15.9250   11.3360 C   0  0  0  0  0  0  0  0  0  0  0  0
   24.3160   16.2000   12.0960 C   0  0  0  0  0  0  0  0  0  0  0  0
   24.5750   16.7490   13.4640 C   0  0  0  0  0  0  0  0  0  0  0  0
   24.2620   16.1390   14.4790 O   0  0  0  0  0  0  0  0  0  0  0  0
   25.1400   17.9980   13.4810 N   0  0  0  0  0  0  0  0  0  0  0  0
   25.2900   18.7430   14.7250 C   0  0  1  0  0  0  0  0  0  0  0  0
   26.2150   18.0410   15.7140 C   0  0  0  0  0  0  0  0  0  0  0  0
   26.3600   18.8950   16.9650 C   0  0  0  0  0  0  0  0  0  0  0  0
   26.8440   20.2860   16.6270 C   0  0  0  0  0  0  0  0  0  0  0  0
   27.5880   20.9230   17.3660 O   0  0  0  0  0  0  0  0  0  0  0  0
   26.3890   20.8260   15.4500 N   0  0  0  0  0  0  0  0  0  0  0  0
   25.8690   20.1210   14.3940 C   0  0  0  0  0  0  0  0  0  0  0  0
   25.8660   20.5850   13.2540 O   0  0  0  0  0  0  0  0  0  0  0  0
   22.9620   16.0090   11.5720 C   0  0  0  0  0  0  0  0  0  0  0  0
   22.8010   15.5240   10.3270 C   0  0  0  0  0  0  0  0  0  0  0  0
   23.9290   15.2220    9.5630 N   0  0  0  0  0  0  0  0  0  0  0  0
   21.7380   16.4900    6.0690 C   0  0  0  0  0  0  0  0  0  0  0  0
   20.7280   17.3300    6.1650 N   0  0  0  0  0  0  0  0  0  0  0  0
   18.9504   19.6134    8.5356 H   0  0  0  0  0  0  0  0  0  0  0  0
   19.8320   19.3891    6.9867 H   0  0  0  0  0  0  0  0  0  0  0  0
   18.0430   19.5504    6.9867 H   0  0  0  0  0  0  0  0  0  0  0  0
   18.5496   17.4072    8.7283 H   0  0  0  0  0  0  0  0  0  0  0  0
   17.9627   17.3163    7.0112 H   0  0  0  0  0  0  0  0  0  0  0  0
   20.2750   15.2702    8.7476 H   0  0  0  0  0  0  0  0  0  0  0  0
   26.4104   16.1003   11.7313 H   0  0  0  0  0  0  0  0  0  0  0  0
   25.4646   18.4179   12.5982 H   0  0  0  0  0  0  0  0  0  0  0  0
   24.3000   18.8229   15.1979 H   0  0  0  0  0  0  0  0  0  0  0  0
   25.7890   17.0635   15.9844 H   0  0  0  0  0  0  0  0  0  0  0  0
   27.2028   17.8949   15.2527 H   0  0  0  0  0  0  0  0  0  0  0  0
   25.3828   18.9672   17.4648 H   0  0  0  0  0  0  0  0  0  0  0  0
   27.1007   18.4205   17.6254 H   0  0  0  0  0  0  0  0  0  0  0  0
   26.4426   21.8498   15.3508 H   0  0  0  0  0  0  0  0  0  0  0  0
   22.0864   16.2591   12.1890 H   0  0  0  0  0  0  0  0  0  0  0  0
   21.7925   15.3675    9.9166 H   0  0  0  0  0  0  0  0  0  0  0  0
   22.4898   16.5022    5.2661 H   0  0  0  0  0  0  0  0  0  0  0  0
  1  2  1  0
  2  3  1  0
  3  4  2  0
  4  5  1  0
  5  6  1  0
  6  7  2  0
  6  8  2  0
  6  9  1  0
  9 10  2  0
 10 11  1  0
 11 12  2  0
 12 13  1  0
 13 14  2  0
 14 15  1  0
 15 16  2  0
 15 17  1  0
 17 18  1  0
 18 19  1  0
 19 20  1  0
 20 21  1  0
 21 22  2  0
 21 23  1  0
 23 24  1  0
 24 25  2  0
 14 26  1  0
 26 27  2  0
 27 28  1  0
  5 29  1  0
 29 30  2  0
 30  3  1  0
 28  9  1  0
 28 12  1  0
 24 18  1  0
  1 31  1  0
  1 32  1  0
  1 33  1  0
  2 34  1  0
  2 35  1  0
  4 36  1  0
 13 37  1  0
 17 38  1  0
 18 39  1  1
 19 40  1  0
 19 41  1  0
 20 42  1  0
 20 43  1  0
 23 44  1  0
 26 45  1  0
 27 46  1  0
 29 47  1  0
M  END
>  <meeko>  (917) 
{"is_sidechain": [true], "free_energy": -10.4, "intermolecular_energy": 0.0, "internal_energy": -10.4, "cluster_size": 19, "cluster_id": 1, "rank_in_cluster": 1}

>  <_RMSD_MCS_to_ref>  (917) 
0.6799727118707696

$$$$
ligand
     RDKit          3D

 49 52  0  0  0  0  0  0  0  0999 V2000
   18.9090   19.1540    7.5370 C   0  0  0  0  0  0  0  0  0  0  0  0
   18.7730   17.6460    7.6780 C   0  0  0  0  0  0  0  0  0  0  0  0
   20.0110   16.9300    7.2670 C   0  0  0  0  0  0  0  0  0  0  0  0
   20.7880   16.0500    7.9960 C   0  0  0  0  0  0  0  0  0  0  0  0
   21.7800   15.6850    7.1310 N   0  0  0  0  0  0  0  0  0  0  0  0
   23.1010   14.7110    7.4890 S   0  0  0  0  0  6  0  0  0  0  0  0
   24.2450   15.6060    7.5140 O   0  0  0  0  0  0  0  0  0  0  0  0
   23.0160   13.5910    6.5690 O   0  0  0  0  0  0  0  0  0  0  0  0
   22.8350   14.1040    9.1310 C   0  0  0  0  0  0  0  0  0  0  0  0
   22.1770   12.9220    9.1710 N   0  0  0  0  0  0  0  0  0  0  0  0
   21.9610   12.4440   10.3940 C   0  0  0  0  0  0  0  0  0  0  0  0
   22.3390   13.0310   11.5380 N   0  0  0  0  0  0  0  0  0  0  0  0
   22.9900   14.1990   11.4600 C   0  0  0  0  0  0  0  0  0  0  0  0
   23.3820   14.8100   12.6440 C   0  0  0  0  0  0  0  0  0  0  0  0
   24.0700   16.0290   12.6520 C   0  0  0  0  0  0  0  0  0  0  0  0
   24.4890   16.6940   13.9170 C   0  0  0  0  0  0  0  0  0  0  0  0
   24.4100   16.0960   14.9830 O   0  0  0  0  0  0  0  0  0  0  0  0
   24.9250   17.9960   13.8190 N   0  0  0  0  0  0  0  0  0  0  0  0
   25.2130   18.7810   15.0130 C   0  0  1  0  0  0  0  0  0  0  0  0
   26.1920   18.0750   15.9460 C   0  0  0  0  0  0  0  0  0  0  0  0
   26.4790   18.9650   17.1460 C   0  0  0  0  0  0  0  0  0  0  0  0
   26.9880   20.3190   16.7150 C   0  0  0  0  0  0  0  0  0  0  0  0
   27.8100   20.9540   17.3710 O   0  0  0  0  0  0  0  0  0  0  0  0
   26.4650   20.8340   15.5560 N   0  0  0  0  0  0  0  0  0  0  0  0
   25.8140   20.1210   14.5800 C   0  0  0  0  0  0  0  0  0  0  0  0
   25.7170   20.5530   13.4310 O   0  0  0  0  0  0  0  0  0  0  0  0
   24.3510   16.6650   11.4430 C   0  0  0  0  0  0  0  0  0  0  0  0
   23.9670   16.0690   10.2430 C   0  0  0  0  0  0  0  0  0  0  0  0
   23.2840   14.8240   10.2440 C   0  0  0  0  0  0  0  0  0  0  0  0
   21.6180   16.3530    5.9600 C   0  0  0  0  0  0  0  0  0  0  0  0
   20.5420   17.1110    6.0050 N   0  0  0  0  0  0  0  0  0  0  0  0
   18.9504   19.6134    8.5356 H   0  0  0  0  0  0  0  0  0  0  0  0
   19.8320   19.3891    6.9867 H   0  0  0  0  0  0  0  0  0  0  0  0
   18.0430   19.5504    6.9867 H   0  0  0  0  0  0  0  0  0  0  0  0
   18.5576   17.4064    8.7297 H   0  0  0  0  0  0  0  0  0  0  0  0
   17.9571   17.3169    7.0177 H   0  0  0  0  0  0  0  0  0  0  0  0
   20.6412   15.7193    9.0348 H   0  0  0  0  0  0  0  0  0  0  0  0
   21.4268   11.4856   10.4727 H   0  0  0  0  0  0  0  0  0  0  0  0
   23.1454   14.3228   13.6014 H   0  0  0  0  0  0  0  0  0  0  0  0
   25.0494   18.4214   12.8892 H   0  0  0  0  0  0  0  0  0  0  0  0
   24.2719   18.9229   15.5645 H   0  0  0  0  0  0  0  0  0  0  0  0
   25.7527   17.1268   16.2893 H   0  0  0  0  0  0  0  0  0  0  0  0
   27.1294   17.8707   15.4080 H   0  0  0  0  0  0  0  0  0  0  0  0
   25.5523   19.0977   17.7235 H   0  0  0  0  0  0  0  0  0  0  0  0
   27.2538   18.4818   17.7594 H   0  0  0  0  0  0  0  0  0  0  0  0
   26.5703   21.8473   15.4043 H   0  0  0  0  0  0  0  0  0  0  0  0
   24.8735   17.6330   11.4365 H   0  0  0  0  0  0  0  0  0  0  0  0
   24.1946   16.5664    9.2887 H   0  0  0  0  0  0  0  0  0  0  0  0
   22.2918   16.2723    5.0942 H   0  0  0  0  0  0  0  0  0  0  0  0
  1  2  1  0
  2  3  1  0
  3  4  2  0
  4  5  1  0
  5  6  1  0
  6  7  2  0
  6  8  2  0
  6  9  1  0
  9 10  2  0
 10 11  1  0
 11 12  2  0
 12 13  1  0
 13 14  2  0
 14 15  1  0
 15 16  1  0
 16 17  2  0
 16 18  1  0
 18 19  1  0
 19 20  1  0
 20 21  1  0
 21 22  1  0
 22 23  2  0
 22 24  1  0
 24 25  1  0
 25 26  2  0
 15 27  2  0
 27 28  1  0
 28 29  2  0
  5 30  1  0
 30 31  2  0
 31  3  1  0
 29  9  1  0
 29 13  1  0
 25 19  1  0
  1 32  1  0
  1 33  1  0
  1 34  1  0
  2 35  1  0
  2 36  1  0
  4 37  1  0
 11 38  1  0
 14 39  1  0
 18 40  1  0
 19 41  1  1
 20 42  1  0
 20 43  1  0
 21 44  1  0
 21 45  1  0
 24 46  1  0
 27 47  1  0
 28 48  1  0
 30 49  1  0
M  END
>  <meeko>  (918) 
{"is_sidechain": [true], "free_energy": -10.4, "intermolecular_energy": 0.0, "internal_energy": -10.4, "cluster_size": 20, "cluster_id": 1, "rank_in_cluster": 1}

>  <_RMSD_MCS_to_ref>  (918) 
0.6987669298286956

$$$$
ligand
     RDKit          3D

 49 52  0  0  0  0  0  0  0  0999 V2000
   18.9090   19.1540    7.5370 C   0  0  0  0  0  0  0  0  0  0  0  0
   18.7730   17.6460    7.6780 C   0  0  0  0  0  0  0  0  0  0  0  0
   19.9180   16.9190    7.0670 C   0  0  0  0  0  0  0  0  0  0  0  0
   21.2250   16.8320    7.5040 C   0  0  0  0  0  0  0  0  0  0  0  0
   21.8330   16.0270    6.5840 N   0  0  0  0  0  0  0  0  0  0  0  0
   23.4850   15.7390    6.4610 S   0  0  0  0  0  6  0  0  0  0  0  0
   23.6540   14.8170    5.3560 O   0  0  0  0  0  0  0  0  0  0  0  0
   24.1120   17.0470    6.4900 O   0  0  0  0  0  0  0  0  0  0  0  0
   23.8770   14.8900    7.9660 C   0  0  0  0  0  0  0  0  0  0  0  0
   23.9340   13.4970    7.9860 C   0  0  0  0  0  0  0  0  0  0  0  0
   24.2370   12.8520    9.1820 C   0  0  0  0  0  0  0  0  0  0  0  0
   24.4760   13.6070   10.3470 C   0  0  0  0  0  0  0  0  0  0  0  0
   24.7870   13.0400   11.5760 C   0  0  0  0  0  0  0  0  0  0  0  0
   25.0150   13.7520   12.6950 N   0  0  0  0  0  0  0  0  0  0  0  0
   24.9230   15.0940   12.5520 C   0  0  0  0  0  0  0  0  0  0  0  0
   25.1890   15.9190   13.7910 C   0  0  0  0  0  0  0  0  0  0  0  0
   25.3240   15.4240   14.9050 O   0  0  0  0  0  0  0  0  0  0  0  0
   25.2550   17.2860   13.5740 N   0  0  0  0  0  0  0  0  0  0  0  0
   25.3310   18.2400   14.6650 C   0  0  1  0  0  0  0  0  0  0  0  0
   26.2560   17.7640   15.7790 C   0  0  0  0  0  0  0  0  0  0  0  0
   26.3120   18.8150   16.8770 C   0  0  0  0  0  0  0  0  0  0  0  0
   26.7370   20.1570   16.3300 C   0  0  0  0  0  0  0  0  0  0  0  0
   27.4080   20.9510   16.9810 O   0  0  0  0  0  0  0  0  0  0  0  0
   26.3080   20.4680   15.0650 N   0  0  0  0  0  0  0  0  0  0  0  0
   25.8490   19.5780   14.1240 C   0  0  0  0  0  0  0  0  0  0  0  0
   25.8460   19.8670   12.9280 O   0  0  0  0  0  0  0  0  0  0  0  0
   24.6290   15.7510   11.4140 N   0  0  0  0  0  0  0  0  0  0  0  0
   24.4080   15.0080   10.3280 C   0  0  0  0  0  0  0  0  0  0  0  0
   24.1000   15.6350    9.1310 C   0  0  0  0  0  0  0  0  0  0  0  0
   20.9350   15.6930    5.6220 C   0  0  0  0  0  0  0  0  0  0  0  0
   19.7560   16.2130    5.8900 N   0  0  0  0  0  0  0  0  0  0  0  0
   18.9504   19.6134    8.5356 H   0  0  0  0  0  0  0  0  0  0  0  0
   19.8320   19.3891    6.9867 H   0  0  0  0  0  0  0  0  0  0  0  0
   18.0430   19.5504    6.9867 H   0  0  0  0  0  0  0  0  0  0  0  0
   18.7230   17.3933    8.7474 H   0  0  0  0  0  0  0  0  0  0  0  0
   17.8578   17.3387    7.1508 H   0  0  0  0  0  0  0  0  0  0  0  0
   21.6738   17.3035    8.3907 H   0  0  0  0  0  0  0  0  0  0  0  0
   23.7426   12.9168    7.0713 H   0  0  0  0  0  0  0  0  0  0  0  0
   24.2897   11.7538    9.2172 H   0  0  0  0  0  0  0  0  0  0  0  0
   24.8508   11.9436   11.6385 H   0  0  0  0  0  0  0  0  0  0  0  0
   25.2499   17.6369   12.6056 H   0  0  0  0  0  0  0  0  0  0  0  0
   24.3215   18.3498   15.0878 H   0  0  0  0  0  0  0  0  0  0  0  0
   25.8736   16.8200   16.1945 H   0  0  0  0  0  0  0  0  0  0  0  0
   27.2659   17.6043   15.3732 H   0  0  0  0  0  0  0  0  0  0  0  0
   25.3148   18.9125   17.3311 H   0  0  0  0  0  0  0  0  0  0  0  0
   27.0510   18.4954   17.6265 H   0  0  0  0  0  0  0  0  0  0  0  0
   26.3321   21.4617   14.7950 H   0  0  0  0  0  0  0  0  0  0  0  0
   24.0297   16.7322    9.0954 H   0  0  0  0  0  0  0  0  0  0  0  0
   21.1613   15.0740    4.7413 H   0  0  0  0  0  0  0  0  0  0  0  0
  1  2  1  0
  2  3  1  0
  3  4  2  0
  4  5  1  0
  5  6  1  0
  6  7  2  0
  6  8  2  0
  6  9  1  0
  9 10  2  0
 10 11  1  0
 11 12  2  0
 12 13  1  0
 13 14  2  0
 14 15  1  0
 15 16  1  0
 16 17  2  0
 16 18  1  0
 18 19  1  0
 19 20  1  0
 20 21  1  0
 21 22  1  0
 22 23  2  0
 22 24  1  0
 24 25  1  0
 25 26  2  0
 15 27  2  0
 27 28  1  0
 28 29  2  0
  5 30  1  0
 30 31  2  0
 31  3  1  0
 29  9  1  0
 28 12  1  0
 25 19  1  0
  1 32  1  0
  1 33  1  0
  1 34  1  0
  2 35  1  0
  2 36  1  0
  4 37  1  0
 10 38  1  0
 11 39  1  0
 13 40  1  0
 18 41  1  0
 19 42  1  1
 20 43  1  0
 20 44  1  0
 21 45  1  0
 21 46  1  0
 24 47  1  0
 29 48  1  0
 30 49  1  0
M  END
>  <meeko>  (919) 
{"is_sidechain": [true], "free_energy": -10.4, "intermolecular_energy": 0.0, "internal_energy": -10.4, "cluster_size": 18, "cluster_id": 1, "rank_in_cluster": 1}

>  <_RMSD_MCS_to_ref>  (919) 
0.6218824469124186

$$$$
ligand
     RDKit          3D

 53 56  0  0  0  0  0  0  0  0999 V2000
   18.9090   19.1540    7.5370 C   0  0  0  0  0  0  0  0  0  0  0  0
   18.7730   17.6460    7.6780 C   0  0  0  0  0  0  0  0  0  0  0  0
   20.0940   16.9620    7.6800 C   0  0  0  0  0  0  0  0  0  0  0  0
   20.8890   16.6120    8.7540 C   0  0  0  0  0  0  0  0  0  0  0  0
   21.9790   16.0200    8.1830 N   0  0  0  0  0  0  0  0  0  0  0  0
   23.3250   15.4450    9.0070 S   0  0  0  0  0  6  0  0  0  0  0  0
   24.3400   16.4790    8.9430 O   0  0  0  0  0  0  0  0  0  0  0  0
   23.5470   14.1220    8.4490 O   0  0  0  0  0  0  0  0  0  0  0  0
   22.8300   15.2430   10.6950 C   0  0  0  0  0  0  0  0  0  0  0  0
   23.5430   15.9470   11.6790 C   0  0  0  0  0  0  0  0  0  0  0  0
   23.1930   15.8030   13.0240 C   0  0  0  0  0  0  0  0  0  0  0  0
   23.9200   16.5120   14.1130 C   0  0  0  0  0  0  0  0  0  0  0  0
   24.2590   15.9090   15.1240 O   0  0  0  0  0  0  0  0  0  0  0  0
   24.1510   17.8560   13.9300 N   0  0  0  0  0  0  0  0  0  0  0  0
   24.7240   18.6700   14.9940 C   0  0  1  0  0  0  0  0  0  0  0  0
   25.8710   17.9630   15.7070 C   0  0  0  0  0  0  0  0  0  0  0  0
   26.4460   18.8800   16.7750 C   0  0  0  0  0  0  0  0  0  0  0  0
   26.8790   20.2030   16.1890 C   0  0  0  0  0  0  0  0  0  0  0  0
   27.8370   20.8340   16.6250 O   0  0  0  0  0  0  0  0  0  0  0  0
   26.1240   20.6930   15.1540 N   0  0  0  0  0  0  0  0  0  0  0  0
   25.2430   19.9770   14.3840 C   0  0  0  0  0  0  0  0  0  0  0  0
   24.8860   20.3800   13.2770 O   0  0  0  0  0  0  0  0  0  0  0  0
   22.1500   14.9370   13.3750 C   0  0  0  0  0  0  0  0  0  0  0  0
   21.4360   14.2340   12.3920 C   0  0  0  0  0  0  0  0  0  0  0  0
   21.7610   14.4120   11.0400 C   0  0  0  0  0  0  0  0  0  0  0  0
   21.0900   13.7740   10.0360 O   0  0  0  0  0  0  0  0  0  0  0  0
   19.8310   13.1950   10.3940 C   0  0  0  0  0  0  0  0  0  0  0  0
   19.9310   12.3870   11.6750 C   0  0  0  0  0  0  0  0  0  0  0  0
   20.3140   13.3230   12.8090 C   0  0  0  0  0  0  0  0  0  0  0  0
   21.8310   16.0160    6.8330 C   0  0  0  0  0  0  0  0  0  0  0  0
   20.6930   16.5880    6.4930 N   0  0  0  0  0  0  0  0  0  0  0  0
   18.9504   19.6134    8.5356 H   0  0  0  0  0  0  0  0  0  0  0  0
   19.8320   19.3891    6.9867 H   0  0  0  0  0  0  0  0  0  0  0  0
   18.0430   19.5504    6.9867 H   0  0  0  0  0  0  0  0  0  0  0  0
   18.2571   17.4234    8.6237 H   0  0  0  0  0  0  0  0  0  0  0  0
   18.2014   17.2755    6.8142 H   0  0  0  0  0  0  0  0  0  0  0  0
   20.6898   16.7732    9.8237 H   0  0  0  0  0  0  0  0  0  0  0  0
   24.3734   16.6089   11.3921 H   0  0  0  0  0  0  0  0  0  0  0  0
   23.9154   18.2931   13.0276 H   0  0  0  0  0  0  0  0  0  0  0  0
   23.9373   18.8614   15.7386 H   0  0  0  0  0  0  0  0  0  0  0  0
   25.4978   17.0413   16.1773 H   0  0  0  0  0  0  0  0  0  0  0  0
   26.6559   17.7112   14.9786 H   0  0  0  0  0  0  0  0  0  0  0  0
   25.6786   19.0620   17.5418 H   0  0  0  0  0  0  0  0  0  0  0  0
   27.3276   18.3903   17.2144 H   0  0  0  0  0  0  0  0  0  0  0  0
   26.2285   21.6938   14.9340 H   0  0  0  0  0  0  0  0  0  0  0  0
   21.8868   14.8059   14.4350 H   0  0  0  0  0  0  0  0  0  0  0  0
   19.0955   14.0004   10.5366 H   0  0  0  0  0  0  0  0  0  0  0  0
   19.5210   12.5183    9.5840 H   0  0  0  0  0  0  0  0  0  0  0  0
   18.9607   11.9173   11.8937 H   0  0  0  0  0  0  0  0  0  0  0  0
   20.6909   11.5994   11.5645 H   0  0  0  0  0  0  0  0  0  0  0  0
   19.4399   13.9306   13.0863 H   0  0  0  0  0  0  0  0  0  0  0  0
   20.6483   12.7206   13.6665 H   0  0  0  0  0  0  0  0  0  0  0  0
   22.5582   15.5948    6.1233 H   0  0  0  0  0  0  0  0  0  0  0  0
  1  2  1  0
  2  3  1  0
  3  4  2  0
  4  5  1  0
  5  6  1  0
  6  7  2  0
  6  8  2  0
  6  9  1  0
  9 10  2  0
 10 11  1  0
 11 12  1  0
 12 13  2  0
 12 14  1  0
 14 15  1  0
 15 16  1  0
 16 17  1  0
 17 18  1  0
 18 19  2  0
 18 20  1  0
 20 21  1  0
 21 22  2  0
 11 23  2  0
 23 24  1  0
 24 25  2  0
 25 26  1  0
 26 27  1  0
 27 28  1  0
 28 29  1  0
  5 30  1  0
 30 31  2  0
 31  3  1  0
 25  9  1  0
 21 15  1  0
 29 24  1  0
  1 32  1  0
  1 33  1  0
  1 34  1  0
  2 35  1  0
  2 36  1  0
  4 37  1  0
 10 38  1  0
 14 39  1  0
 15 40  1  1
 16 41  1  0
 16 42  1  0
 17 43  1  0
 17 44  1  0
 20 45  1  0
 23 46  1  0
 27 47  1  0
 27 48  1  0
 28 49  1  0
 28 50  1  0
 29 51  1  0
 29 52  1  0
 30 53  1  0
M  END
>  <meeko>  (920) 
{"is_sidechain": [true], "free_energy": -10.4, "intermolecular_energy": 0.0, "internal_energy": -10.4, "cluster_size": 20, "cluster_id": 1, "rank_in_cluster": 1}

>  <_RMSD_MCS_to_ref>  (920) 
0.4600926235251146

$$$$
ligand
     RDKit          3D

 48 51  0  0  0  0  0  0  0  0999 V2000
   18.9090   19.1540    7.5370 C   0  0  0  0  0  0  0  0  0  0  0  0
   18.7730   17.6460    7.6780 C   0  0  0  0  0  0  0  0  0  0  0  0
   20.0610   16.9410    7.4360 C   0  0  0  0  0  0  0  0  0  0  0  0
   20.7500   16.0840    8.2730 C   0  0  0  0  0  0  0  0  0  0  0  0
   21.8520   15.7290    7.5530 N   0  0  0  0  0  0  0  0  0  0  0  0
   23.0330   14.6260    7.9840 S   0  0  0  0  0  6  0  0  0  0  0  0
   22.3240   13.3800    8.2060 O   0  0  0  0  0  0  0  0  0  0  0  0
   24.1190   14.7430    7.0320 O   0  0  0  0  0  0  0  0  0  0  0  0
   23.7020   15.0760    9.5250 C   0  0  0  0  0  0  0  0  0  0  0  0
   24.9920   15.5630    9.6730 N   0  0  0  0  0  0  0  0  0  0  0  0
   25.1220   15.8370   10.9520 C   0  0  0  0  0  0  0  0  0  0  0  0
   23.9830   15.5500   11.6620 N   0  0  0  0  0  0  0  0  0  0  0  0
   23.6620   15.7180   13.0120 C   0  0  0  0  0  0  0  0  0  0  0  0
   24.6370   16.2610   13.9980 C   0  0  0  0  0  0  0  0  0  0  0  0
   25.2560   15.5180   14.7500 O   0  0  0  0  0  0  0  0  0  0  0  0
   24.8230   17.6180   13.9630 N   0  0  0  0  0  0  0  0  0  0  0  0
   25.8730   18.2610   14.7460 C   0  0  2  0  0  0  0  0  0  0  0  0
   25.7460   17.9710   16.2380 C   0  0  0  0  0  0  0  0  0  0  0  0
   26.8370   18.7140   16.9940 C   0  0  0  0  0  0  0  0  0  0  0  0
   26.7930   20.1960   16.7020 C   0  0  0  0  0  0  0  0  0  0  0  0
   27.0680   21.0430   17.5450 O   0  0  0  0  0  0  0  0  0  0  0  0
   26.4510   20.5600   15.4230 N   0  0  0  0  0  0  0  0  0  0  0  0
   25.7740   19.7740   14.5260 C   0  0  0  0  0  0  0  0  0  0  0  0
   25.1310   20.2630   13.5980 O   0  0  0  0  0  0  0  0  0  0  0  0
   22.4450   15.3110   13.4280 C   0  0  0  0  0  0  0  0  0  0  0  0
   21.5400   14.7690   12.5360 N   0  0  0  0  0  0  0  0  0  0  0  0
   21.7850   14.5780   11.1840 C   0  0  0  0  0  0  0  0  0  0  0  0
   20.9560   14.0410   10.4630 O   0  0  0  0  0  0  0  0  0  0  0  0
   23.0790   15.0250   10.7550 C   0  0  0  0  0  0  0  0  0  0  0  0
   21.8180   16.3520    6.3470 C   0  0  0  0  0  0  0  0  0  0  0  0
   20.7340   17.0920    6.2400 N   0  0  0  0  0  0  0  0  0  0  0  0
   18.9504   19.6134    8.5356 H   0  0  0  0  0  0  0  0  0  0  0  0
   19.8320   19.3891    6.9867 H   0  0  0  0  0  0  0  0  0  0  0  0
   18.0430   19.5504    6.9867 H   0  0  0  0  0  0  0  0  0  0  0  0
   18.4285   17.4150    8.6968 H   0  0  0  0  0  0  0  0  0  0  0  0
   18.0512   17.2997    6.9236 H   0  0  0  0  0  0  0  0  0  0  0  0
   20.4728   15.7620    9.2877 H   0  0  0  0  0  0  0  0  0  0  0  0
   26.0378   16.2487   11.4013 H   0  0  0  0  0  0  0  0  0  0  0  0
   24.2089   18.1962   13.3718 H   0  0  0  0  0  0  0  0  0  0  0  0
   26.8426   17.8623   14.4129 H   0  0  0  0  0  0  0  0  0  0  0  0
   24.7604   18.3056   16.5939 H   0  0  0  0  0  0  0  0  0  0  0  0
   25.8511   16.8899   16.4115 H   0  0  0  0  0  0  0  0  0  0  0  0
   26.6961   18.5568   18.0735 H   0  0  0  0  0  0  0  0  0  0  0  0
   27.8129   18.3241   16.6690 H   0  0  0  0  0  0  0  0  0  0  0  0
   26.7260   21.5024   15.1111 H   0  0  0  0  0  0  0  0  0  0  0  0
   22.1704   15.4117   14.4884 H   0  0  0  0  0  0  0  0  0  0  0  0
   20.6188   14.4869   12.9003 H   0  0  0  0  0  0  0  0  0  0  0  0
   22.5884   16.2525    5.5681 H   0  0  0  0  0  0  0  0  0  0  0  0
  1  2  1  0
  2  3  1  0
  3  4  2  0
  4  5  1  0
  5  6  1  0
  6  7  2  0
  6  8  2  0
  6  9  1  0
  9 10  1  0
 10 11  2  0
 11 12  1  0
 12 13  1  0
 13 14  1  0
 14 15  2  0
 14 16  1  0
 16 17  1  0
 17 18  1  0
 18 19  1  0
 19 20  1  0
 20 21  2  0
 20 22  1  0
 22 23  1  0
 23 24  2  0
 13 25  2  0
 25 26  1  0
 26 27  1  0
 27 28  2  0
 27 29  1  0
  5 30  1  0
 30 31  2  0
 31  3  1  0
 29  9  2  0
 29 12  1  0
 23 17  1  0
  1 32  1  0
  1 33  1  0
  1 34  1  0
  2 35  1  0
  2 36  1  0
  4 37  1  0
 11 38  1  0
 16 39  1  0
 17 40  1  6
 18 41  1  0
 18 42  1  0
 19 43  1  0
 19 44  1  0
 22 45  1  0
 25 46  1  0
 26 47  1  0
 30 48  1  0
M  END
>  <meeko>  (921) 
{"is_sidechain": [true], "free_energy": -10.4, "intermolecular_energy": 0.0, "internal_energy": -10.4, "cluster_size": 16, "cluster_id": 1, "rank_in_cluster": 1}

>  <_RMSD_MCS_to_ref>  (921) 
0.6280636910377804

$$$$
ligand
     RDKit          3D

 48 51  0  0  0  0  0  0  0  0999 V2000
   18.9090   19.1540    7.5370 C   0  0  0  0  0  0  0  0  0  0  0  0
   18.7730   17.6460    7.6780 C   0  0  0  0  0  0  0  0  0  0  0  0
   20.0930   16.9600    7.6800 C   0  0  0  0  0  0  0  0  0  0  0  0
   20.8810   16.5970    8.7550 C   0  0  0  0  0  0  0  0  0  0  0  0
   21.9590   15.9790    8.1870 N   0  0  0  0  0  0  0  0  0  0  0  0
   23.3310   15.4450    8.9950 S   0  0  0  0  0  6  0  0  0  0  0  0
   24.2830   16.5380    8.9330 O   0  0  0  0  0  0  0  0  0  0  0  0
   23.6120   14.1310    8.4470 O   0  0  0  0  0  0  0  0  0  0  0  0
   22.8250   15.2440   10.6850 C   0  0  0  0  0  0  0  0  0  0  0  0
   23.5010   15.9210   11.6950 C   0  0  0  0  0  0  0  0  0  0  0  0
   23.0870   15.7390   13.0260 C   0  0  0  0  0  0  0  0  0  0  0  0
   23.8750   16.4480   14.0720 C   0  0  0  0  0  0  0  0  0  0  0  0
   24.1170   15.8580   15.1230 O   0  0  0  0  0  0  0  0  0  0  0  0
   24.3160   17.7270   13.8380 N   0  0  0  0  0  0  0  0  0  0  0  0
   24.7820   18.5570   14.9410 C   0  0  1  0  0  0  0  0  0  0  0  0
   25.8600   17.8350   15.7400 C   0  0  0  0  0  0  0  0  0  0  0  0
   26.3370   18.7310   16.8720 C   0  0  0  0  0  0  0  0  0  0  0  0
   26.8200   20.0630   16.3500 C   0  0  0  0  0  0  0  0  0  0  0  0
   27.7490   20.6750   16.8700 O   0  0  0  0  0  0  0  0  0  0  0  0
   26.1500   20.5800   15.2700 N   0  0  0  0  0  0  0  0  0  0  0  0
   25.3610   19.8720   14.3930 C   0  0  0  0  0  0  0  0  0  0  0  0
   25.1500   20.3010   13.2600 O   0  0  0  0  0  0  0  0  0  0  0  0
   22.0110   14.8930   13.2260 C   0  0  0  0  0  0  0  0  0  0  0  0
   21.3170   14.3610   14.3960 C   0  0  0  0  0  0  0  0  0  0  0  0
   21.4690   14.7280   15.5460 O   0  0  0  0  0  0  0  0  0  0  0  0
   20.4340   13.3930   13.9440 N   0  0  0  0  0  0  0  0  0  0  0  0
   20.2810   13.4860   12.5520 N   0  0  0  0  0  0  0  0  0  0  0  0
   21.3850   14.2770   12.1450 C   0  0  0  0  0  0  0  0  0  0  0  0
   21.7720   14.4100   10.8720 N   0  0  0  0  0  0  0  0  0  0  0  0
   21.8330   16.0190    6.8350 C   0  0  0  0  0  0  0  0  0  0  0  0
   20.7020   16.6010    6.4930 N   0  0  0  0  0  0  0  0  0  0  0  0
   18.9504   19.6134    8.5356 H   0  0  0  0  0  0  0  0  0  0  0  0
   19.8320   19.3891    6.9867 H   0  0  0  0  0  0  0  0  0  0  0  0
   18.0430   19.5504    6.9867 H   0  0  0  0  0  0  0  0  0  0  0  0
   18.2570   17.4238    8.6237 H   0  0  0  0  0  0  0  0  0  0  0  0
   18.2019   17.2764    6.8136 H   0  0  0  0  0  0  0  0  0  0  0  0
   20.6853   16.7667    9.8241 H   0  0  0  0  0  0  0  0  0  0  0  0
   24.3438   16.5864   11.4565 H   0  0  0  0  0  0  0  0  0  0  0  0
   24.3174   18.1014   12.8784 H   0  0  0  0  0  0  0  0  0  0  0  0
   23.9270   18.7678   15.6001 H   0  0  0  0  0  0  0  0  0  0  0  0
   25.4461   16.9053   16.1577 H   0  0  0  0  0  0  0  0  0  0  0  0
   26.7069   17.5952   15.0802 H   0  0  0  0  0  0  0  0  0  0  0  0
   25.5042   18.9003   17.5704 H   0  0  0  0  0  0  0  0  0  0  0  0
   27.1754   18.2322   17.3803 H   0  0  0  0  0  0  0  0  0  0  0  0
   26.2466   21.5913   15.1002 H   0  0  0  0  0  0  0  0  0  0  0  0
   19.9582   12.7040   14.5438 H   0  0  0  0  0  0  0  0  0  0  0  0
   19.5409   13.0761   11.9644 H   0  0  0  0  0  0  0  0  0  0  0  0
   22.5726   15.6208    6.1247 H   0  0  0  0  0  0  0  0  0  0  0  0
  1  2  1  0
  2  3  1  0
  3  4  2  0
  4  5  1  0
  5  6  1  0
  6  7  2  0
  6  8  2  0
  6  9  1  0
  9 10  2  0
 10 11  1  0
 11 12  1  0
 12 13  2  0
 12 14  1  0
 14 15  1  0
 15 16  1  0
 16 17  1  0
 17 18  1  0
 18 19  2  0
 18 20  1  0
 20 21  1  0
 21 22  2  0
 11 23  2  0
 23 24  1  0
 24 25  2  0
 24 26  1  0
 26 27  1  0
 27 28  1  0
 28 29  2  0
  5 30  1  0
 30 31  2  0
 31  3  1  0
 29  9  1  0
 21 15  1  0
 28 23  1  0
  1 32  1  0
  1 33  1  0
  1 34  1  0
  2 35  1  0
  2 36  1  0
  4 37  1  0
 10 38  1  0
 14 39  1  0
 15 40  1  1
 16 41  1  0
 16 42  1  0
 17 43  1  0
 17 44  1  0
 20 45  1  0
 26 46  1  0
 27 47  1  0
 30 48  1  0
M  END
>  <meeko>  (922) 
{"is_sidechain": [true], "free_energy": -10.4, "intermolecular_energy": 0.0, "internal_energy": -10.4, "cluster_size": 20, "cluster_id": 1, "rank_in_cluster": 1}

>  <_RMSD_MCS_to_ref>  (922) 
0.35221379239824674

$$$$
ligand
     RDKit          3D

 47 50  0  0  0  0  0  0  0  0999 V2000
   18.9090   19.1540    7.5370 C   0  0  0  0  0  0  0  0  0  0  0  0
   18.7730   17.6460    7.6780 C   0  0  0  0  0  0  0  0  0  0  0  0
   19.9910   16.9260    7.2170 C   0  0  0  0  0  0  0  0  0  0  0  0
   20.8900   16.1800    7.9530 C   0  0  0  0  0  0  0  0  0  0  0  0
   21.7900   15.7330    7.0290 N   0  0  0  0  0  0  0  0  0  0  0  0
   23.2390   14.9490    7.3610 S   0  0  0  0  0  6  0  0  0  0  0  0
   22.9680   13.5320    7.2200 O   0  0  0  0  0  0  0  0  0  0  0  0
   24.2460   15.6320    6.5730 O   0  0  0  0  0  0  0  0  0  0  0  0
   23.5210   15.3050    9.0770 C   0  0  0  0  0  0  0  0  0  0  0  0
   24.4550   16.2750    9.4270 C   0  0  0  0  0  0  0  0  0  0  0  0
   24.6840   16.5670   10.7760 C   0  0  0  0  0  0  0  0  0  0  0  0
   23.9650   15.8890   11.7930 C   0  0  0  0  0  0  0  0  0  0  0  0
   23.9930   15.9840   13.2440 C   0  0  0  0  0  0  0  0  0  0  0  0
   24.8630   16.8830   14.0280 C   0  0  0  0  0  0  0  0  0  0  0  0
   26.0740   16.7170   14.1510 O   0  0  0  0  0  0  0  0  0  0  0  0
   24.1990   17.9320   14.6270 N   0  0  0  0  0  0  0  0  0  0  0  0
   24.8440   18.8340   15.5610 C   0  0  1  0  0  0  0  0  0  0  0  0
   25.8540   18.1110   16.4480 C   0  0  0  0  0  0  0  0  0  0  0  0
   26.5120   19.1080   17.3870 C   0  0  0  0  0  0  0  0  0  0  0  0
   27.1490   20.2450   16.6240 C   0  0  0  0  0  0  0  0  0  0  0  0
   28.1680   20.8100   17.0110 O   0  0  0  0  0  0  0  0  0  0  0  0
   26.5120   20.6480   15.4780 N   0  0  0  0  0  0  0  0  0  0  0  0
   25.5640   19.9400   14.7800 C   0  0  0  0  0  0  0  0  0  0  0  0
   25.3100   20.2080   13.6080 O   0  0  0  0  0  0  0  0  0  0  0  0
   23.1470   15.1710   13.8940 N   0  0  0  0  0  0  0  0  0  0  0  0
   22.2960   14.2760   12.8040 S   0  0  0  0  0  0  0  0  0  0  0  0
   23.0250   14.9330   11.3970 C   0  0  0  0  0  0  0  0  0  0  0  0
   22.7790   14.6220   10.0480 C   0  0  0  0  0  0  0  0  0  0  0  0
   21.4650   16.2370    5.8100 C   0  0  0  0  0  0  0  0  0  0  0  0
   20.3680   16.9620    5.8890 N   0  0  0  0  0  0  0  0  0  0  0  0
   18.9504   19.6134    8.5356 H   0  0  0  0  0  0  0  0  0  0  0  0
   19.8320   19.3891    6.9867 H   0  0  0  0  0  0  0  0  0  0  0  0
   18.0430   19.5504    6.9867 H   0  0  0  0  0  0  0  0  0  0  0  0
   18.5976   17.4036    8.7365 H   0  0  0  0  0  0  0  0  0  0  0  0
   17.9310   17.3226    7.0483 H   0  0  0  0  0  0  0  0  0  0  0  0
   20.8827   15.9894    9.0363 H   0  0  0  0  0  0  0  0  0  0  0  0
   25.0122   16.8112    8.6447 H   0  0  0  0  0  0  0  0  0  0  0  0
   25.4283   17.3292   11.0501 H   0  0  0  0  0  0  0  0  0  0  0  0
   23.2050   18.0810   14.4021 H   0  0  0  0  0  0  0  0  0  0  0  0
   24.0649   19.2592   16.2107 H   0  0  0  0  0  0  0  0  0  0  0  0
   25.3374   17.3389   17.0371 H   0  0  0  0  0  0  0  0  0  0  0  0
   26.6227   17.6399   15.8179 H   0  0  0  0  0  0  0  0  0  0  0  0
   25.7499   19.5159   18.0672 H   0  0  0  0  0  0  0  0  0  0  0  0
   27.2987   18.5856   17.9510 H   0  0  0  0  0  0  0  0  0  0  0  0
   26.7698   21.5724   15.1040 H   0  0  0  0  0  0  0  0  0  0  0  0
   22.0295   13.8681    9.7654 H   0  0  0  0  0  0  0  0  0  0  0  0
   22.0374   16.0640    4.8868 H   0  0  0  0  0  0  0  0  0  0  0  0
  1  2  1  0
  2  3  1  0
  3  4  2  0
  4  5  1  0
  5  6  1  0
  6  7  2  0
  6  8  2  0
  6  9  1  0
  9 10  2  0
 10 11  1  0
 11 12  2  0
 12 13  1  0
 13 14  1  0
 14 15  2  0
 14 16  1  0
 16 17  1  0
 17 18  1  0
 18 19  1  0
 19 20  1  0
 20 21  2  0
 20 22  1  0
 22 23  1  0
 23 24  2  0
 13 25  2  0
 25 26  1  0
 26 27  1  0
 27 28  2  0
  5 29  1  0
 29 30  2  0
 30  3  1  0
 28  9  1  0
 27 12  1  0
 23 17  1  0
  1 31  1  0
  1 32  1  0
  1 33  1  0
  2 34  1  0
  2 35  1  0
  4 36  1  0
 10 37  1  0
 11 38  1  0
 16 39  1  0
 17 40  1  1
 18 41  1  0
 18 42  1  0
 19 43  1  0
 19 44  1  0
 22 45  1  0
 28 46  1  0
 29 47  1  0
M  END
>  <meeko>  (923) 
{"is_sidechain": [true], "free_energy": -10.4, "intermolecular_energy": 0.0, "internal_energy": -10.4, "cluster_size": 18, "cluster_id": 1, "rank_in_cluster": 1}

>  <_RMSD_MCS_to_ref>  (923) 
0.8311354348787634

$$$$
ligand
     RDKit          3D

 44 47  0  0  0  0  0  0  0  0999 V2000
   18.9090   19.1540    7.5370 C   0  0  0  0  0  0  0  0  0  0  0  0
   18.7730   17.6460    7.6780 C   0  0  0  0  0  0  0  0  0  0  0  0
   20.0870   16.9530    7.5910 C   0  0  0  0  0  0  0  0  0  0  0  0
   20.9000   16.5020    8.6120 C   0  0  0  0  0  0  0  0  0  0  0  0
   21.9650   15.9400    7.9690 N   0  0  0  0  0  0  0  0  0  0  0  0
   23.3550   15.3470    8.6880 S   0  0  0  0  0  6  0  0  0  0  0  0
   23.3810   13.9210    8.4150 O   0  0  0  0  0  0  0  0  0  0  0  0
   24.4280   16.2460    8.3010 O   0  0  0  0  0  0  0  0  0  0  0  0
   23.2020   15.5010   10.4220 C   0  0  0  0  0  0  0  0  0  0  0  0
   22.4630   14.6150   11.1620 N   0  0  0  0  0  0  0  0  0  0  0  0
   22.5900   15.0540   12.3950 C   0  0  0  0  0  0  0  0  0  0  0  0
   22.0580   14.5300   13.5340 N   0  0  0  0  0  0  0  0  0  0  0  0
   22.3390   15.1630   14.6290 C   0  0  0  0  0  0  0  0  0  0  0  0
   23.1730   16.3850   14.7520 C   0  0  0  0  0  0  0  0  0  0  0  0
   23.6910   16.8920   13.6170 C   0  0  0  0  0  0  0  0  0  0  0  0
   24.4800   18.0470   13.6490 N   0  0  0  0  0  0  0  0  0  0  0  0
   24.8870   18.8250   14.8280 C   0  0  1  0  0  0  0  0  0  0  0  0
   25.8980   18.0370   15.6570 C   0  0  0  0  0  0  0  0  0  0  0  0
   26.3240   18.8710   16.8560 C   0  0  0  0  0  0  0  0  0  0  0  0
   26.9020   20.1940   16.4160 C   0  0  0  0  0  0  0  0  0  0  0  0
   27.8090   20.7550   17.0240 O   0  0  0  0  0  0  0  0  0  0  0  0
   26.3440   20.7680   15.3010 N   0  0  0  0  0  0  0  0  0  0  0  0
   25.5680   20.1260   14.3670 C   0  0  0  0  0  0  0  0  0  0  0  0
   25.4400   20.5760   13.2270 O   0  0  0  0  0  0  0  0  0  0  0  0
   23.3950   16.2070   12.4050 N   0  0  0  0  0  0  0  0  0  0  0  0
   23.7900   16.4790   11.1310 N   0  0  0  0  0  0  0  0  0  0  0  0
   21.8120   16.1020    6.6300 C   0  0  0  0  0  0  0  0  0  0  0  0
   20.6650   16.6920    6.3650 N   0  0  0  0  0  0  0  0  0  0  0  0
   18.9504   19.6134    8.5356 H   0  0  0  0  0  0  0  0  0  0  0  0
   19.8320   19.3891    6.9867 H   0  0  0  0  0  0  0  0  0  0  0  0
   18.0430   19.5504    6.9867 H   0  0  0  0  0  0  0  0  0  0  0  0
   18.3176   17.4210    8.6537 H   0  0  0  0  0  0  0  0  0  0  0  0
   18.1449   17.2845    6.8505 H   0  0  0  0  0  0  0  0  0  0  0  0
   20.7286   16.5782    9.6959 H   0  0  0  0  0  0  0  0  0  0  0  0
   21.9180   14.7546   15.5596 H   0  0  0  0  0  0  0  0  0  0  0  0
   23.3598   16.8561   15.7283 H   0  0  0  0  0  0  0  0  0  0  0  0
   24.8154   18.3931   12.7387 H   0  0  0  0  0  0  0  0  0  0  0  0
   23.9929   19.0412   15.4312 H   0  0  0  0  0  0  0  0  0  0  0  0
   25.4374   17.1009   16.0055 H   0  0  0  0  0  0  0  0  0  0  0  0
   26.7779   17.8026   15.0398 H   0  0  0  0  0  0  0  0  0  0  0  0
   25.4481   19.0558   17.4952 H   0  0  0  0  0  0  0  0  0  0  0  0
   27.0962   18.3182   17.4112 H   0  0  0  0  0  0  0  0  0  0  0  0
   26.5235   21.7711   15.1511 H   0  0  0  0  0  0  0  0  0  0  0  0
   22.5437   15.7848    5.8724 H   0  0  0  0  0  0  0  0  0  0  0  0
  1  2  1  0
  2  3  1  0
  3  4  2  0
  4  5  1  0
  5  6  1  0
  6  7  2  0
  6  8  2  0
  6  9  1  0
  9 10  1  0
 10 11  2  0
 11 12  1  0
 12 13  2  0
 13 14  1  0
 14 15  2  0
 15 16  1  0
 16 17  1  0
 17 18  1  0
 18 19  1  0
 19 20  1  0
 20 21  2  0
 20 22  1  0
 22 23  1  0
 23 24  2  0
 15 25  1  0
 25 26  1  0
  5 27  1  0
 27 28  2  0
 28  3  1  0
 26  9  2  0
 25 11  1  0
 23 17  1  0
  1 29  1  0
  1 30  1  0
  1 31  1  0
  2 32  1  0
  2 33  1  0
  4 34  1  0
 13 35  1  0
 14 36  1  0
 16 37  1  0
 17 38  1  1
 18 39  1  0
 18 40  1  0
 19 41  1  0
 19 42  1  0
 22 43  1  0
 27 44  1  0
M  END
>  <meeko>  (924) 
{"is_sidechain": [true], "free_energy": -10.4, "intermolecular_energy": 0.0, "internal_energy": -10.4, "cluster_size": 20, "cluster_id": 1, "rank_in_cluster": 1}

>  <_RMSD_MCS_to_ref>  (924) 
0.5309221537413314

$$$$
ligand
     RDKit          3D

 55 58  0  0  0  0  0  0  0  0999 V2000
   18.9090   19.1540    7.5370 C   0  0  0  0  0  0  0  0  0  0  0  0
   18.7730   17.6460    7.6780 C   0  0  0  0  0  0  0  0  0  0  0  0
   20.0940   16.9600    7.6850 C   0  0  0  0  0  0  0  0  0  0  0  0
   20.9470   16.7300    8.7440 C   0  0  0  0  0  0  0  0  0  0  0  0
   22.0050   16.0690    8.1850 N   0  0  0  0  0  0  0  0  0  0  0  0
   23.3840   15.5740    9.0030 S   0  0  0  0  0  6  0  0  0  0  0  0
   24.1670   16.7970    9.0960 O   0  0  0  0  0  0  0  0  0  0  0  0
   23.9140   14.4050    8.3350 O   0  0  0  0  0  0  0  0  0  0  0  0
   22.9430   15.1450   10.6780 C   0  0  0  0  0  0  0  0  0  0  0  0
   23.6420   15.8580   11.6690 C   0  0  0  0  0  0  0  0  0  0  0  0
   23.3050   15.6990   13.0070 C   0  0  0  0  0  0  0  0  0  0  0  0
   24.0040   16.4260   14.1010 C   0  0  0  0  0  0  0  0  0  0  0  0
   24.3360   15.8330   15.1210 O   0  0  0  0  0  0  0  0  0  0  0  0
   24.2170   17.7730   13.9150 N   0  0  0  0  0  0  0  0  0  0  0  0
   24.7710   18.5980   14.9820 C   0  0  1  0  0  0  0  0  0  0  0  0
   25.9400   17.9160   15.6850 C   0  0  0  0  0  0  0  0  0  0  0  0
   26.4940   18.8410   16.7580 C   0  0  0  0  0  0  0  0  0  0  0  0
   26.8890   20.1810   16.1810 C   0  0  0  0  0  0  0  0  0  0  0  0
   27.8230   20.8380   16.6250 O   0  0  0  0  0  0  0  0  0  0  0  0
   26.1220   20.6530   15.1460 N   0  0  0  0  0  0  0  0  0  0  0  0
   25.2500   19.9210   14.3790 C   0  0  0  0  0  0  0  0  0  0  0  0
   24.8700   20.3270   13.2810 O   0  0  0  0  0  0  0  0  0  0  0  0
   22.2700   14.8220   13.3460 C   0  0  0  0  0  0  0  0  0  0  0  0
   21.5600   14.0710   12.3830 C   0  0  0  0  0  0  0  0  0  0  0  0
   21.9200   14.2340   11.0250 C   0  0  0  0  0  0  0  0  0  0  0  0
   21.3830   13.3580    9.9660 C   0  0  0  0  0  0  0  0  0  0  0  0
   22.1610   12.8380    9.1740 O   0  0  0  0  0  0  0  0  0  0  0  0
   20.0400   13.1740    9.8140 N   0  0  0  0  0  0  0  0  0  0  0  0
   19.0680   13.3380   10.8690 C   0  0  0  0  0  0  0  0  0  0  0  0
   19.5120   12.5900   12.1230 C   0  0  0  0  0  0  0  0  0  0  0  0
   20.4860   13.3480   12.8930 N   0  0  0  0  0  0  0  0  0  0  0  0
   21.7990   15.9490    6.8490 C   0  0  0  0  0  0  0  0  0  0  0  0
   20.6310   16.4630    6.5140 N   0  0  0  0  0  0  0  0  0  0  0  0
   18.9504   19.6134    8.5356 H   0  0  0  0  0  0  0  0  0  0  0  0
   19.8320   19.3891    6.9867 H   0  0  0  0  0  0  0  0  0  0  0  0
   18.0430   19.5504    6.9867 H   0  0  0  0  0  0  0  0  0  0  0  0
   18.2536   17.4240    8.6219 H   0  0  0  0  0  0  0  0  0  0  0  0
   18.2051   17.2759    6.8116 H   0  0  0  0  0  0  0  0  0  0  0  0
   20.8078   17.0136    9.7977 H   0  0  0  0  0  0  0  0  0  0  0  0
   24.4555   16.5415   11.3842 H   0  0  0  0  0  0  0  0  0  0  0  0
   23.9818   18.2042   13.0096 H   0  0  0  0  0  0  0  0  0  0  0  0
   23.9829   18.7656   15.7309 H   0  0  0  0  0  0  0  0  0  0  0  0
   25.5938   16.9810   16.1496 H   0  0  0  0  0  0  0  0  0  0  0  0
   26.7284   17.6903   14.9518 H   0  0  0  0  0  0  0  0  0  0  0  0
   25.7247   18.9960   17.5288 H   0  0  0  0  0  0  0  0  0  0  0  0
   27.3906   18.3723   17.1898 H   0  0  0  0  0  0  0  0  0  0  0  0
   26.2090   21.6547   14.9226 H   0  0  0  0  0  0  0  0  0  0  0  0
   21.9975   14.7124   14.4061 H   0  0  0  0  0  0  0  0  0  0  0  0
   19.6957   12.8993    8.8829 H   0  0  0  0  0  0  0  0  0  0  0  0
   18.9641   14.4078   11.1029 H   0  0  0  0  0  0  0  0  0  0  0  0
   18.1039   12.9291   10.5324 H   0  0  0  0  0  0  0  0  0  0  0  0
   18.6311   12.3996   12.7537 H   0  0  0  0  0  0  0  0  0  0  0  0
   19.9861   11.6489   11.8075 H   0  0  0  0  0  0  0  0  0  0  0  0
   20.3692   13.3497   13.9164 H   0  0  0  0  0  0  0  0  0  0  0  0
   22.5066   15.4879    6.1443 H   0  0  0  0  0  0  0  0  0  0  0  0
  1  2  1  0
  2  3  1  0
  3  4  2  0
  4  5  1  0
  5  6  1  0
  6  7  2  0
  6  8  2  0
  6  9  1  0
  9 10  2  0
 10 11  1  0
 11 12  1  0
 12 13  2  0
 12 14  1  0
 14 15  1  0
 15 16  1  0
 16 17  1  0
 17 18  1  0
 18 19  2  0
 18 20  1  0
 20 21  1  0
 21 22  2  0
 11 23  2  0
 23 24  1  0
 24 25  2  0
 25 26  1  0
 26 27  2  0
 26 28  1  0
 28 29  1  0
 29 30  1  0
 30 31  1  0
  5 32  1  0
 32 33  2  0
 33  3  1  0
 25  9  1  0
 21 15  1  0
 31 24  1  0
  1 34  1  0
  1 35  1  0
  1 36  1  0
  2 37  1  0
  2 38  1  0
  4 39  1  0
 10 40  1  0
 14 41  1  0
 15 42  1  1
 16 43  1  0
 16 44  1  0
 17 45  1  0
 17 46  1  0
 20 47  1  0
 23 48  1  0
 28 49  1  0
 29 50  1  0
 29 51  1  0
 30 52  1  0
 30 53  1  0
 31 54  1  0
 32 55  1  0
M  END
>  <meeko>  (925) 
{"is_sidechain": [true], "free_energy": -10.4, "intermolecular_energy": 0.22, "internal_energy": -10.62, "cluster_size": 18, "cluster_id": 1, "rank_in_cluster": 1}

>  <_RMSD_MCS_to_ref>  (925) 
0.424263152091037

$$$$
ligand
     RDKit          3D

 52 56  0  0  0  0  0  0  0  0999 V2000
   18.8250   19.0170    7.5350 C   0  0  0  0  0  0  0  0  0  0  0  0
   18.5200   17.5420    7.7330 C   0  0  0  0  0  0  0  0  0  0  0  0
   19.6820   16.6730    7.3970 C   0  0  0  0  0  0  0  0  0  0  0  0
   20.9930   16.7820    7.8210 C   0  0  0  0  0  0  0  0  0  0  0  0
   21.6210   15.7190    7.2430 N   0  0  0  0  0  0  0  0  0  0  0  0
   23.1710   15.1730    7.5760 S   0  0  0  0  0  6  0  0  0  0  0  0
   23.7320   14.8020    6.2930 O   0  0  0  0  0  0  0  0  0  0  0  0
   23.7810   16.1570    8.4510 O   0  0  0  0  0  0  0  0  0  0  0  0
   23.0620   13.6810    8.5210 C   0  0  0  0  0  0  0  0  0  0  0  0
   22.8820   12.4430    7.9190 O   0  0  0  0  0  0  0  0  0  0  0  0
   22.8000   11.5590    8.9450 C   0  0  0  0  0  0  0  0  0  0  0  0
   22.9010   12.0860   10.1410 N   0  0  0  0  0  0  0  0  0  0  0  0
   23.0980   13.4190    9.8830 C   0  0  0  0  0  0  0  0  0  0  0  0
   23.2470   14.4040   10.9300 C   0  0  0  0  0  0  0  0  0  0  0  0
   22.2680   15.4140   11.0630 C   0  0  0  0  0  0  0  0  0  0  0  0
   22.4180   16.4360   12.0030 C   0  0  0  0  0  0  0  0  0  0  0  0
   23.5490   16.4040   12.7970 C   0  0  0  0  0  0  0  0  0  0  0  0
   24.5100   15.4010   12.7010 C   0  0  0  0  0  0  0  0  0  0  0  0
   24.3670   14.3810   11.7750 C   0  0  0  0  0  0  0  0  0  0  0  0
   25.6250   15.6720   13.6530 C   0  0  0  0  0  0  0  0  0  0  0  0
   25.1760   16.8730   14.3430 N   0  0  0  0  0  0  0  0  0  0  0  0
   26.0960   17.6670   15.1490 C   0  0  2  0  0  0  0  0  0  0  0  0
   25.6590   17.8350   16.6040 C   0  0  0  0  0  0  0  0  0  0  0  0
   26.7170   18.6250   17.3580 C   0  0  0  0  0  0  0  0  0  0  0  0
   26.9750   19.9620   16.7040 C   0  0  0  0  0  0  0  0  0  0  0  0
   27.4320   20.9170   17.3250 O   0  0  0  0  0  0  0  0  0  0  0  0
   26.7510   20.0420   15.3520 N   0  0  0  0  0  0  0  0  0  0  0  0
   26.3470   19.0390   14.5010 C   0  0  0  0  0  0  0  0  0  0  0  0
   26.2940   19.2370   13.2870 O   0  0  0  0  0  0  0  0  0  0  0  0
   23.9980   17.3710   13.8020 C   0  0  0  0  0  0  0  0  0  0  0  0
   23.4370   18.4210   14.0490 O   0  0  0  0  0  0  0  0  0  0  0  0
   20.7260   15.0210    6.4970 C   0  0  0  0  0  0  0  0  0  0  0  0
   19.5340   15.5730    6.5740 N   0  0  0  0  0  0  0  0  0  0  0  0
   18.9260   19.5054    8.5155 H   0  0  0  0  0  0  0  0  0  0  0  0
   19.7645   19.1250    6.9731 H   0  0  0  0  0  0  0  0  0  0  0  0
   18.0054   19.4887    6.9731 H   0  0  0  0  0  0  0  0  0  0  0  0
   18.2469   17.3757    8.7855 H   0  0  0  0  0  0  0  0  0  0  0  0
   17.6947   17.2759    7.0562 H   0  0  0  0  0  0  0  0  0  0  0  0
   21.4298   17.5508    8.4753 H   0  0  0  0  0  0  0  0  0  0  0  0
   22.6592   10.4798    8.7850 H   0  0  0  0  0  0  0  0  0  0  0  0
   21.3769   15.3952   10.4184 H   0  0  0  0  0  0  0  0  0  0  0  0
   21.6673   17.2333   12.1072 H   0  0  0  0  0  0  0  0  0  0  0  0
   25.1116   13.5744   11.7039 H   0  0  0  0  0  0  0  0  0  0  0  0
   25.7569   14.8368   14.3566 H   0  0  0  0  0  0  0  0  0  0  0  0
   26.6000   15.7930   13.1583 H   0  0  0  0  0  0  0  0  0  0  0  0
   27.0360   17.0963   15.1766 H   0  0  0  0  0  0  0  0  0  0  0  0
   24.7016   18.3754   16.6401 H   0  0  0  0  0  0  0  0  0  0  0  0
   25.5367   16.8456   17.0688 H   0  0  0  0  0  0  0  0  0  0  0  0
   26.3725   18.7913   18.3893 H   0  0  0  0  0  0  0  0  0  0  0  0
   27.6533   18.0478   17.3482 H   0  0  0  0  0  0  0  0  0  0  0  0
   26.9040   20.9654   14.9222 H   0  0  0  0  0  0  0  0  0  0  0  0
   20.9641   14.1210    5.9110 H   0  0  0  0  0  0  0  0  0  0  0  0
  1  2  1  0
  2  3  1  0
  3  4  2  0
  4  5  1  0
  5  6  1  0
  6  7  2  0
  6  8  2  0
  6  9  1  0
  9 10  1  0
 10 11  1  0
 11 12  2  0
 12 13  1  0
 13 14  1  0
 14 15  2  0
 15 16  1  0
 16 17  2  0
 17 18  1  0
 18 19  2  0
 18 20  1  0
 20 21  1  0
 21 22  1  0
 22 23  1  0
 23 24  1  0
 24 25  1  0
 25 26  2  0
 25 27  1  0
 27 28  1  0
 28 29  2  0
 21 30  1  0
 30 31  2  0
  5 32  1  0
 32 33  2  0
 33  3  1  0
 13  9  2  0
 19 14  1  0
 28 22  1  0
 30 17  1  0
  1 34  1  0
  1 35  1  0
  1 36  1  0
  2 37  1  0
  2 38  1  0
  4 39  1  0
 11 40  1  0
 15 41  1  0
 16 42  1  0
 19 43  1  0
 20 44  1  0
 20 45  1  0
 22 46  1  1
 23 47  1  0
 23 48  1  0
 24 49  1  0
 24 50  1  0
 27 51  1  0
 32 52  1  0
M  END
>  <meeko>  (926) 
{"is_sidechain": [true], "free_energy": -10.39, "intermolecular_energy": 0.0, "internal_energy": -10.39, "cluster_size": 20, "cluster_id": 1, "rank_in_cluster": 1}

>  <_RMSD_MCS_to_ref>  (926) 
1.2088139963525315

$$$$
ligand
     RDKit          3D

 44 47  0  0  0  0  0  0  0  0999 V2000
   18.8250   19.0170    7.5350 C   0  0  0  0  0  0  0  0  0  0  0  0
   18.5200   17.5420    7.7330 C   0  0  0  0  0  0  0  0  0  0  0  0
   19.7360   16.7580    8.0820 C   0  0  0  0  0  0  0  0  0  0  0  0
   20.3390   16.5900    9.3140 C   0  0  0  0  0  0  0  0  0  0  0  0
   21.4050   15.7790    9.0540 N   0  0  0  0  0  0  0  0  0  0  0  0
   22.4690   15.1800   10.1990 S   0  0  0  0  0  6  0  0  0  0  0  0
   23.3030   16.2740   10.6490 O   0  0  0  0  0  0  0  0  0  0  0  0
   23.0200   13.9670    9.6230 O   0  0  0  0  0  0  0  0  0  0  0  0
   21.6070   14.6160   11.6110 C   0  0  0  0  0  0  0  0  0  0  0  0
   20.6910   13.6100   11.4700 N   0  0  0  0  0  0  0  0  0  0  0  0
   20.0700   13.2670   12.6120 N   0  0  0  0  0  0  0  0  0  0  0  0
   20.6340   14.0650   13.5230 C   0  0  0  0  0  0  0  0  0  0  0  0
   21.5960   14.9210   12.9560 C   0  0  0  0  0  0  0  0  0  0  0  0
   22.3820   15.9050   13.6710 C   0  0  0  0  0  0  0  0  0  0  0  0
   23.7420   16.1060   13.6890 C   0  0  0  0  0  0  0  0  0  0  0  0
   23.9060   17.1440   14.5620 N   0  0  0  0  0  0  0  0  0  0  0  0
   25.1140   17.8660   14.9340 C   0  0  2  0  0  0  0  0  0  0  0  0
   25.2690   17.9200   16.4530 C   0  0  0  0  0  0  0  0  0  0  0  0
   26.5680   18.6220   16.8130 C   0  0  0  0  0  0  0  0  0  0  0  0
   26.6290   20.0010   16.2030 C   0  0  0  0  0  0  0  0  0  0  0  0
   27.2650   20.9190   16.7090 O   0  0  0  0  0  0  0  0  0  0  0  0
   25.9680   20.1700   15.0110 N   0  0  0  0  0  0  0  0  0  0  0  0
   25.1660   19.2650   14.3470 C   0  0  0  0  0  0  0  0  0  0  0  0
   24.5790   19.6110   13.3250 O   0  0  0  0  0  0  0  0  0  0  0  0
   22.7170   17.5880   15.0120 N   0  0  0  0  0  0  0  0  0  0  0  0
   21.7760   16.8220   14.4780 N   0  0  0  0  0  0  0  0  0  0  0  0
   21.4310   15.4790    7.7320 C   0  0  0  0  0  0  0  0  0  0  0  0
   20.4210   16.0560    7.1100 N   0  0  0  0  0  0  0  0  0  0  0  0
   18.9260   19.5054    8.5155 H   0  0  0  0  0  0  0  0  0  0  0  0
   19.7645   19.1250    6.9731 H   0  0  0  0  0  0  0  0  0  0  0  0
   18.0054   19.4887    6.9731 H   0  0  0  0  0  0  0  0  0  0  0  0
   17.7862   17.4381    8.5459 H   0  0  0  0  0  0  0  0  0  0  0  0
   18.1255   17.1486    6.7845 H   0  0  0  0  0  0  0  0  0  0  0  0
   20.0306   17.0128   10.2815 H   0  0  0  0  0  0  0  0  0  0  0  0
   20.4941   13.1548   10.5673 H   0  0  0  0  0  0  0  0  0  0  0  0
   20.3762   14.0541   14.5923 H   0  0  0  0  0  0  0  0  0  0  0  0
   24.5165   15.5592   13.1312 H   0  0  0  0  0  0  0  0  0  0  0  0
   25.9582   17.3055   14.5060 H   0  0  0  0  0  0  0  0  0  0  0  0
   24.4227   18.4726   16.8871 H   0  0  0  0  0  0  0  0  0  0  0  0
   25.2867   16.8955   16.8530 H   0  0  0  0  0  0  0  0  0  0  0  0
   26.6372   18.7101   17.9073 H   0  0  0  0  0  0  0  0  0  0  0  0
   27.4061   18.0287   16.4185 H   0  0  0  0  0  0  0  0  0  0  0  0
   26.0858   21.0866   14.5562 H   0  0  0  0  0  0  0  0  0  0  0  0
   22.1872   14.8443    7.2469 H   0  0  0  0  0  0  0  0  0  0  0  0
  1  2  1  0
  2  3  1  0
  3  4  2  0
  4  5  1  0
  5  6  1  0
  6  7  2  0
  6  8  2  0
  6  9  1  0
  9 10  1  0
 10 11  1  0
 11 12  2  0
 12 13  1  0
 13 14  1  0
 14 15  2  0
 15 16  1  0
 16 17  1  0
 17 18  1  0
 18 19  1  0
 19 20  1  0
 20 21  2  0
 20 22  1  0
 22 23  1  0
 23 24  2  0
 16 25  1  0
 25 26  2  0
  5 27  1  0
 27 28  2  0
 28  3  1  0
 13  9  2  0
 26 14  1  0
 23 17  1  0
  1 29  1  0
  1 30  1  0
  1 31  1  0
  2 32  1  0
  2 33  1  0
  4 34  1  0
 10 35  1  0
 12 36  1  0
 15 37  1  0
 17 38  1  6
 18 39  1  0
 18 40  1  0
 19 41  1  0
 19 42  1  0
 22 43  1  0
 27 44  1  0
M  END
>  <meeko>  (927) 
{"is_sidechain": [true], "free_energy": -10.39, "intermolecular_energy": 0.0, "internal_energy": -10.39, "cluster_size": 18, "cluster_id": 1, "rank_in_cluster": 1}

>  <_RMSD_MCS_to_ref>  (927) 
0.6175003373818249

$$$$
ligand
     RDKit          3D

 50 53  0  0  0  0  0  0  0  0999 V2000
   18.7970   18.8170    7.7190 C   0  0  0  0  0  0  0  0  0  0  0  0
   18.5280   17.3290    7.8810 C   0  0  0  0  0  0  0  0  0  0  0  0
   19.7830   16.5290    7.8920 C   0  0  0  0  0  0  0  0  0  0  0  0
   20.7960   16.4890    6.9540 C   0  0  0  0  0  0  0  0  0  0  0  0
   21.6810   15.5790    7.4560 N   0  0  0  0  0  0  0  0  0  0  0  0
   23.2210   15.2680    6.8620 S   0  0  0  0  0  6  0  0  0  0  0  0
   23.8380   16.5610    6.6430 O   0  0  0  0  0  0  0  0  0  0  0  0
   23.0410   14.3010    5.7970 O   0  0  0  0  0  0  0  0  0  0  0  0
   24.0440   14.4780    8.2160 C   0  0  0  0  0  0  0  0  0  0  0  0
   24.5130   13.1710    8.0800 C   0  0  0  0  0  0  0  0  0  0  0  0
   25.1600   12.5710    9.1580 C   0  0  0  0  0  0  0  0  0  0  0  0
   25.3420   13.2740   10.3610 C   0  0  0  0  0  0  0  0  0  0  0  0
   25.9850   12.6920   11.4610 C   0  0  0  0  0  0  0  0  0  0  0  0
   26.1460   13.4230   12.6330 C   0  0  0  0  0  0  0  0  0  0  0  0
   25.6530   14.7180   12.6600 C   0  0  0  0  0  0  0  0  0  0  0  0
   25.7910   15.5450   13.9030 C   0  0  0  0  0  0  0  0  0  0  0  0
   25.9220   15.0360   15.0090 O   0  0  0  0  0  0  0  0  0  0  0  0
   25.7420   16.9050   13.6890 N   0  0  0  0  0  0  0  0  0  0  0  0
   25.6840   17.8660   14.7730 C   0  0  1  0  0  0  0  0  0  0  0  0
   26.5380   17.4380   15.9630 C   0  0  0  0  0  0  0  0  0  0  0  0
   26.4530   18.4940   17.0540 C   0  0  0  0  0  0  0  0  0  0  0  0
   26.8570   19.8540   16.5340 C   0  0  0  0  0  0  0  0  0  0  0  0
   27.4230   20.6860   17.2370 O   0  0  0  0  0  0  0  0  0  0  0  0
   26.5260   20.1370   15.2330 N   0  0  0  0  0  0  0  0  0  0  0  0
   26.1760   19.2260   14.2660 C   0  0  0  0  0  0  0  0  0  0  0  0
   26.2440   19.5170   13.0720 O   0  0  0  0  0  0  0  0  0  0  0  0
   25.0230   15.3170   11.6120 N   0  0  0  0  0  0  0  0  0  0  0  0
   24.8750   14.6030   10.4870 C   0  0  0  0  0  0  0  0  0  0  0  0
   24.2360   15.1880    9.4050 C   0  0  0  0  0  0  0  0  0  0  0  0
   21.2330   15.1390    8.6600 C   0  0  0  0  0  0  0  0  0  0  0  0
   20.0730   15.6910    8.9510 N   0  0  0  0  0  0  0  0  0  0  0  0
   18.8815   19.2845    8.7111 H   0  0  0  0  0  0  0  0  0  0  0  0
   19.7359   18.9616    7.1643 H   0  0  0  0  0  0  0  0  0  0  0  0
   17.9682   19.2812    7.1643 H   0  0  0  0  0  0  0  0  0  0  0  0
   17.9959   17.1664    8.8299 H   0  0  0  0  0  0  0  0  0  0  0  0
   17.9248   16.9993    7.0223 H   0  0  0  0  0  0  0  0  0  0  0  0
   20.8722   17.0599    6.0168 H   0  0  0  0  0  0  0  0  0  0  0  0
   24.3741   12.6230    7.1364 H   0  0  0  0  0  0  0  0  0  0  0  0
   25.5311   11.5395    9.0668 H   0  0  0  0  0  0  0  0  0  0  0  0
   26.3613   11.6603   11.3980 H   0  0  0  0  0  0  0  0  0  0  0  0
   26.6480   12.9878   13.5097 H   0  0  0  0  0  0  0  0  0  0  0  0
   25.7468   17.2532   12.7197 H   0  0  0  0  0  0  0  0  0  0  0  0
   24.6394   17.9294   15.1119 H   0  0  0  0  0  0  0  0  0  0  0  0
   26.1690   16.4778   16.3526 H   0  0  0  0  0  0  0  0  0  0  0  0
   27.5841   17.3259   15.6420 H   0  0  0  0  0  0  0  0  0  0  0  0
   25.4183   18.5446   17.4239 H   0  0  0  0  0  0  0  0  0  0  0  0
   27.1424   18.2130   17.8638 H   0  0  0  0  0  0  0  0  0  0  0  0
   26.5414   21.1284   14.9542 H   0  0  0  0  0  0  0  0  0  0  0  0
   23.8753   16.2243    9.4828 H   0  0  0  0  0  0  0  0  0  0  0  0
   21.7646   14.4217    9.3026 H   0  0  0  0  0  0  0  0  0  0  0  0
  1  2  1  0
  2  3  1  0
  3  4  2  0
  4  5  1  0
  5  6  1  0
  6  7  2  0
  6  8  2  0
  6  9  1  0
  9 10  2  0
 10 11  1  0
 11 12  2  0
 12 13  1  0
 13 14  2  0
 14 15  1  0
 15 16  1  0
 16 17  2  0
 16 18  1  0
 18 19  1  0
 19 20  1  0
 20 21  1  0
 21 22  1  0
 22 23  2  0
 22 24  1  0
 24 25  1  0
 25 26  2  0
 15 27  2  0
 27 28  1  0
 28 29  2  0
  5 30  1  0
 30 31  2  0
 31  3  1  0
 29  9  1  0
 28 12  1  0
 25 19  1  0
  1 32  1  0
  1 33  1  0
  1 34  1  0
  2 35  1  0
  2 36  1  0
  4 37  1  0
 10 38  1  0
 11 39  1  0
 13 40  1  0
 14 41  1  0
 18 42  1  0
 19 43  1  1
 20 44  1  0
 20 45  1  0
 21 46  1  0
 21 47  1  0
 24 48  1  0
 29 49  1  0
 30 50  1  0
M  END
>  <meeko>  (928) 
{"is_sidechain": [true], "free_energy": -10.39, "intermolecular_energy": 0.0, "internal_energy": -10.39, "cluster_size": 19, "cluster_id": 1, "rank_in_cluster": 1}

>  <_RMSD_MCS_to_ref>  (928) 
0.7954823833512734

$$$$
ligand
     RDKit          3D

 47 50  0  0  0  0  0  0  0  0999 V2000
   18.9090   19.1540    7.5370 C   0  0  0  0  0  0  0  0  0  0  0  0
   18.7730   17.6460    7.6780 C   0  0  0  0  0  0  0  0  0  0  0  0
   20.0220   16.9300    7.3000 C   0  0  0  0  0  0  0  0  0  0  0  0
   21.2170   16.8450    7.9870 C   0  0  0  0  0  0  0  0  0  0  0  0
   22.0180   16.0960    7.1730 N   0  0  0  0  0  0  0  0  0  0  0  0
   23.5210   15.4560    7.5900 S   0  0  0  0  0  6  0  0  0  0  0  0
   23.8500   14.5500    6.5050 O   0  0  0  0  0  0  0  0  0  0  0  0
   24.3450   16.6120    7.8880 O   0  0  0  0  0  0  0  0  0  0  0  0
   23.2770   14.5990    8.9550 O   0  0  0  0  0  0  0  0  0  0  0  0
   23.3500   15.1620   10.2060 C   0  0  0  0  0  0  0  0  0  0  0  0
   22.2770   14.8310   11.0590 C   0  0  0  0  0  0  0  0  0  0  0  0
   22.2110   15.3310   12.3620 C   0  0  0  0  0  0  0  0  0  0  0  0
   23.2370   16.1580   12.7720 C   0  0  0  0  0  0  0  0  0  0  0  0
   24.3030   16.5000   11.9420 C   0  0  0  0  0  0  0  0  0  0  0  0
   24.3740   16.0100   10.6480 C   0  0  0  0  0  0  0  0  0  0  0  0
   25.2310   17.4250   12.6620 C   0  0  0  0  0  0  0  0  0  0  0  0
   24.6440   17.4890   13.9940 N   0  0  0  0  0  0  0  0  0  0  0  0
   25.0460   18.4660   15.0010 C   0  0  1  0  0  0  0  0  0  0  0  0
   26.0660   17.9030   15.9860 C   0  0  0  0  0  0  0  0  0  0  0  0
   26.3650   18.9460   17.0540 C   0  0  0  0  0  0  0  0  0  0  0  0
   26.8320   20.2430   16.4340 C   0  0  0  0  0  0  0  0  0  0  0  0
   27.6810   20.9540   16.9620 O   0  0  0  0  0  0  0  0  0  0  0  0
   26.2430   20.6030   15.2480 N   0  0  0  0  0  0  0  0  0  0  0  0
   25.6130   19.7490   14.3720 C   0  0  0  0  0  0  0  0  0  0  0  0
   25.5400   20.0290   13.1770 O   0  0  0  0  0  0  0  0  0  0  0  0
   23.4300   16.8240   14.0640 C   0  0  0  0  0  0  0  0  0  0  0  0
   22.6520   16.7770   14.9970 O   0  0  0  0  0  0  0  0  0  0  0  0
   21.3000   15.6890    6.0950 C   0  0  0  0  0  0  0  0  0  0  0  0
   20.0870   16.2010    6.1290 N   0  0  0  0  0  0  0  0  0  0  0  0
   18.9504   19.6134    8.5356 H   0  0  0  0  0  0  0  0  0  0  0  0
   19.8320   19.3891    6.9867 H   0  0  0  0  0  0  0  0  0  0  0  0
   18.0430   19.5504    6.9867 H   0  0  0  0  0  0  0  0  0  0  0  0
   18.5317   17.4086    8.7246 H   0  0  0  0  0  0  0  0  0  0  0  0
   17.9750   17.3143    6.9975 H   0  0  0  0  0  0  0  0  0  0  0  0
   21.4665   17.2808    8.9657 H   0  0  0  0  0  0  0  0  0  0  0  0
   21.4790   14.1684   10.6926 H   0  0  0  0  0  0  0  0  0  0  0  0
   21.3769   15.0764   13.0324 H   0  0  0  0  0  0  0  0  0  0  0  0
   25.2106   16.2791    9.9864 H   0  0  0  0  0  0  0  0  0  0  0  0
   26.2516   17.0161   12.6968 H   0  0  0  0  0  0  0  0  0  0  0  0
   25.3305   18.4085   12.1795 H   0  0  0  0  0  0  0  0  0  0  0  0
   24.1248   18.7124   15.5493 H   0  0  0  0  0  0  0  0  0  0  0  0
   25.6578   16.9983   16.4603 H   0  0  0  0  0  0  0  0  0  0  0  0
   26.9927   17.6484   15.4507 H   0  0  0  0  0  0  0  0  0  0  0  0
   25.4515   19.1351   17.6369 H   0  0  0  0  0  0  0  0  0  0  0  0
   27.1656   18.5613   17.7029 H   0  0  0  0  0  0  0  0  0  0  0  0
   26.2753   21.5999   14.9909 H   0  0  0  0  0  0  0  0  0  0  0  0
   21.6783   15.0247    5.3040 H   0  0  0  0  0  0  0  0  0  0  0  0
  1  2  1  0
  2  3  1  0
  3  4  2  0
  4  5  1  0
  5  6  1  0
  6  7  2  0
  6  8  2  0
  6  9  1  0
  9 10  1  0
 10 11  2  0
 11 12  1  0
 12 13  2  0
 13 14  1  0
 14 15  2  0
 14 16  1  0
 16 17  1  0
 17 18  1  0
 18 19  1  0
 19 20  1  0
 20 21  1  0
 21 22  2  0
 21 23  1  0
 23 24  1  0
 24 25  2  0
 17 26  1  0
 26 27  2  0
  5 28  1  0
 28 29  2  0
 29  3  1  0
 15 10  1  0
 24 18  1  0
 26 13  1  0
  1 30  1  0
  1 31  1  0
  1 32  1  0
  2 33  1  0
  2 34  1  0
  4 35  1  0
 11 36  1  0
 12 37  1  0
 15 38  1  0
 16 39  1  0
 16 40  1  0
 18 41  1  1
 19 42  1  0
 19 43  1  0
 20 44  1  0
 20 45  1  0
 23 46  1  0
 28 47  1  0
M  END
>  <meeko>  (929) 
{"is_sidechain": [true], "free_energy": -10.39, "intermolecular_energy": 0.0, "internal_energy": -10.39, "cluster_size": 20, "cluster_id": 1, "rank_in_cluster": 1}

>  <_RMSD_MCS_to_ref>  (929) 
0.9625809634057341

$$$$
ligand
     RDKit          3D

 49 52  0  0  0  0  0  0  0  0999 V2000
   18.9090   19.1540    7.5370 C   0  0  0  0  0  0  0  0  0  0  0  0
   18.7730   17.6460    7.6780 C   0  0  0  0  0  0  0  0  0  0  0  0
   19.8550   16.9160    6.9640 C   0  0  0  0  0  0  0  0  0  0  0  0
   21.1860   16.7810    7.3070 C   0  0  0  0  0  0  0  0  0  0  0  0
   21.7210   16.0410    6.2910 N   0  0  0  0  0  0  0  0  0  0  0  0
   23.2550   15.3700    6.2730 S   0  0  0  0  0  6  0  0  0  0  0  0
   23.1390   14.0760    5.6370 O   0  0  0  0  0  0  0  0  0  0  0  0
   24.1570   16.4080    5.8160 O   0  0  0  0  0  0  0  0  0  0  0  0
   23.7540   15.0390    7.9350 C   0  0  0  0  0  0  0  0  0  0  0  0
   24.1120   13.8830    8.6070 C   0  0  0  0  0  0  0  0  0  0  0  0
   24.4090   14.2230    9.9540 C   0  0  0  0  0  0  0  0  0  0  0  0
   24.8070   13.4870   11.0860 C   0  0  0  0  0  0  0  0  0  0  0  0
   25.0180   14.1530   12.3020 C   0  0  0  0  0  0  0  0  0  0  0  0
   24.8470   15.5390   12.3970 C   0  0  0  0  0  0  0  0  0  0  0  0
   25.0620   16.2730   13.6780 C   0  0  0  0  0  0  0  0  0  0  0  0
   24.9720   15.6890   14.7510 O   0  0  0  0  0  0  0  0  0  0  0  0
   25.3240   17.6220   13.5810 N   0  0  0  0  0  0  0  0  0  0  0  0
   25.3890   18.4590   14.7710 C   0  0  1  0  0  0  0  0  0  0  0  0
   26.3190   17.8830   15.8340 C   0  0  0  0  0  0  0  0  0  0  0  0
   26.3700   18.8240   17.0270 C   0  0  0  0  0  0  0  0  0  0  0  0
   26.7860   20.2160   16.6100 C   0  0  0  0  0  0  0  0  0  0  0  0
   27.4570   20.9460   17.3320 O   0  0  0  0  0  0  0  0  0  0  0  0
   26.3520   20.6450   15.3810 N   0  0  0  0  0  0  0  0  0  0  0  0
   25.8990   19.8450   14.3620 C   0  0  0  0  0  0  0  0  0  0  0  0
   25.8960   20.2390   13.1960 O   0  0  0  0  0  0  0  0  0  0  0  0
   24.4360   16.2850   11.2810 C   0  0  0  0  0  0  0  0  0  0  0  0
   24.2310   15.6000   10.0760 C   0  0  0  0  0  0  0  0  0  0  0  0
   23.8450   16.0690    8.8440 N   0  0  0  0  0  0  0  0  0  0  0  0
   20.7340   15.6980    5.4230 C   0  0  0  0  0  0  0  0  0  0  0  0
   19.5870   16.2300    5.7940 N   0  0  0  0  0  0  0  0  0  0  0  0
   18.9504   19.6134    8.5356 H   0  0  0  0  0  0  0  0  0  0  0  0
   19.8320   19.3891    6.9867 H   0  0  0  0  0  0  0  0  0  0  0  0
   18.0430   19.5504    6.9867 H   0  0  0  0  0  0  0  0  0  0  0  0
   18.8139   17.3847    8.7457 H   0  0  0  0  0  0  0  0  0  0  0  0
   17.8128   17.3498    7.2304 H   0  0  0  0  0  0  0  0  0  0  0  0
   21.6983   17.1786    8.1955 H   0  0  0  0  0  0  0  0  0  0  0  0
   24.1586   12.8736    8.1723 H   0  0  0  0  0  0  0  0  0  0  0  0
   24.9513   12.3987   11.0174 H   0  0  0  0  0  0  0  0  0  0  0  0
   25.3211   13.5800   13.1907 H   0  0  0  0  0  0  0  0  0  0  0  0
   25.4760   18.0445   12.6540 H   0  0  0  0  0  0  0  0  0  0  0  0
   24.3801   18.5128   15.2060 H   0  0  0  0  0  0  0  0  0  0  0  0
   25.9427   16.9012   16.1573 H   0  0  0  0  0  0  0  0  0  0  0  0
   27.3292   17.7685   15.4141 H   0  0  0  0  0  0  0  0  0  0  0  0
   25.3730   18.8712   17.4892 H   0  0  0  0  0  0  0  0  0  0  0  0
   27.1121   18.4390   17.7419 H   0  0  0  0  0  0  0  0  0  0  0  0
   26.3676   21.6601   15.2074 H   0  0  0  0  0  0  0  0  0  0  0  0
   24.2800   17.3717   11.3503 H   0  0  0  0  0  0  0  0  0  0  0  0
   23.6501   17.0573    8.6293 H   0  0  0  0  0  0  0  0  0  0  0  0
   20.8729   15.0646    4.5345 H   0  0  0  0  0  0  0  0  0  0  0  0
  1  2  1  0
  2  3  1  0
  3  4  2  0
  4  5  1  0
  5  6  1  0
  6  7  2  0
  6  8  2  0
  6  9  1  0
  9 10  2  0
 10 11  1  0
 11 12  2  0
 12 13  1  0
 13 14  2  0
 14 15  1  0
 15 16  2  0
 15 17  1  0
 17 18  1  0
 18 19  1  0
 19 20  1  0
 20 21  1  0
 21 22  2  0
 21 23  1  0
 23 24  1  0
 24 25  2  0
 14 26  1  0
 26 27  2  0
 27 28  1  0
  5 29  1  0
 29 30  2  0
 30  3  1  0
 28  9  1  0
 27 11  1  0
 24 18  1  0
  1 31  1  0
  1 32  1  0
  1 33  1  0
  2 34  1  0
  2 35  1  0
  4 36  1  0
 10 37  1  0
 12 38  1  0
 13 39  1  0
 17 40  1  0
 18 41  1  1
 19 42  1  0
 19 43  1  0
 20 44  1  0
 20 45  1  0
 23 46  1  0
 26 47  1  0
 28 48  1  0
 29 49  1  0
M  END
>  <meeko>  (930) 
{"is_sidechain": [true], "free_energy": -10.39, "intermolecular_energy": 0.0, "internal_energy": -10.39, "cluster_size": 11, "cluster_id": 1, "rank_in_cluster": 1}

>  <_RMSD_MCS_to_ref>  (930) 
0.6409198467827317

$$$$
ligand
     RDKit          3D

 47 50  0  0  0  0  0  0  0  0999 V2000
   18.9090   19.1540    7.5370 C   0  0  0  0  0  0  0  0  0  0  0  0
   18.7730   17.6460    7.6780 C   0  0  0  0  0  0  0  0  0  0  0  0
   20.0330   16.9340    7.3320 C   0  0  0  0  0  0  0  0  0  0  0  0
   21.1480   16.7120    8.1160 C   0  0  0  0  0  0  0  0  0  0  0  0
   22.0030   16.0300    7.2960 N   0  0  0  0  0  0  0  0  0  0  0  0
   23.4750   15.3760    7.7560 S   0  0  0  0  0  6  0  0  0  0  0  0
   23.2830   13.9480    7.8970 O   0  0  0  0  0  0  0  0  0  0  0  0
   24.4520   15.9430    6.8460 O   0  0  0  0  0  0  0  0  0  0  0  0
   23.9450   15.9570    9.3280 C   0  0  0  0  0  0  0  0  0  0  0  0
   24.9510   16.8050    9.7440 C   0  0  0  0  0  0  0  0  0  0  0  0
   24.9380   16.9750   11.1030 N   0  0  0  0  0  0  0  0  0  0  0  0
   23.9350   16.2310   11.5300 C   0  0  0  0  0  0  0  0  0  0  0  0
   23.4250   16.0000   12.8320 C   0  0  0  0  0  0  0  0  0  0  0  0
   24.0070   16.6230   14.0600 C   0  0  0  0  0  0  0  0  0  0  0  0
   24.0630   16.0110   15.1240 O   0  0  0  0  0  0  0  0  0  0  0  0
   24.4620   17.9060   13.9230 N   0  0  0  0  0  0  0  0  0  0  0  0
   24.9920   18.6690   15.0400 C   0  0  1  0  0  0  0  0  0  0  0  0
   26.1170   17.9190   15.7470 C   0  0  0  0  0  0  0  0  0  0  0  0
   26.6430   18.7600   16.9000 C   0  0  0  0  0  0  0  0  0  0  0  0
   27.0900   20.1220   16.4270 C   0  0  0  0  0  0  0  0  0  0  0  0
   28.0200   20.7290   16.9520 O   0  0  0  0  0  0  0  0  0  0  0  0
   26.3800   20.6760   15.3930 N   0  0  0  0  0  0  0  0  0  0  0  0
   25.5210   20.0200   14.5450 C   0  0  0  0  0  0  0  0  0  0  0  0
   25.1940   20.5220   13.4700 O   0  0  0  0  0  0  0  0  0  0  0  0
   22.3690   15.1870   12.9880 C   0  0  0  0  0  0  0  0  0  0  0  0
   21.7990   14.5810   11.7680 C   0  0  0  0  0  0  0  0  0  0  0  0
   22.2260   14.7600   10.5570 N   0  0  0  0  0  0  0  0  0  0  0  0
   23.3010   15.5890   10.4780 N   0  0  0  0  0  0  0  0  0  0  0  0
   21.4010   15.8260    6.0960 C   0  0  0  0  0  0  0  0  0  0  0  0
   20.2030   16.3740    6.0810 N   0  0  0  0  0  0  0  0  0  0  0  0
   18.9504   19.6134    8.5356 H   0  0  0  0  0  0  0  0  0  0  0  0
   19.8320   19.3891    6.9867 H   0  0  0  0  0  0  0  0  0  0  0  0
   18.0430   19.5504    6.9867 H   0  0  0  0  0  0  0  0  0  0  0  0
   18.5069   17.4099    8.7189 H   0  0  0  0  0  0  0  0  0  0  0  0
   17.9923   17.3102    6.9796 H   0  0  0  0  0  0  0  0  0  0  0  0
   21.3108   17.0146    9.1609 H   0  0  0  0  0  0  0  0  0  0  0  0
   25.6738   17.2850    9.0679 H   0  0  0  0  0  0  0  0  0  0  0  0
   24.4275   18.3475   12.9931 H   0  0  0  0  0  0  0  0  0  0  0  0
   24.1726   18.8237   15.7575 H   0  0  0  0  0  0  0  0  0  0  0  0
   25.7332   16.9641   16.1353 H   0  0  0  0  0  0  0  0  0  0  0  0
   26.9319   17.7249   15.0341 H   0  0  0  0  0  0  0  0  0  0  0  0
   25.8444   18.8842   17.6462 H   0  0  0  0  0  0  0  0  0  0  0  0
   27.5094   18.2436   17.3390 H   0  0  0  0  0  0  0  0  0  0  0  0
   26.5032   21.6865   15.2362 H   0  0  0  0  0  0  0  0  0  0  0  0
   21.9460   14.9807   13.9822 H   0  0  0  0  0  0  0  0  0  0  0  0
   20.9322   13.9165   11.8987 H   0  0  0  0  0  0  0  0  0  0  0  0
   21.8508   15.2795    5.2540 H   0  0  0  0  0  0  0  0  0  0  0  0
  1  2  1  0
  2  3  1  0
  3  4  2  0
  4  5  1  0
  5  6  1  0
  6  7  2  0
  6  8  2  0
  6  9  1  0
  9 10  2  0
 10 11  1  0
 11 12  2  0
 12 13  1  0
 13 14  1  0
 14 15  2  0
 14 16  1  0
 16 17  1  0
 17 18  1  0
 18 19  1  0
 19 20  1  0
 20 21  2  0
 20 22  1  0
 22 23  1  0
 23 24  2  0
 13 25  2  0
 25 26  1  0
 26 27  2  0
 27 28  1  0
  5 29  1  0
 29 30  2  0
 30  3  1  0
 28  9  1  0
 28 12  1  0
 23 17  1  0
  1 31  1  0
  1 32  1  0
  1 33  1  0
  2 34  1  0
  2 35  1  0
  4 36  1  0
 10 37  1  0
 16 38  1  0
 17 39  1  1
 18 40  1  0
 18 41  1  0
 19 42  1  0
 19 43  1  0
 22 44  1  0
 25 45  1  0
 26 46  1  0
 29 47  1  0
M  END
>  <meeko>  (931) 
{"is_sidechain": [true], "free_energy": -10.39, "intermolecular_energy": 0.0, "internal_energy": -10.39, "cluster_size": 9, "cluster_id": 1, "rank_in_cluster": 1}

>  <_RMSD_MCS_to_ref>  (931) 
0.5228120546089617

$$$$
ligand
     RDKit          3D

 46 49  0  0  0  0  0  0  0  0999 V2000
   18.9090   19.1540    7.5370 C   0  0  0  0  0  0  0  0  0  0  0  0
   18.7730   17.6460    7.6780 C   0  0  0  0  0  0  0  0  0  0  0  0
   19.8940   16.9180    7.0250 C   0  0  0  0  0  0  0  0  0  0  0  0
   20.9930   16.3140    7.6050 C   0  0  0  0  0  0  0  0  0  0  0  0
   21.6810   15.7880    6.5500 N   0  0  0  0  0  0  0  0  0  0  0  0
   23.1900   15.0680    6.6180 S   0  0  0  0  0  6  0  0  0  0  0  0
   24.1270   16.0300    6.0650 O   0  0  0  0  0  0  0  0  0  0  0  0
   23.0330   13.7370    6.0620 O   0  0  0  0  0  0  0  0  0  0  0  0
   23.6640   14.8410    8.3210 C   0  0  0  0  0  0  0  0  0  0  0  0
   23.8470   13.4240    8.7820 C   0  0  0  0  0  0  0  0  0  0  0  0
   24.2040   13.2750   10.0660 C   0  0  0  0  0  0  0  0  0  0  0  0
   24.3780   14.3930   10.8720 N   0  0  0  0  0  0  0  0  0  0  0  0
   24.7290   14.4570   12.1680 N   0  0  0  0  0  0  0  0  0  0  0  0
   24.7350   15.7770   12.4090 C   0  0  0  0  0  0  0  0  0  0  0  0
   25.0600   16.3760   13.7210 C   0  0  0  0  0  0  0  0  0  0  0  0
   25.2270   15.7330   14.7530 O   0  0  0  0  0  0  0  0  0  0  0  0
   25.1520   17.7530   13.6840 N   0  0  0  0  0  0  0  0  0  0  0  0
   25.3120   18.5490   14.8850 C   0  0  1  0  0  0  0  0  0  0  0  0
   26.3340   17.9400   15.8410 C   0  0  0  0  0  0  0  0  0  0  0  0
   26.4740   18.8270   17.0680 C   0  0  0  0  0  0  0  0  0  0  0  0
   26.8400   20.2410   16.6850 C   0  0  0  0  0  0  0  0  0  0  0  0
   27.5450   20.9550   17.3920 O   0  0  0  0  0  0  0  0  0  0  0  0
   26.3130   20.7140   15.5100 N   0  0  0  0  0  0  0  0  0  0  0  0
   25.7660   19.9610   14.5000 C   0  0  0  0  0  0  0  0  0  0  0  0
   25.6370   20.4200   13.3650 O   0  0  0  0  0  0  0  0  0  0  0  0
   24.4020   16.5550   11.3160 N   0  0  0  0  0  0  0  0  0  0  0  0
   24.1830   15.6820   10.3610 C   0  0  0  0  0  0  0  0  0  0  0  0
   23.8240   15.9020    9.0630 N   0  0  0  0  0  0  0  0  0  0  0  0
   21.0470   16.1170    5.3960 C   0  0  0  0  0  0  0  0  0  0  0  0
   19.9410   16.7840    5.6510 N   0  0  0  0  0  0  0  0  0  0  0  0
   18.9504   19.6134    8.5356 H   0  0  0  0  0  0  0  0  0  0  0  0
   19.8320   19.3891    6.9867 H   0  0  0  0  0  0  0  0  0  0  0  0
   18.0430   19.5504    6.9867 H   0  0  0  0  0  0  0  0  0  0  0  0
   18.7595   17.3899    8.7477 H   0  0  0  0  0  0  0  0  0  0  0  0
   17.8389   17.3430    7.1824 H   0  0  0  0  0  0  0  0  0  0  0  0
   21.2538   16.2676    8.6726 H   0  0  0  0  0  0  0  0  0  0  0  0
   23.6981   12.5651    8.1111 H   0  0  0  0  0  0  0  0  0  0  0  0
   24.3590   12.2681   10.4808 H   0  0  0  0  0  0  0  0  0  0  0  0
   25.1054   18.2307   12.7727 H   0  0  0  0  0  0  0  0  0  0  0  0
   24.3404   18.5793   15.3998 H   0  0  0  0  0  0  0  0  0  0  0  0
   25.9968   16.9393   16.1489 H   0  0  0  0  0  0  0  0  0  0  0  0
   27.3070   17.8601   15.3342 H   0  0  0  0  0  0  0  0  0  0  0  0
   25.5180   18.8393   17.6120 H   0  0  0  0  0  0  0  0  0  0  0  0
   27.2769   18.4201   17.7003 H   0  0  0  0  0  0  0  0  0  0  0  0
   26.3291   21.7345   15.3716 H   0  0  0  0  0  0  0  0  0  0  0  0
   21.4070   15.8620    4.3883 H   0  0  0  0  0  0  0  0  0  0  0  0
  1  2  1  0
  2  3  1  0
  3  4  2  0
  4  5  1  0
  5  6  1  0
  6  7  2  0
  6  8  2  0
  6  9  1  0
  9 10  1  0
 10 11  2  0
 11 12  1  0
 12 13  1  0
 13 14  2  0
 14 15  1  0
 15 16  2  0
 15 17  1  0
 17 18  1  0
 18 19  1  0
 19 20  1  0
 20 21  1  0
 21 22  2  0
 21 23  1  0
 23 24  1  0
 24 25  2  0
 14 26  1  0
 26 27  2  0
 27 28  1  0
  5 29  1  0
 29 30  2  0
 30  3  1  0
 28  9  2  0
 27 12  1  0
 24 18  1  0
  1 31  1  0
  1 32  1  0
  1 33  1  0
  2 34  1  0
  2 35  1  0
  4 36  1  0
 10 37  1  0
 11 38  1  0
 17 39  1  0
 18 40  1  1
 19 41  1  0
 19 42  1  0
 20 43  1  0
 20 44  1  0
 23 45  1  0
 29 46  1  0
M  END
>  <meeko>  (932) 
{"is_sidechain": [true], "free_energy": -10.39, "intermolecular_energy": 0.0, "internal_energy": -10.39, "cluster_size": 17, "cluster_id": 1, "rank_in_cluster": 1}

>  <_RMSD_MCS_to_ref>  (932) 
0.5834912167290951

$$$$
ligand
     RDKit          3D

 43 45  0  0  0  0  0  0  0  0999 V2000
   18.9090   19.1540    7.5370 C   0  0  0  0  0  0  0  0  0  0  0  0
   18.7730   17.6460    7.6780 C   0  0  0  0  0  0  0  0  0  0  0  0
   20.0730   16.9450    7.4950 C   0  0  0  0  0  0  0  0  0  0  0  0
   20.6580   15.9780    8.2880 C   0  0  0  0  0  0  0  0  0  0  0  0
   21.8210   15.6730    7.6400 N   0  0  0  0  0  0  0  0  0  0  0  0
   23.0680   14.7300    8.2550 S   0  0  0  0  0  6  0  0  0  0  0  0
   24.2210   15.0110    7.4260 O   0  0  0  0  0  0  0  0  0  0  0  0
   22.5220   13.3960    8.4050 O   0  0  0  0  0  0  0  0  0  0  0  0
   23.3510   15.3880    9.8410 C   0  0  0  0  0  0  0  0  0  0  0  0
   22.4330   15.2330   10.8510 C   0  0  0  0  0  0  0  0  0  0  0  0
   22.6200   15.7350   12.0880 N   0  0  0  0  0  0  0  0  0  0  0  0
   23.7830   16.3900   12.2950 C   0  0  0  0  0  0  0  0  0  0  0  0
   24.0340   16.9780   13.6650 C   0  0  0  0  0  0  0  0  0  0  0  0
   23.4710   16.5730   14.6760 O   0  0  0  0  0  0  0  0  0  0  0  0
   24.9400   18.0240   13.6880 N   0  0  0  0  0  0  0  0  0  0  0  0
   25.1750   18.8180   14.8820 C   0  0  1  0  0  0  0  0  0  0  0  0
   26.0740   18.1000   15.8820 C   0  0  0  0  0  0  0  0  0  0  0  0
   26.3000   18.9910   17.0920 C   0  0  0  0  0  0  0  0  0  0  0  0
   26.8670   20.3320   16.6880 C   0  0  0  0  0  0  0  0  0  0  0  0
   27.6560   20.9550   17.3930 O   0  0  0  0  0  0  0  0  0  0  0  0
   26.4340   20.8470   15.4930 N   0  0  0  0  0  0  0  0  0  0  0  0
   25.8330   20.1420   14.4790 C   0  0  0  0  0  0  0  0  0  0  0  0
   25.8220   20.5750   13.3260 O   0  0  0  0  0  0  0  0  0  0  0  0
   24.7550   16.5760   11.3670 N   0  0  0  0  0  0  0  0  0  0  0  0
   24.5130   16.0550   10.1460 C   0  0  0  0  0  0  0  0  0  0  0  0
   21.9380   16.4580    6.5390 C   0  0  0  0  0  0  0  0  0  0  0  0
   20.8870   17.2410    6.4200 N   0  0  0  0  0  0  0  0  0  0  0  0
   18.9504   19.6134    8.5356 H   0  0  0  0  0  0  0  0  0  0  0  0
   19.8320   19.3891    6.9867 H   0  0  0  0  0  0  0  0  0  0  0  0
   18.0430   19.5504    6.9867 H   0  0  0  0  0  0  0  0  0  0  0  0
   18.3855   17.4175    8.6818 H   0  0  0  0  0  0  0  0  0  0  0  0
   18.0861   17.2940    6.8942 H   0  0  0  0  0  0  0  0  0  0  0  0
   20.2751   15.5510    9.2267 H   0  0  0  0  0  0  0  0  0  0  0  0
   21.5075   14.6765   10.6419 H   0  0  0  0  0  0  0  0  0  0  0  0
   25.4650   18.2470   12.8304 H   0  0  0  0  0  0  0  0  0  0  0  0
   24.2035   18.9919   15.3678 H   0  0  0  0  0  0  0  0  0  0  0  0
   25.5928   17.1637   16.2011 H   0  0  0  0  0  0  0  0  0  0  0  0
   27.0406   17.8731   15.4085 H   0  0  0  0  0  0  0  0  0  0  0  0
   25.3401   19.1479   17.6058 H   0  0  0  0  0  0  0  0  0  0  0  0
   27.0215   18.4954   17.7582 H   0  0  0  0  0  0  0  0  0  0  0  0
   26.5724   21.8564   15.3418 H   0  0  0  0  0  0  0  0  0  0  0  0
   25.2771   16.1689    9.3629 H   0  0  0  0  0  0  0  0  0  0  0  0
   22.7908   16.4420    5.8444 H   0  0  0  0  0  0  0  0  0  0  0  0
  1  2  1  0
  2  3  1  0
  3  4  2  0
  4  5  1  0
  5  6  1  0
  6  7  2  0
  6  8  2  0
  6  9  1  0
  9 10  2  0
 10 11  1  0
 11 12  2  0
 12 13  1  0
 13 14  2  0
 13 15  1  0
 15 16  1  0
 16 17  1  0
 17 18  1  0
 18 19  1  0
 19 20  2  0
 19 21  1  0
 21 22  1  0
 22 23  2  0
 12 24  1  0
 24 25  2  0
  5 26  1  0
 26 27  2  0
 27  3  1  0
 25  9  1  0
 22 16  1  0
  1 28  1  0
  1 29  1  0
  1 30  1  0
  2 31  1  0
  2 32  1  0
  4 33  1  0
 10 34  1  0
 15 35  1  0
 16 36  1  1
 17 37  1  0
 17 38  1  0
 18 39  1  0
 18 40  1  0
 21 41  1  0
 25 42  1  0
 26 43  1  0
M  END
>  <meeko>  (933) 
{"is_sidechain": [true], "free_energy": -10.39, "intermolecular_energy": 0.0, "internal_energy": -10.39, "cluster_size": 20, "cluster_id": 1, "rank_in_cluster": 1}

>  <_RMSD_MCS_to_ref>  (933) 
0.6862829834210764

$$$$
ligand
     RDKit          3D

 47 50  0  0  0  0  0  0  0  0999 V2000
   18.9090   19.1540    7.5370 C   0  0  0  0  0  0  0  0  0  0  0  0
   18.7730   17.6460    7.6780 C   0  0  0  0  0  0  0  0  0  0  0  0
   20.0940   16.9610    7.6950 C   0  0  0  0  0  0  0  0  0  0  0  0
   20.9660   16.7830    8.7510 C   0  0  0  0  0  0  0  0  0  0  0  0
   22.0210   16.1090    8.2020 N   0  0  0  0  0  0  0  0  0  0  0  0
   23.3860   15.5900    9.0290 S   0  0  0  0  0  6  0  0  0  0  0  0
   23.7680   14.3120    8.4620 O   0  0  0  0  0  0  0  0  0  0  0  0
   24.2810   16.7340    9.0130 O   0  0  0  0  0  0  0  0  0  0  0  0
   22.9070   15.3260   10.7060 C   0  0  0  0  0  0  0  0  0  0  0  0
   23.6160   16.0050   11.7140 C   0  0  0  0  0  0  0  0  0  0  0  0
   23.2720   15.8290   13.0560 C   0  0  0  0  0  0  0  0  0  0  0  0
   24.0000   16.5230   14.1540 C   0  0  0  0  0  0  0  0  0  0  0  0
   24.3930   15.8910   15.1270 O   0  0  0  0  0  0  0  0  0  0  0  0
   24.1670   17.8830   14.0240 N   0  0  0  0  0  0  0  0  0  0  0  0
   24.7380   18.6730   15.1080 C   0  0  1  0  0  0  0  0  0  0  0  0
   25.8920   17.9540   15.7980 C   0  0  0  0  0  0  0  0  0  0  0  0
   26.4670   18.8470   16.8870 C   0  0  0  0  0  0  0  0  0  0  0  0
   26.8910   20.1860   16.3320 C   0  0  0  0  0  0  0  0  0  0  0  0
   27.8470   20.8120   16.7810 O   0  0  0  0  0  0  0  0  0  0  0  0
   26.1300   20.6980   15.3110 N   0  0  0  0  0  0  0  0  0  0  0  0
   25.2470   19.9970   14.5290 C   0  0  0  0  0  0  0  0  0  0  0  0
   24.8810   20.4260   13.4350 O   0  0  0  0  0  0  0  0  0  0  0  0
   22.2330   14.9560   13.4100 C   0  0  0  0  0  0  0  0  0  0  0  0
   21.5400   14.2820   12.3890 C   0  0  0  0  0  0  0  0  0  0  0  0
   20.2310   13.1690   12.5300 S   0  0  0  0  0  0  0  0  0  0  0  0
   20.1980   13.0040   10.8290 C   0  0  0  0  0  0  0  0  0  0  0  0
   21.0840   13.7100   10.1640 N   0  0  0  0  0  0  0  0  0  0  0  0
   21.8590   14.4510   11.0380 C   0  0  0  0  0  0  0  0  0  0  0  0
   21.7720   15.8860    6.8860 C   0  0  0  0  0  0  0  0  0  0  0  0
   20.6080   16.3980    6.5430 N   0  0  0  0  0  0  0  0  0  0  0  0
   18.9504   19.6134    8.5356 H   0  0  0  0  0  0  0  0  0  0  0  0
   19.8320   19.3891    6.9867 H   0  0  0  0  0  0  0  0  0  0  0  0
   18.0430   19.5504    6.9867 H   0  0  0  0  0  0  0  0  0  0  0  0
   18.2470   17.4243    8.6183 H   0  0  0  0  0  0  0  0  0  0  0  0
   18.2117   17.2750    6.8078 H   0  0  0  0  0  0  0  0  0  0  0  0
   20.8405   17.1087    9.7941 H   0  0  0  0  0  0  0  0  0  0  0  0
   24.4441   16.6768   11.4440 H   0  0  0  0  0  0  0  0  0  0  0  0
   23.8849   18.3486   13.1496 H   0  0  0  0  0  0  0  0  0  0  0  0
   23.9535   18.8409   15.8605 H   0  0  0  0  0  0  0  0  0  0  0  0
   25.5257   17.0186   16.2462 H   0  0  0  0  0  0  0  0  0  0  0  0
   26.6750   17.7249   15.0601 H   0  0  0  0  0  0  0  0  0  0  0  0
   25.7018   19.0061   17.6611 H   0  0  0  0  0  0  0  0  0  0  0  0
   27.3525   18.3509   17.3111 H   0  0  0  0  0  0  0  0  0  0  0  0
   26.2313   21.7037   15.1131 H   0  0  0  0  0  0  0  0  0  0  0  0
   21.9655   14.8016   14.4657 H   0  0  0  0  0  0  0  0  0  0  0  0
   19.4776   12.3457   10.3213 H   0  0  0  0  0  0  0  0  0  0  0  0
   22.4480   15.3522    6.2018 H   0  0  0  0  0  0  0  0  0  0  0  0
  1  2  1  0
  2  3  1  0
  3  4  2  0
  4  5  1  0
  5  6  1  0
  6  7  2  0
  6  8  2  0
  6  9  1  0
  9 10  2  0
 10 11  1  0
 11 12  1  0
 12 13  2  0
 12 14  1  0
 14 15  1  0
 15 16  1  0
 16 17  1  0
 17 18  1  0
 18 19  2  0
 18 20  1  0
 20 21  1  0
 21 22  2  0
 11 23  2  0
 23 24  1  0
 24 25  1  0
 25 26  1  0
 26 27  2  0
 27 28  1  0
  5 29  1  0
 29 30  2  0
 30  3  1  0
 28  9  1  0
 21 15  1  0
 28 24  2  0
  1 31  1  0
  1 32  1  0
  1 33  1  0
  2 34  1  0
  2 35  1  0
  4 36  1  0
 10 37  1  0
 14 38  1  0
 15 39  1  1
 16 40  1  0
 16 41  1  0
 17 42  1  0
 17 43  1  0
 20 44  1  0
 23 45  1  0
 26 46  1  0
 29 47  1  0
M  END
>  <meeko>  (934) 
{"is_sidechain": [true], "free_energy": -10.39, "intermolecular_energy": 0.0, "internal_energy": -10.39, "cluster_size": 20, "cluster_id": 1, "rank_in_cluster": 1}

>  <_RMSD_MCS_to_ref>  (934) 
0.4582713897535679

$$$$
ligand
     RDKit          3D

 45 48  0  0  0  0  0  0  0  0999 V2000
   18.9090   19.1540    7.5370 C   0  0  0  0  0  0  0  0  0  0  0  0
   18.7730   17.6460    7.6780 C   0  0  0  0  0  0  0  0  0  0  0  0
   20.0020   16.9270    7.2440 C   0  0  0  0  0  0  0  0  0  0  0  0
   21.1600   16.6770    7.9550 C   0  0  0  0  0  0  0  0  0  0  0  0
   21.9620   16.0170    7.0690 N   0  0  0  0  0  0  0  0  0  0  0  0
   23.4100   15.2390    7.4420 S   0  0  0  0  0  6  0  0  0  0  0  0
   24.4300   16.2530    7.2520 O   0  0  0  0  0  0  0  0  0  0  0  0
   23.3870   14.0240    6.6490 O   0  0  0  0  0  0  0  0  0  0  0  0
   23.3140   14.8560    9.0230 O   0  0  0  0  0  0  0  0  0  0  0  0
   23.8210   15.6600   10.0140 C   0  0  0  0  0  0  0  0  0  0  0  0
   22.8940   16.0390   10.9890 C   0  0  0  0  0  0  0  0  0  0  0  0
   23.2540   16.8590   12.0650 C   0  0  0  0  0  0  0  0  0  0  0  0
   24.5850   17.2890   12.1280 C   0  0  0  0  0  0  0  0  0  0  0  0
   25.5240   16.9350   11.1640 C   0  0  0  0  0  0  0  0  0  0  0  0
   26.7110   17.5770   11.5710 C   0  0  0  0  0  0  0  0  0  0  0  0
   26.5600   18.2780   12.6950 N   0  0  0  0  0  0  0  0  0  0  0  0
   25.2660   18.0840   13.0260 N   0  0  0  0  0  0  0  0  0  0  0  0
   24.7280   18.6750   14.2430 C   0  0  1  0  0  0  0  0  0  0  0  0
   25.1860   18.0410   15.5620 C   0  0  0  0  0  0  0  0  0  0  0  0
   26.5850   18.4740   15.9800 C   0  0  0  0  0  0  0  0  0  0  0  0
   26.7470   19.9710   15.9330 C   0  0  0  0  0  0  0  0  0  0  0  0
   27.4900   20.5770   16.7000 O   0  0  0  0  0  0  0  0  0  0  0  0
   26.0340   20.6400   14.9730 N   0  0  0  0  0  0  0  0  0  0  0  0
   24.9710   20.1700   14.2430 C   0  0  0  0  0  0  0  0  0  0  0  0
   24.2490   20.9540   13.6270 O   0  0  0  0  0  0  0  0  0  0  0  0
   25.1450   16.1070   10.0890 C   0  0  0  0  0  0  0  0  0  0  0  0
   21.2750   15.8140    5.9160 C   0  0  0  0  0  0  0  0  0  0  0  0
   20.0880   16.3790    5.9800 N   0  0  0  0  0  0  0  0  0  0  0  0
   18.9504   19.6134    8.5356 H   0  0  0  0  0  0  0  0  0  0  0  0
   19.8320   19.3891    6.9867 H   0  0  0  0  0  0  0  0  0  0  0  0
   18.0430   19.5504    6.9867 H   0  0  0  0  0  0  0  0  0  0  0  0
   18.5759   17.4053    8.7331 H   0  0  0  0  0  0  0  0  0  0  0  0
   17.9451   17.3199    7.0312 H   0  0  0  0  0  0  0  0  0  0  0  0
   21.3845   16.9479    8.9972 H   0  0  0  0  0  0  0  0  0  0  0  0
   21.8559   15.6842   10.9089 H   0  0  0  0  0  0  0  0  0  0  0  0
   22.5207   17.1536   12.8302 H   0  0  0  0  0  0  0  0  0  0  0  0
   27.6605   17.5071   11.0201 H   0  0  0  0  0  0  0  0  0  0  0  0
   23.6503   18.4569   14.2114 H   0  0  0  0  0  0  0  0  0  0  0  0
   24.4790   18.3305   16.3534 H   0  0  0  0  0  0  0  0  0  0  0  0
   25.2118   16.9518   15.4103 H   0  0  0  0  0  0  0  0  0  0  0  0
   26.7723   18.1281   17.0072 H   0  0  0  0  0  0  0  0  0  0  0  0
   27.3039   18.0309   15.2752 H   0  0  0  0  0  0  0  0  0  0  0  0
   26.3298   21.6069   14.7766 H   0  0  0  0  0  0  0  0  0  0  0  0
   25.8775   15.8167    9.3215 H   0  0  0  0  0  0  0  0  0  0  0  0
   21.6571   15.2552    5.0490 H   0  0  0  0  0  0  0  0  0  0  0  0
  1  2  1  0
  2  3  1  0
  3  4  2  0
  4  5  1  0
  5  6  1  0
  6  7  2  0
  6  8  2  0
  6  9  1  0
  9 10  1  0
 10 11  2  0
 11 12  1  0
 12 13  2  0
 13 14  1  0
 14 15  1  0
 15 16  2  0
 16 17  1  0
 17 18  1  0
 18 19  1  0
 19 20  1  0
 20 21  1  0
 21 22  2  0
 21 23  1  0
 23 24  1  0
 24 25  2  0
 14 26  2  0
  5 27  1  0
 27 28  2  0
 28  3  1  0
 26 10  1  0
 17 13  1  0
 24 18  1  0
  1 29  1  0
  1 30  1  0
  1 31  1  0
  2 32  1  0
  2 33  1  0
  4 34  1  0
 11 35  1  0
 12 36  1  0
 15 37  1  0
 18 38  1  6
 19 39  1  0
 19 40  1  0
 20 41  1  0
 20 42  1  0
 23 43  1  0
 26 44  1  0
 27 45  1  0
M  END
>  <meeko>  (935) 
{"is_sidechain": [true], "free_energy": -10.39, "intermolecular_energy": 0.0, "internal_energy": -10.39, "cluster_size": 20, "cluster_id": 1, "rank_in_cluster": 1}

>  <_RMSD_MCS_to_ref>  (935) 
0.7002996184174003

$$$$
ligand
     RDKit          3D

 49 53  0  0  0  0  0  0  0  0999 V2000
   18.9090   19.1540    7.5370 C   0  0  0  0  0  0  0  0  0  0  0  0
   18.7730   17.6460    7.6780 C   0  0  0  0  0  0  0  0  0  0  0  0
   19.9210   16.9190    7.0730 C   0  0  0  0  0  0  0  0  0  0  0  0
   21.1430   16.6030    7.6340 C   0  0  0  0  0  0  0  0  0  0  0  0
   21.8160   15.9610    6.6340 N   0  0  0  0  0  0  0  0  0  0  0  0
   23.2850   15.1590    6.7860 S   0  0  0  0  0  6  0  0  0  0  0  0
   24.3030   16.0910    6.3450 O   0  0  0  0  0  0  0  0  0  0  0  0
   23.0860   13.8680    6.1590 O   0  0  0  0  0  0  0  0  0  0  0  0
   23.4610   14.9250    8.5350 C   0  0  0  0  0  0  0  0  0  0  0  0
   22.8090   13.8570    9.1630 C   0  0  0  0  0  0  0  0  0  0  0  0
   22.9520   13.6780   10.5390 C   0  0  0  0  0  0  0  0  0  0  0  0
   23.7460   14.5650   11.2710 C   0  0  0  0  0  0  0  0  0  0  0  0
   24.4160   15.6370   10.6360 C   0  0  0  0  0  0  0  0  0  0  0  0
   24.2710   15.8050    9.2600 C   0  0  0  0  0  0  0  0  0  0  0  0
   25.2270   16.5550   11.3500 N   0  0  0  0  0  0  0  0  0  0  0  0
   25.3550   16.4210   12.6430 C   0  0  0  0  0  0  0  0  0  0  0  0
   26.3590   17.6020   13.4760 S   0  0  0  0  0  0  0  0  0  0  0  0
   25.0760   18.4900   14.4290 C   0  0  1  0  0  0  0  0  0  0  0  0
   25.1270   18.1300   15.9130 C   0  0  0  0  0  0  0  0  0  0  0  0
   26.3650   18.6950   16.5980 C   0  0  0  0  0  0  0  0  0  0  0  0
   26.4980   20.1780   16.3590 C   0  0  0  0  0  0  0  0  0  0  0  0
   27.1200   20.9120   17.1230 O   0  0  0  0  0  0  0  0  0  0  0  0
   25.9300   20.6750   15.2140 N   0  0  0  0  0  0  0  0  0  0  0  0
   25.2360   19.9930   14.2470 C   0  0  0  0  0  0  0  0  0  0  0  0
   24.8080   20.5780   13.2500 O   0  0  0  0  0  0  0  0  0  0  0  0
   24.7260   15.3720   13.3260 N   0  0  0  0  0  0  0  0  0  0  0  0
   24.8120   15.1150   14.6530 N   0  0  0  0  0  0  0  0  0  0  0  0
   24.0470   14.0210   14.7490 C   0  0  0  0  0  0  0  0  0  0  0  0
   23.4950   13.5720   13.5790 N   0  0  0  0  0  0  0  0  0  0  0  0
   23.9390   14.4440   12.7000 C   0  0  0  0  0  0  0  0  0  0  0  0
   21.0090   15.8620    5.5470 C   0  0  0  0  0  0  0  0  0  0  0  0
   19.8510   16.4440    5.7780 N   0  0  0  0  0  0  0  0  0  0  0  0
   18.9504   19.6134    8.5356 H   0  0  0  0  0  0  0  0  0  0  0  0
   19.8320   19.3891    6.9867 H   0  0  0  0  0  0  0  0  0  0  0  0
   18.0430   19.5504    6.9867 H   0  0  0  0  0  0  0  0  0  0  0  0
   18.7179   17.3938    8.7473 H   0  0  0  0  0  0  0  0  0  0  0  0
   17.8605   17.3382    7.1463 H   0  0  0  0  0  0  0  0  0  0  0  0
   21.4941   16.8192    8.6538 H   0  0  0  0  0  0  0  0  0  0  0  0
   22.1885   13.1641    8.5757 H   0  0  0  0  0  0  0  0  0  0  0  0
   22.4431   12.8441   11.0446 H   0  0  0  0  0  0  0  0  0  0  0  0
   24.7916   16.6266    8.7462 H   0  0  0  0  0  0  0  0  0  0  0  0
   24.0941   18.1792   14.0428 H   0  0  0  0  0  0  0  0  0  0  0  0
   24.2320   18.5357   16.4073 H   0  0  0  0  0  0  0  0  0  0  0  0
   25.1657   17.0337   15.9943 H   0  0  0  0  0  0  0  0  0  0  0  0
   26.2900   18.5123   17.6801 H   0  0  0  0  0  0  0  0  0  0  0  0
   27.2509   18.1960   16.1782 H   0  0  0  0  0  0  0  0  0  0  0  0
   26.0381   21.6878   15.0608 H   0  0  0  0  0  0  0  0  0  0  0  0
   23.8723   13.5135   15.7092 H   0  0  0  0  0  0  0  0  0  0  0  0
   21.2841   15.3650    4.6050 H   0  0  0  0  0  0  0  0  0  0  0  0
  1  2  1  0
  2  3  1  0
  3  4  2  0
  4  5  1  0
  5  6  1  0
  6  7  2  0
  6  8  2  0
  6  9  1  0
  9 10  2  0
 10 11  1  0
 11 12  2  0
 12 13  1  0
 13 14  2  0
 13 15  1  0
 15 16  2  0
 16 17  1  0
 17 18  1  0
 18 19  1  0
 19 20  1  0
 20 21  1  0
 21 22  2  0
 21 23  1  0
 23 24  1  0
 24 25  2  0
 16 26  1  0
 26 27  1  0
 27 28  2  0
 28 29  1  0
 29 30  2  0
  5 31  1  0
 31 32  2  0
 32  3  1  0
 14  9  1  0
 24 18  1  0
 30 26  1  0
 30 12  1  0
  1 33  1  0
  1 34  1  0
  1 35  1  0
  2 36  1  0
  2 37  1  0
  4 38  1  0
 10 39  1  0
 11 40  1  0
 14 41  1  0
 18 42  1  6
 19 43  1  0
 19 44  1  0
 20 45  1  0
 20 46  1  0
 23 47  1  0
 28 48  1  0
 31 49  1  0
M  END
>  <meeko>  (936) 
{"is_sidechain": [true], "free_energy": -10.39, "intermolecular_energy": 0.0, "internal_energy": -10.39, "cluster_size": 20, "cluster_id": 1, "rank_in_cluster": 1}

>  <_RMSD_MCS_to_ref>  (936) 
0.45586319219695776

$$$$
ligand
     RDKit          3D

 51 55  0  0  0  0  0  0  0  0999 V2000
   18.8250   19.0170    7.5350 C   0  0  0  0  0  0  0  0  0  0  0  0
   18.5200   17.5420    7.7330 C   0  0  0  0  0  0  0  0  0  0  0  0
   19.7560   16.7150    7.7960 C   0  0  0  0  0  0  0  0  0  0  0  0
   20.2290   15.9360    8.8330 C   0  0  0  0  0  0  0  0  0  0  0  0
   21.4060   15.4260    8.3600 N   0  0  0  0  0  0  0  0  0  0  0  0
   22.3620   14.2970    9.1570 S   0  0  0  0  0  6  0  0  0  0  0  0
   23.5250   14.1210    8.3060 O   0  0  0  0  0  0  0  0  0  0  0  0
   21.5050   13.1800    9.4940 O   0  0  0  0  0  0  0  0  0  0  0  0
   22.8940   15.1320   10.6430 C   0  0  0  0  0  0  0  0  0  0  0  0
   22.0050   15.0940   11.7480 C   0  0  0  0  0  0  0  0  0  0  0  0
   22.3380   15.7080   12.9550 C   0  0  0  0  0  0  0  0  0  0  0  0
   23.5610   16.3420   13.0260 C   0  0  0  0  0  0  0  0  0  0  0  0
   24.4430   16.4050   11.9470 C   0  0  0  0  0  0  0  0  0  0  0  0
   24.1220   15.8210   10.7210 C   0  0  0  0  0  0  0  0  0  0  0  0
   25.0790   15.9090    9.6290 C   0  0  0  0  0  0  0  0  0  0  0  0
   24.8180   16.4210    8.4470 N   0  0  0  0  0  0  0  0  0  0  0  0
   25.9110   16.3720    7.6070 N   0  0  0  0  0  0  0  0  0  0  0  0
   26.9500   15.8100    8.1860 C   0  0  0  0  0  0  0  0  0  0  0  0
   26.6660   15.2630    9.7870 S   0  0  0  0  0  0  0  0  0  0  0  0
   25.6750   17.1560   12.3550 C   0  0  0  0  0  0  0  0  0  0  0  0
   25.4310   17.4360   13.7630 N   0  0  0  0  0  0  0  0  0  0  0  0
   26.2230   18.3810   14.5420 C   0  0  1  0  0  0  0  0  0  0  0  0
   25.6070   19.7750   14.5760 C   0  0  0  0  0  0  0  0  0  0  0  0
   26.5300   20.7170   15.3350 C   0  0  0  0  0  0  0  0  0  0  0  0
   26.8270   20.1930   16.7200 C   0  0  0  0  0  0  0  0  0  0  0  0
   26.9550   20.9330   17.6910 O   0  0  0  0  0  0  0  0  0  0  0  0
   26.9640   18.8330   16.8460 N   0  0  0  0  0  0  0  0  0  0  0  0
   26.4420   17.8960   15.9850 C   0  0  0  0  0  0  0  0  0  0  0  0
   26.1680   16.7670   16.3850 O   0  0  0  0  0  0  0  0  0  0  0  0
   24.1640   17.0410   14.1630 C   0  0  0  0  0  0  0  0  0  0  0  0
   23.6230   17.2220   15.2360 O   0  0  0  0  0  0  0  0  0  0  0  0
   21.5980   15.8550    7.0890 C   0  0  0  0  0  0  0  0  0  0  0  0
   20.6140   16.6510    6.7190 N   0  0  0  0  0  0  0  0  0  0  0  0
   18.9260   19.5054    8.5155 H   0  0  0  0  0  0  0  0  0  0  0  0
   19.7645   19.1250    6.9731 H   0  0  0  0  0  0  0  0  0  0  0  0
   18.0054   19.4887    6.9731 H   0  0  0  0  0  0  0  0  0  0  0  0
   17.9631   17.4187    8.6736 H   0  0  0  0  0  0  0  0  0  0  0  0
   17.9294   17.2008    6.8700 H   0  0  0  0  0  0  0  0  0  0  0  0
   19.7649   15.7648    9.8155 H   0  0  0  0  0  0  0  0  0  0  0  0
   21.0407   14.5736   11.6514 H   0  0  0  0  0  0  0  0  0  0  0  0
   21.6532   15.6876   13.8156 H   0  0  0  0  0  0  0  0  0  0  0  0
   27.9225   15.6997    7.6840 H   0  0  0  0  0  0  0  0  0  0  0  0
   26.5764   16.5393   12.2241 H   0  0  0  0  0  0  0  0  0  0  0  0
   25.8517   18.0611   11.7554 H   0  0  0  0  0  0  0  0  0  0  0  0
   27.1936   18.4399   14.0277 H   0  0  0  0  0  0  0  0  0  0  0  0
   25.4728   20.1421   13.5478 H   0  0  0  0  0  0  0  0  0  0  0  0
   24.6300   19.7328   15.0798 H   0  0  0  0  0  0  0  0  0  0  0  0
   27.4742   20.8187   14.7798 H   0  0  0  0  0  0  0  0  0  0  0  0
   26.0296   21.6918   15.4315 H   0  0  0  0  0  0  0  0  0  0  0  0
   27.5024   18.4853   17.6523 H   0  0  0  0  0  0  0  0  0  0  0  0
   22.4537   15.5783    6.4555 H   0  0  0  0  0  0  0  0  0  0  0  0
  1  2  1  0
  2  3  1  0
  3  4  2  0
  4  5  1  0
  5  6  1  0
  6  7  2  0
  6  8  2  0
  6  9  1  0
  9 10  2  0
 10 11  1  0
 11 12  2  0
 12 13  1  0
 13 14  2  0
 14 15  1  0
 15 16  2  0
 16 17  1  0
 17 18  2  0
 18 19  1  0
 13 20  1  0
 20 21  1  0
 21 22  1  0
 22 23  1  0
 23 24  1  0
 24 25  1  0
 25 26  2  0
 25 27  1  0
 27 28  1  0
 28 29  2  0
 21 30  1  0
 30 31  2  0
  5 32  1  0
 32 33  2  0
 33  3  1  0
 14  9  1  0
 19 15  1  0
 28 22  1  0
 30 12  1  0
  1 34  1  0
  1 35  1  0
  1 36  1  0
  2 37  1  0
  2 38  1  0
  4 39  1  0
 10 40  1  0
 11 41  1  0
 18 42  1  0
 20 43  1  0
 20 44  1  0
 22 45  1  6
 23 46  1  0
 23 47  1  0
 24 48  1  0
 24 49  1  0
 27 50  1  0
 32 51  1  0
M  END
>  <meeko>  (937) 
{"is_sidechain": [true], "free_energy": -10.38, "intermolecular_energy": 0.0, "internal_energy": -10.38, "cluster_size": 13, "cluster_id": 1, "rank_in_cluster": 1}

>  <_RMSD_MCS_to_ref>  (937) 
1.8451949761475077

$$$$
ligand
     RDKit          3D

 55 59  0  0  0  0  0  0  0  0999 V2000
   18.7970   18.8170    7.7190 C   0  0  0  0  0  0  0  0  0  0  0  0
   18.5280   17.3290    7.8810 C   0  0  0  0  0  0  0  0  0  0  0  0
   19.7820   16.5290    7.9010 C   0  0  0  0  0  0  0  0  0  0  0  0
   20.3790   15.8770    8.9620 C   0  0  0  0  0  0  0  0  0  0  0  0
   21.4870   15.2960    8.4180 N   0  0  0  0  0  0  0  0  0  0  0  0
   22.7170   14.5130    9.2540 S   0  0  0  0  0  6  0  0  0  0  0  0
   23.7890   15.4860    9.3400 O   0  0  0  0  0  0  0  0  0  0  0  0
   22.8950   13.2270    8.6090 O   0  0  0  0  0  0  0  0  0  0  0  0
   22.0360   14.2590   10.8690 C   0  0  0  0  0  0  0  0  0  0  0  0
   21.0160   13.3030   11.0240 C   0  0  0  0  0  0  0  0  0  0  0  0
   20.4680   13.0550   12.2780 C   0  0  0  0  0  0  0  0  0  0  0  0
   20.9290   13.7290   13.4170 C   0  0  0  0  0  0  0  0  0  0  0  0
   21.9260   14.6950   13.2370 C   0  0  0  0  0  0  0  0  0  0  0  0
   22.5320   15.5080   14.1650 N   0  0  0  0  0  0  0  0  0  0  0  0
   23.4650   16.3270   13.5720 C   0  0  0  0  0  0  0  0  0  0  0  0
   24.2350   17.2730   14.3470 C   0  0  0  0  0  0  0  0  0  0  0  0
   23.7120   18.0700   15.1190 O   0  0  0  0  0  0  0  0  0  0  0  0
   25.5940   17.2060   14.1750 N   0  0  0  0  0  0  0  0  0  0  0  0
   26.5090   17.9790   14.9990 C   0  0  2  0  0  0  0  0  0  0  0  0
   26.2230   17.8160   16.4880 C   0  0  0  0  0  0  0  0  0  0  0  0
   27.1850   18.6820   17.2860 C   0  0  0  0  0  0  0  0  0  0  0  0
   27.1130   20.1270   16.8530 C   0  0  0  0  0  0  0  0  0  0  0  0
   27.2820   21.0590   17.6340 O   0  0  0  0  0  0  0  0  0  0  0  0
   26.8790   20.3600   15.5210 N   0  0  0  0  0  0  0  0  0  0  0  0
   26.3670   19.4570   14.6220 C   0  0  0  0  0  0  0  0  0  0  0  0
   25.8390   19.8290   13.5730 O   0  0  0  0  0  0  0  0  0  0  0  0
   23.4400   16.0270   12.2200 C   0  0  0  0  0  0  0  0  0  0  0  0
   22.4880   14.9880   11.9940 C   0  0  0  0  0  0  0  0  0  0  0  0
   20.4500   13.4940   14.6800 O   0  0  0  0  0  0  0  0  0  0  0  0
   19.7190   12.2640   14.7370 C   0  0  0  0  0  0  0  0  0  0  0  0
   18.7560   12.1600   13.5660 C   0  0  0  0  0  0  0  0  0  0  0  0
   19.4730   12.1100   12.3270 O   0  0  0  0  0  0  0  0  0  0  0  0
   21.5560   15.6140    7.1000 C   0  0  0  0  0  0  0  0  0  0  0  0
   20.5300   16.3640    6.7520 N   0  0  0  0  0  0  0  0  0  0  0  0
   18.8815   19.2845    8.7111 H   0  0  0  0  0  0  0  0  0  0  0  0
   19.7359   18.9616    7.1643 H   0  0  0  0  0  0  0  0  0  0  0  0
   17.9682   19.2812    7.1643 H   0  0  0  0  0  0  0  0  0  0  0  0
   17.9899   17.1674    8.8267 H   0  0  0  0  0  0  0  0  0  0  0  0
   17.9309   16.9984    7.0183 H   0  0  0  0  0  0  0  0  0  0  0  0
   20.0388   15.8356   10.0072 H   0  0  0  0  0  0  0  0  0  0  0  0
   20.6494   12.7480   10.1479 H   0  0  0  0  0  0  0  0  0  0  0  0
   22.3160   15.5045   15.1721 H   0  0  0  0  0  0  0  0  0  0  0  0
   25.9767   16.5915   13.4423 H   0  0  0  0  0  0  0  0  0  0  0  0
   27.5299   17.6129   14.8154 H   0  0  0  0  0  0  0  0  0  0  0  0
   25.1890   18.1262   16.6990 H   0  0  0  0  0  0  0  0  0  0  0  0
   26.3548   16.7620   16.7737 H   0  0  0  0  0  0  0  0  0  0  0  0
   26.9264   18.6147   18.3531 H   0  0  0  0  0  0  0  0  0  0  0  0
   28.2077   18.3177   17.1089 H   0  0  0  0  0  0  0  0  0  0  0  0
   27.1084   21.2981   15.1628 H   0  0  0  0  0  0  0  0  0  0  0  0
   24.0541   16.5109   11.4462 H   0  0  0  0  0  0  0  0  0  0  0  0
   20.4253   11.4215   14.7002 H   0  0  0  0  0  0  0  0  0  0  0  0
   19.1429   12.2366   15.6737 H   0  0  0  0  0  0  0  0  0  0  0  0
   18.1544   11.2453   13.6728 H   0  0  0  0  0  0  0  0  0  0  0  0
   18.1040   13.0459   13.5631 H   0  0  0  0  0  0  0  0  0  0  0  0
   22.3563   15.2908    6.4181 H   0  0  0  0  0  0  0  0  0  0  0  0
  1  2  1  0
  2  3  1  0
  3  4  2  0
  4  5  1  0
  5  6  1  0
  6  7  2  0
  6  8  2  0
  6  9  1  0
  9 10  2  0
 10 11  1  0
 11 12  2  0
 12 13  1  0
 13 14  1  0
 14 15  1  0
 15 16  1  0
 16 17  2  0
 16 18  1  0
 18 19  1  0
 19 20  1  0
 20 21  1  0
 21 22  1  0
 22 23  2  0
 22 24  1  0
 24 25  1  0
 25 26  2  0
 15 27  2  0
 27 28  1  0
 12 29  1  0
 29 30  1  0
 30 31  1  0
 31 32  1  0
  5 33  1  0
 33 34  2  0
 34  3  1  0
 28  9  1  0
 32 11  1  0
 28 13  2  0
 25 19  1  0
  1 35  1  0
  1 36  1  0
  1 37  1  0
  2 38  1  0
  2 39  1  0
  4 40  1  0
 10 41  1  0
 14 42  1  0
 18 43  1  0
 19 44  1  1
 20 45  1  0
 20 46  1  0
 21 47  1  0
 21 48  1  0
 24 49  1  0
 27 50  1  0
 30 51  1  0
 30 52  1  0
 31 53  1  0
 31 54  1  0
 33 55  1  0
M  END
>  <meeko>  (938) 
{"is_sidechain": [true], "free_energy": -10.38, "intermolecular_energy": 0.0, "internal_energy": -10.38, "cluster_size": 9, "cluster_id": 1, "rank_in_cluster": 1}

>  <_RMSD_MCS_to_ref>  (938) 
0.8878622500140433

$$$$
ligand
     RDKit          3D

 46 49  0  0  0  0  0  0  0  0999 V2000
   18.7970   18.8170    7.7190 C   0  0  0  0  0  0  0  0  0  0  0  0
   18.5280   17.3290    7.8810 C   0  0  0  0  0  0  0  0  0  0  0  0
   19.7840   16.5360    7.9600 C   0  0  0  0  0  0  0  0  0  0  0  0
   20.3270   15.8720    9.0420 C   0  0  0  0  0  0  0  0  0  0  0  0
   21.4610   15.2940    8.5470 N   0  0  0  0  0  0  0  0  0  0  0  0
   22.6530   14.5460    9.4560 S   0  0  0  0  0  6  0  0  0  0  0  0
   23.7010   15.5240    9.6560 O   0  0  0  0  0  0  0  0  0  0  0  0
   22.8720   13.2480    8.8480 O   0  0  0  0  0  0  0  0  0  0  0  0
   22.0270   14.2180   11.0250 C   0  0  0  0  0  0  0  0  0  0  0  0
   21.0780   13.2580   11.3100 C   0  0  0  0  0  0  0  0  0  0  0  0
   20.6890   13.1390   12.9830 S   0  0  0  0  0  0  0  0  0  0  0  0
   21.8050   14.4170   13.3330 C   0  0  0  0  0  0  0  0  0  0  0  0
   22.2950   15.1490   14.4510 C   0  0  0  0  0  0  0  0  0  0  0  0
   23.2100   16.0640   13.9500 C   0  0  0  0  0  0  0  0  0  0  0  0
   24.0240   17.0660   14.6110 C   0  0  0  0  0  0  0  0  0  0  0  0
   23.5450   17.9130   15.3580 O   0  0  0  0  0  0  0  0  0  0  0  0
   25.3710   16.9950   14.3550 N   0  0  0  0  0  0  0  0  0  0  0  0
   26.3260   17.8260   15.0680 C   0  0  2  0  0  0  0  0  0  0  0  0
   26.1510   17.7410   16.5810 C   0  0  0  0  0  0  0  0  0  0  0  0
   27.1530   18.6630   17.2600 C   0  0  0  0  0  0  0  0  0  0  0  0
   27.0220   20.0810   16.7570 C   0  0  0  0  0  0  0  0  0  0  0  0
   27.2170   21.0560   17.4760 O   0  0  0  0  0  0  0  0  0  0  0  0
   26.7000   20.2360   15.4320 N   0  0  0  0  0  0  0  0  0  0  0  0
   26.1320   19.2800   14.6270 C   0  0  0  0  0  0  0  0  0  0  0  0
   25.5160   19.5890   13.6070 O   0  0  0  0  0  0  0  0  0  0  0  0
   23.2740   15.8960   12.5830 N   0  0  0  0  0  0  0  0  0  0  0  0
   22.4230   14.8850   12.2140 C   0  0  0  0  0  0  0  0  0  0  0  0
   21.6130   15.6550    7.2470 C   0  0  0  0  0  0  0  0  0  0  0  0
   20.5990   16.3980    6.8540 N   0  0  0  0  0  0  0  0  0  0  0  0
   18.8815   19.2845    8.7111 H   0  0  0  0  0  0  0  0  0  0  0  0
   19.7359   18.9616    7.1643 H   0  0  0  0  0  0  0  0  0  0  0  0
   17.9682   19.2812    7.1643 H   0  0  0  0  0  0  0  0  0  0  0  0
   17.9512   17.1718    8.8044 H   0  0  0  0  0  0  0  0  0  0  0  0
   17.9690   16.9888    6.9968 H   0  0  0  0  0  0  0  0  0  0  0  0
   19.9355   15.8203   10.0687 H   0  0  0  0  0  0  0  0  0  0  0  0
   20.6125   12.6265   10.5390 H   0  0  0  0  0  0  0  0  0  0  0  0
   22.0056   15.0157   15.5039 H   0  0  0  0  0  0  0  0  0  0  0  0
   25.7127   16.3368   13.6403 H   0  0  0  0  0  0  0  0  0  0  0  0
   27.3368   17.4643   14.8282 H   0  0  0  0  0  0  0  0  0  0  0  0
   25.1295   18.0481   16.8498 H   0  0  0  0  0  0  0  0  0  0  0  0
   26.3219   16.7061   16.9123 H   0  0  0  0  0  0  0  0  0  0  0  0
   26.9740   18.6497   18.3453 H   0  0  0  0  0  0  0  0  0  0  0  0
   28.1669   18.3047   17.0285 H   0  0  0  0  0  0  0  0  0  0  0  0
   26.9024   21.1506   15.0036 H   0  0  0  0  0  0  0  0  0  0  0  0
   23.8661   16.4423   11.9412 H   0  0  0  0  0  0  0  0  0  0  0  0
   22.4634   15.3674    6.6114 H   0  0  0  0  0  0  0  0  0  0  0  0
  1  2  1  0
  2  3  1  0
  3  4  2  0
  4  5  1  0
  5  6  1  0
  6  7  2  0
  6  8  2  0
  6  9  1  0
  9 10  2  0
 10 11  1  0
 11 12  1  0
 12 13  1  0
 13 14  2  0
 14 15  1  0
 15 16  2  0
 15 17  1  0
 17 18  1  0
 18 19  1  0
 19 20  1  0
 20 21  1  0
 21 22  2  0
 21 23  1  0
 23 24  1  0
 24 25  2  0
 14 26  1  0
 26 27  1  0
  5 28  1  0
 28 29  2  0
 29  3  1  0
 27  9  1  0
 27 12  2  0
 24 18  1  0
  1 30  1  0
  1 31  1  0
  1 32  1  0
  2 33  1  0
  2 34  1  0
  4 35  1  0
 10 36  1  0
 13 37  1  0
 17 38  1  0
 18 39  1  1
 19 40  1  0
 19 41  1  0
 20 42  1  0
 20 43  1  0
 23 44  1  0
 26 45  1  0
 28 46  1  0
M  END
>  <meeko>  (939) 
{"is_sidechain": [true], "free_energy": -10.38, "intermolecular_energy": 0.0, "internal_energy": -10.38, "cluster_size": 13, "cluster_id": 1, "rank_in_cluster": 1}

>  <_RMSD_MCS_to_ref>  (939) 
0.7945441040831733

$$$$
ligand
     RDKit          3D

 45 48  0  0  0  0  0  0  0  0999 V2000
   18.7970   18.8170    7.7190 C   0  0  0  0  0  0  0  0  0  0  0  0
   18.5280   17.3290    7.8810 C   0  0  0  0  0  0  0  0  0  0  0  0
   19.7840   16.5300    7.9010 C   0  0  0  0  0  0  0  0  0  0  0  0
   20.5850   16.1940    8.9750 C   0  0  0  0  0  0  0  0  0  0  0  0
   21.6120   15.4860    8.4190 N   0  0  0  0  0  0  0  0  0  0  0  0
   22.7620   14.6070    9.2620 S   0  0  0  0  0  6  0  0  0  0  0  0
   23.8200   15.5390    9.5950 O   0  0  0  0  0  0  0  0  0  0  0  0
   22.9760   13.3890    8.5090 O   0  0  0  0  0  0  0  0  0  0  0  0
   22.1400   14.0840   10.7780 C   0  0  0  0  0  0  0  0  0  0  0  0
   21.0040   13.3040   10.9570 C   0  0  0  0  0  0  0  0  0  0  0  0
   20.6930   12.9790   12.6380 S   0  0  0  0  0  0  0  0  0  0  0  0
   22.0450   13.8590   13.0730 C   0  0  0  0  0  0  0  0  0  0  0  0
   22.7400   14.2240   14.5450 S   0  0  0  0  0  0  0  0  0  0  0  0
   24.0010   15.1280   13.7570 C   0  0  0  0  0  0  0  0  0  0  0  0
   25.0620   15.7880   14.5060 C   0  0  0  0  0  0  0  0  0  0  0  0
   25.9980   15.1760   15.0160 O   0  0  0  0  0  0  0  0  0  0  0  0
   24.9710   17.1580   14.6080 N   0  0  0  0  0  0  0  0  0  0  0  0
   26.0340   17.9610   15.1900 C   0  0  2  0  0  0  0  0  0  0  0  0
   26.1250   17.7890   16.7030 C   0  0  0  0  0  0  0  0  0  0  0  0
   27.2300   18.6800   17.2490 C   0  0  0  0  0  0  0  0  0  0  0  0
   27.0130   20.1240   16.8590 C   0  0  0  0  0  0  0  0  0  0  0  0
   27.3330   21.0580   17.5870 O   0  0  0  0  0  0  0  0  0  0  0  0
   26.4620   20.3490   15.6220 N   0  0  0  0  0  0  0  0  0  0  0  0
   25.7640   19.4360   14.8730 C   0  0  0  0  0  0  0  0  0  0  0  0
   24.9820   19.7970   13.9950 O   0  0  0  0  0  0  0  0  0  0  0  0
   23.8430   15.1180   12.3710 C   0  0  0  0  0  0  0  0  0  0  0  0
   22.7060   14.3770   12.0280 C   0  0  0  0  0  0  0  0  0  0  0  0
   21.3960   15.3620    7.0840 C   0  0  0  0  0  0  0  0  0  0  0  0
   20.2940   15.9920    6.7350 N   0  0  0  0  0  0  0  0  0  0  0  0
   18.8815   19.2845    8.7111 H   0  0  0  0  0  0  0  0  0  0  0  0
   19.7359   18.9616    7.1643 H   0  0  0  0  0  0  0  0  0  0  0  0
   17.9682   19.2812    7.1643 H   0  0  0  0  0  0  0  0  0  0  0  0
   17.9899   17.1671    8.8266 H   0  0  0  0  0  0  0  0  0  0  0  0
   17.9304   16.9978    7.0189 H   0  0  0  0  0  0  0  0  0  0  0  0
   20.4309   16.4404   10.0359 H   0  0  0  0  0  0  0  0  0  0  0  0
   20.3753   12.9354   10.1331 H   0  0  0  0  0  0  0  0  0  0  0  0
   24.1231   17.6288   14.2611 H   0  0  0  0  0  0  0  0  0  0  0  0
   26.9882   17.6264   14.7570 H   0  0  0  0  0  0  0  0  0  0  0  0
   25.1661   18.0709   17.1624 H   0  0  0  0  0  0  0  0  0  0  0  0
   26.3503   16.7387   16.9397 H   0  0  0  0  0  0  0  0  0  0  0  0
   27.2432   18.6031   18.3462 H   0  0  0  0  0  0  0  0  0  0  0  0
   28.1880   18.3455   16.8243 H   0  0  0  0  0  0  0  0  0  0  0  0
   26.5838   21.2892   15.2195 H   0  0  0  0  0  0  0  0  0  0  0  0
   24.5118   15.6177   11.6548 H   0  0  0  0  0  0  0  0  0  0  0  0
   22.0502   14.8122    6.3913 H   0  0  0  0  0  0  0  0  0  0  0  0
  1  2  1  0
  2  3  1  0
  3  4  2  0
  4  5  1  0
  5  6  1  0
  6  7  2  0
  6  8  2  0
  6  9  1  0
  9 10  2  0
 10 11  1  0
 11 12  1  0
 12 13  1  0
 13 14  1  0
 14 15  1  0
 15 16  2  0
 15 17  1  0
 17 18  1  0
 18 19  1  0
 19 20  1  0
 20 21  1  0
 21 22  2  0
 21 23  1  0
 23 24  1  0
 24 25  2  0
 14 26  2  0
 26 27  1  0
  5 28  1  0
 28 29  2  0
 29  3  1  0
 27  9  1  0
 27 12  2  0
 24 18  1  0
  1 30  1  0
  1 31  1  0
  1 32  1  0
  2 33  1  0
  2 34  1  0
  4 35  1  0
 10 36  1  0
 17 37  1  0
 18 38  1  6
 19 39  1  0
 19 40  1  0
 20 41  1  0
 20 42  1  0
 23 43  1  0
 26 44  1  0
 28 45  1  0
M  END
>  <meeko>  (940) 
{"is_sidechain": [true], "free_energy": -10.38, "intermolecular_energy": 0.0, "internal_energy": -10.38, "cluster_size": 12, "cluster_id": 1, "rank_in_cluster": 1}

>  <_RMSD_MCS_to_ref>  (940) 
0.6860405721724233

$$$$
ligand
     RDKit          3D

 52 56  0  0  0  0  0  0  0  0999 V2000
   18.7970   18.8160    7.7190 C   0  0  0  0  0  0  0  0  0  0  0  0
   18.5280   17.3300    7.8810 C   0  0  0  0  0  0  0  0  0  0  0  0
   19.7690   16.5610    8.1680 C   0  0  0  0  0  0  0  0  0  0  0  0
   20.2070   16.0370    9.3670 C   0  0  0  0  0  0  0  0  0  0  0  0
   21.4000   15.4450    9.0600 N   0  0  0  0  0  0  0  0  0  0  0  0
   22.4130   14.6740   10.1530 S   0  0  0  0  0  6  0  0  0  0  0  0
   23.3970   15.6970   10.4690 O   0  0  0  0  0  0  0  0  0  0  0  0
   22.8090   13.4090    9.5740 O   0  0  0  0  0  0  0  0  0  0  0  0
   21.4690   14.3770   11.6310 C   0  0  0  0  0  0  0  0  0  0  0  0
   20.1570   13.9270   11.4360 C   0  0  0  0  0  0  0  0  0  0  0  0
   19.3640   13.5960   12.5280 C   0  0  0  0  0  0  0  0  0  0  0  0
   19.8740   13.7060   13.8260 C   0  0  0  0  0  0  0  0  0  0  0  0
   19.0750   13.3630   14.9260 C   0  0  0  0  0  0  0  0  0  0  0  0
   19.5760   13.4810   16.2140 C   0  0  0  0  0  0  0  0  0  0  0  0
   20.8670   13.9350   16.3570 C   0  0  0  0  0  0  0  0  0  0  0  0
   21.6620   14.2680   15.3160 N   0  0  0  0  0  0  0  0  0  0  0  0
   21.1920   14.1690   14.0510 C   0  0  0  0  0  0  0  0  0  0  0  0
   21.9850   14.5180   12.9340 C   0  0  0  0  0  0  0  0  0  0  0  0
   23.3010   15.0740   13.1780 C   0  0  0  0  0  0  0  0  0  0  0  0
   23.6030   16.1790   13.9440 C   0  0  0  0  0  0  0  0  0  0  0  0
   24.9550   16.3020   13.8230 N   0  0  0  0  0  0  0  0  0  0  0  0
   25.8670   17.2430   14.4580 C   0  0  2  0  0  0  0  0  0  0  0  0
   25.5770   17.3550   15.9550 C   0  0  0  0  0  0  0  0  0  0  0  0
   26.5620   18.3090   16.6090 C   0  0  0  0  0  0  0  0  0  0  0  0
   26.5200   19.6640   15.9480 C   0  0  0  0  0  0  0  0  0  0  0  0
   26.8400   20.6950   16.5330 O   0  0  0  0  0  0  0  0  0  0  0  0
   26.1630   19.6830   14.6240 N   0  0  0  0  0  0  0  0  0  0  0  0
   25.8460   18.6170   13.8080 C   0  0  0  0  0  0  0  0  0  0  0  0
   25.6240   18.8180   12.6170 O   0  0  0  0  0  0  0  0  0  0  0  0
   25.4670   15.2910   13.0910 N   0  0  0  0  0  0  0  0  0  0  0  0
   24.4550   14.5410   12.6790 N   0  0  0  0  0  0  0  0  0  0  0  0
   21.6700   15.6440    7.7450 C   0  0  0  0  0  0  0  0  0  0  0  0
   20.6790   16.2930    7.1640 N   0  0  0  0  0  0  0  0  0  0  0  0
   18.8816   19.2836    8.7111 H   0  0  0  0  0  0  0  0  0  0  0  0
   19.7359   18.9603    7.1643 H   0  0  0  0  0  0  0  0  0  0  0  0
   17.9683   19.2803    7.1643 H   0  0  0  0  0  0  0  0  0  0  0  0
   17.8223   17.1866    8.7126 H   0  0  0  0  0  0  0  0  0  0  0  0
   18.1120   16.9574    6.9333 H   0  0  0  0  0  0  0  0  0  0  0  0
   19.7093   16.0848   10.3468 H   0  0  0  0  0  0  0  0  0  0  0  0
   19.7537   13.8355   10.4167 H   0  0  0  0  0  0  0  0  0  0  0  0
   18.3328   13.2466   12.3714 H   0  0  0  0  0  0  0  0  0  0  0  0
   18.0490   12.9997   14.7672 H   0  0  0  0  0  0  0  0  0  0  0  0
   18.9632   13.2210   17.0897 H   0  0  0  0  0  0  0  0  0  0  0  0
   21.2743   14.0322   17.3742 H   0  0  0  0  0  0  0  0  0  0  0  0
   22.9133   16.8141   14.5193 H   0  0  0  0  0  0  0  0  0  0  0  0
   26.8803   16.8389   14.3170 H   0  0  0  0  0  0  0  0  0  0  0  0
   24.5541   17.7328   16.0999 H   0  0  0  0  0  0  0  0  0  0  0  0
   25.6786   16.3615   16.4161 H   0  0  0  0  0  0  0  0  0  0  0  0
   26.3042   18.4192   17.6727 H   0  0  0  0  0  0  0  0  0  0  0  0
   27.5758   17.8963   16.4996 H   0  0  0  0  0  0  0  0  0  0  0  0
   26.1270   20.6127   14.1822 H   0  0  0  0  0  0  0  0  0  0  0  0
   22.5861   15.3111    7.2352 H   0  0  0  0  0  0  0  0  0  0  0  0
  1  2  1  0
  2  3  1  0
  3  4  2  0
  4  5  1  0
  5  6  1  0
  6  7  2  0
  6  8  2  0
  6  9  1  0
  9 10  2  0
 10 11  1  0
 11 12  2  0
 12 13  1  0
 13 14  2  0
 14 15  1  0
 15 16  2  0
 16 17  1  0
 17 18  2  0
 18 19  1  0
 19 20  2  0
 20 21  1  0
 21 22  1  0
 22 23  1  0
 23 24  1  0
 24 25  1  0
 25 26  2  0
 25 27  1  0
 27 28  1  0
 28 29  2  0
 21 30  1  0
 30 31  2  0
  5 32  1  0
 32 33  2  0
 33  3  1  0
 18  9  1  0
 31 19  1  0
 17 12  1  0
 28 22  1  0
  1 34  1  0
  1 35  1  0
  1 36  1  0
  2 37  1  0
  2 38  1  0
  4 39  1  0
 10 40  1  0
 11 41  1  0
 13 42  1  0
 14 43  1  0
 15 44  1  0
 20 45  1  0
 22 46  1  1
 23 47  1  0
 23 48  1  0
 24 49  1  0
 24 50  1  0
 27 51  1  0
 32 52  1  0
M  END
>  <meeko>  (941) 
{"is_sidechain": [true], "free_energy": -10.38, "intermolecular_energy": 0.0, "internal_energy": -10.38, "cluster_size": 18, "cluster_id": 1, "rank_in_cluster": 1}

>  <_RMSD_MCS_to_ref>  (941) 
1.1412041398842223

$$$$
ligand
     RDKit          3D

 52 56  0  0  0  0  0  0  0  0999 V2000
   18.7970   18.8170    7.7190 C   0  0  0  0  0  0  0  0  0  0  0  0
   18.5280   17.3290    7.8810 C   0  0  0  0  0  0  0  0  0  0  0  0
   19.7240   16.5040    7.5560 C   0  0  0  0  0  0  0  0  0  0  0  0
   20.3800   15.5780    8.3420 C   0  0  0  0  0  0  0  0  0  0  0  0
   21.4060   15.1400    7.5560 N   0  0  0  0  0  0  0  0  0  0  0  0
   22.4620   13.8930    7.9180 S   0  0  0  0  0  6  0  0  0  0  0  0
   23.6520   14.5110    8.4740 O   0  0  0  0  0  0  0  0  0  0  0  0
   22.5130   13.0410    6.7460 O   0  0  0  0  0  0  0  0  0  0  0  0
   21.7950   12.9190    9.1890 C   0  0  0  0  0  0  0  0  0  0  0  0
   21.0280   11.8590    9.0180 N   0  0  0  0  0  0  0  0  0  0  0  0
   20.6980   11.3690   10.2590 N   0  0  0  0  0  0  0  0  0  0  0  0
   21.2700   12.1380   11.1590 C   0  0  0  0  0  0  0  0  0  0  0  0
   21.2770   12.1150   12.5780 C   0  0  0  0  0  0  0  0  0  0  0  0
   21.9650   13.0550   13.2520 C   0  0  0  0  0  0  0  0  0  0  0  0
   22.7150   14.1140   12.5690 C   0  0  0  0  0  0  0  0  0  0  0  0
   23.4820   15.1460   13.2850 C   0  0  0  0  0  0  0  0  0  0  0  0
   24.8760   15.0870   13.3260 C   0  0  0  0  0  0  0  0  0  0  0  0
   25.6100   16.0600   14.0150 C   0  0  0  0  0  0  0  0  0  0  0  0
   24.9800   17.1170   14.6860 C   0  0  0  0  0  0  0  0  0  0  0  0
   25.7380   18.1210   15.3790 N   0  0  0  0  0  0  0  0  0  0  0  0
   26.5510   17.7440   16.5320 C   0  0  0  0  0  0  0  0  0  0  0  0
   26.5340   18.8320   17.5870 C   0  0  0  0  0  0  0  0  0  0  0  0
   26.9440   20.1290   16.9630 C   0  0  0  0  0  0  0  0  0  0  0  0
   27.4150   21.0550   17.6170 O   0  0  0  0  0  0  0  0  0  0  0  0
   26.6770   20.2550   15.6290 N   0  0  0  0  0  0  0  0  0  0  0  0
   25.9030   19.4130   14.8650 C   0  0  0  0  0  0  0  0  0  0  0  0
   25.4410   19.8510   13.8150 O   0  0  0  0  0  0  0  0  0  0  0  0
   23.5770   17.1650   14.6370 C   0  0  0  0  0  0  0  0  0  0  0  0
   22.8370   16.1920   13.9500 C   0  0  0  0  0  0  0  0  0  0  0  0
   22.7030   14.1230   11.2180 C   0  0  0  0  0  0  0  0  0  0  0  0
   21.9850   13.1460   10.5280 N   0  0  0  0  0  0  0  0  0  0  0  0
   21.3200   15.7340    6.3380 C   0  0  0  0  0  0  0  0  0  0  0  0
   20.3240   16.5950    6.3150 N   0  0  0  0  0  0  0  0  0  0  0  0
   18.8815   19.2845    8.7111 H   0  0  0  0  0  0  0  0  0  0  0  0
   19.7359   18.9616    7.1643 H   0  0  0  0  0  0  0  0  0  0  0  0
   17.9682   19.2812    7.1643 H   0  0  0  0  0  0  0  0  0  0  0  0
   18.2347   17.1331    8.9229 H   0  0  0  0  0  0  0  0  0  0  0  0
   17.7257   17.0521    7.1812 H   0  0  0  0  0  0  0  0  0  0  0  0
   20.1324   15.2649    9.3670 H   0  0  0  0  0  0  0  0  0  0  0  0
   20.7245   11.3351   13.1226 H   0  0  0  0  0  0  0  0  0  0  0  0
   21.9647   13.0280   14.3517 H   0  0  0  0  0  0  0  0  0  0  0  0
   25.4024   14.2689   12.8125 H   0  0  0  0  0  0  0  0  0  0  0  0
   26.7079   15.9933   14.0301 H   0  0  0  0  0  0  0  0  0  0  0  0
   26.1513   16.8157   16.9660 H   0  0  0  0  0  0  0  0  0  0  0  0
   27.5883   17.5969   16.1966 H   0  0  0  0  0  0  0  0  0  0  0  0
   25.5193   18.9274   18.0008 H   0  0  0  0  0  0  0  0  0  0  0  0
   27.2334   18.5736   18.3957 H   0  0  0  0  0  0  0  0  0  0  0  0
   27.0978   21.0620   15.1468 H   0  0  0  0  0  0  0  0  0  0  0  0
   23.0479   17.9828   15.1481 H   0  0  0  0  0  0  0  0  0  0  0  0
   21.7388   16.2527   13.9345 H   0  0  0  0  0  0  0  0  0  0  0  0
   23.2563   14.8964   10.6652 H   0  0  0  0  0  0  0  0  0  0  0  0
   21.9884   15.5253    5.4897 H   0  0  0  0  0  0  0  0  0  0  0  0
  1  2  1  0
  2  3  1  0
  3  4  2  0
  4  5  1  0
  5  6  1  0
  6  7  2  0
  6  8  2  0
  6  9  1  0
  9 10  2  0
 10 11  1  0
 11 12  2  0
 12 13  1  0
 13 14  2  0
 14 15  1  0
 15 16  1  0
 16 17  2  0
 17 18  1  0
 18 19  2  0
 19 20  1  0
 20 21  1  0
 21 22  1  0
 22 23  1  0
 23 24  2  0
 23 25  1  0
 25 26  1  0
 26 27  2  0
 19 28  1  0
 28 29  2  0
 15 30  2  0
 30 31  1  0
  5 32  1  0
 32 33  2  0
 33  3  1  0
 31  9  1  0
 31 12  1  0
 29 16  1  0
 26 20  1  0
  1 34  1  0
  1 35  1  0
  1 36  1  0
  2 37  1  0
  2 38  1  0
  4 39  1  0
 13 40  1  0
 14 41  1  0
 17 42  1  0
 18 43  1  0
 21 44  1  0
 21 45  1  0
 22 46  1  0
 22 47  1  0
 25 48  1  0
 28 49  1  0
 29 50  1  0
 30 51  1  0
 32 52  1  0
M  END
>  <meeko>  (942) 
{"is_sidechain": [true], "free_energy": -10.38, "intermolecular_energy": 0.0, "internal_energy": -10.38, "cluster_size": 11, "cluster_id": 1, "rank_in_cluster": 1}

>  <_RMSD_MCS_to_ref>  (942) 
0.6259409916278047

$$$$
ligand
     RDKit          3D

 48 51  0  0  0  0  0  0  0  0999 V2000
   18.9090   19.1540    7.5370 C   0  0  0  0  0  0  0  0  0  0  0  0
   18.7730   17.6460    7.6780 C   0  0  0  0  0  0  0  0  0  0  0  0
   20.0550   16.9920    8.0610 C   0  0  0  0  0  0  0  0  0  0  0  0
   20.3080   16.1520    9.1270 C   0  0  0  0  0  0  0  0  0  0  0  0
   21.6390   15.8590    9.0180 N   0  0  0  0  0  0  0  0  0  0  0  0
   22.4610   14.7010    9.9140 S   0  0  0  0  0  6  0  0  0  0  0  0
   22.3630   15.1260   11.2960 O   0  0  0  0  0  0  0  0  0  0  0  0
   21.9280   13.4310    9.4540 O   0  0  0  0  0  0  0  0  0  0  0  0
   24.1540   14.7760    9.4380 C   0  0  0  0  0  0  0  0  0  0  0  0
   24.5990   13.8880    8.4430 C   0  0  0  0  0  0  0  0  0  0  0  0
   25.9330   13.8780    8.0280 C   0  0  0  0  0  0  0  0  0  0  0  0
   26.8700   14.7510    8.5970 C   0  0  0  0  0  0  0  0  0  0  0  0
   26.4440   15.6470    9.5930 C   0  0  0  0  0  0  0  0  0  0  0  0
   27.0740   16.6360   10.3960 C   0  0  0  0  0  0  0  0  0  0  0  0
   26.0970   17.1800   11.2060 C   0  0  0  0  0  0  0  0  0  0  0  0
   26.1690   18.1870   12.2460 C   0  0  0  0  0  0  0  0  0  0  0  0
   27.0880   18.9960   12.3370 O   0  0  0  0  0  0  0  0  0  0  0  0
   25.1130   18.1690   13.1350 N   0  0  0  0  0  0  0  0  0  0  0  0
   25.2470   18.7450   14.4620 C   0  0  1  0  0  0  0  0  0  0  0  0
   26.2650   17.9780   15.2930 C   0  0  0  0  0  0  0  0  0  0  0  0
   26.3960   18.6290   16.6600 C   0  0  0  0  0  0  0  0  0  0  0  0
   26.7610   20.0910   16.5390 C   0  0  0  0  0  0  0  0  0  0  0  0
   27.4520   20.6660   17.3740 O   0  0  0  0  0  0  0  0  0  0  0  0
   26.2460   20.7650   15.4610 N   0  0  0  0  0  0  0  0  0  0  0  0
   25.7020   20.2070   14.3280 C   0  0  0  0  0  0  0  0  0  0  0  0
   25.5840   20.8710   13.2990 O   0  0  0  0  0  0  0  0  0  0  0  0
   24.8990   16.5770   10.9360 O   0  0  0  0  0  0  0  0  0  0  0  0
   25.1070   15.6390    9.9750 C   0  0  0  0  0  0  0  0  0  0  0  0
   22.1490   16.5050    7.9360 C   0  0  0  0  0  0  0  0  0  0  0  0
   21.2010   17.1740    7.3070 N   0  0  0  0  0  0  0  0  0  0  0  0
   18.9504   19.6134    8.5356 H   0  0  0  0  0  0  0  0  0  0  0  0
   19.8320   19.3891    6.9867 H   0  0  0  0  0  0  0  0  0  0  0  0
   18.0430   19.5504    6.9867 H   0  0  0  0  0  0  0  0  0  0  0  0
   18.0217   17.4302    8.4520 H   0  0  0  0  0  0  0  0  0  0  0  0
   18.4717   17.2442    6.6993 H   0  0  0  0  0  0  0  0  0  0  0  0
   19.5995   15.7987    9.8907 H   0  0  0  0  0  0  0  0  0  0  0  0
   23.8846   13.1891    7.9834 H   0  0  0  0  0  0  0  0  0  0  0  0
   26.2521   13.1754    7.2441 H   0  0  0  0  0  0  0  0  0  0  0  0
   27.9202   14.7354    8.2701 H   0  0  0  0  0  0  0  0  0  0  0  0
   28.1378   16.9151   10.3760 H   0  0  0  0  0  0  0  0  0  0  0  0
   24.2189   17.7418   12.8540 H   0  0  0  0  0  0  0  0  0  0  0  0
   24.2726   18.6885   14.9693 H   0  0  0  0  0  0  0  0  0  0  0  0
   25.9308   16.9369   15.4131 H   0  0  0  0  0  0  0  0  0  0  0  0
   27.2402   17.9934   14.7843 H   0  0  0  0  0  0  0  0  0  0  0  0
   25.4371   18.5418   17.1918 H   0  0  0  0  0  0  0  0  0  0  0  0
   27.1960   18.1159   17.2138 H   0  0  0  0  0  0  0  0  0  0  0  0
   26.2691   21.7938   15.5046 H   0  0  0  0  0  0  0  0  0  0  0  0
   23.2045   16.4744    7.6278 H   0  0  0  0  0  0  0  0  0  0  0  0
  1  2  1  0
  2  3  1  0
  3  4  2  0
  4  5  1  0
  5  6  1  0
  6  7  2  0
  6  8  2  0
  6  9  1  0
  9 10  2  0
 10 11  1  0
 11 12  2  0
 12 13  1  0
 13 14  1  0
 14 15  2  0
 15 16  1  0
 16 17  2  0
 16 18  1  0
 18 19  1  0
 19 20  1  0
 20 21  1  0
 21 22  1  0
 22 23  2  0
 22 24  1  0
 24 25  1  0
 25 26  2  0
 15 27  1  0
 27 28  1  0
  5 29  1  0
 29 30  2  0
 30  3  1  0
 28  9  1  0
 28 13  2  0
 25 19  1  0
  1 31  1  0
  1 32  1  0
  1 33  1  0
  2 34  1  0
  2 35  1  0
  4 36  1  0
 10 37  1  0
 11 38  1  0
 12 39  1  0
 14 40  1  0
 18 41  1  0
 19 42  1  1
 20 43  1  0
 20 44  1  0
 21 45  1  0
 21 46  1  0
 24 47  1  0
 29 48  1  0
M  END
>  <meeko>  (943) 
{"is_sidechain": [true], "free_energy": -10.38, "intermolecular_energy": 0.0, "internal_energy": -10.38, "cluster_size": 10, "cluster_id": 1, "rank_in_cluster": 1}

>  <_RMSD_MCS_to_ref>  (943) 
0.6483576687806409

$$$$
ligand
     RDKit          3D

 48 51  0  0  0  0  0  0  0  0999 V2000
   18.9090   19.1540    7.5370 C   0  0  0  0  0  0  0  0  0  0  0  0
   18.7730   17.6460    7.6780 C   0  0  0  0  0  0  0  0  0  0  0  0
   20.0930   16.9610    7.6630 C   0  0  0  0  0  0  0  0  0  0  0  0
   20.8980   16.6110    8.7300 C   0  0  0  0  0  0  0  0  0  0  0  0
   21.9920   16.0400    8.1480 N   0  0  0  0  0  0  0  0  0  0  0  0
   23.3850   15.4910    8.9210 S   0  0  0  0  0  6  0  0  0  0  0  0
   24.3890   16.4670    8.5200 O   0  0  0  0  0  0  0  0  0  0  0  0
   23.5340   14.1040    8.5160 O   0  0  0  0  0  0  0  0  0  0  0  0
   23.1920   15.5770   10.6310 C   0  0  0  0  0  0  0  0  0  0  0  0
   24.0070   16.3810   11.3450 C   0  0  0  0  0  0  0  0  0  0  0  0
   23.8600   16.4410   12.7970 C   0  0  0  0  0  0  0  0  0  0  0  0
   24.7330   17.3030   13.6570 C   0  0  0  0  0  0  0  0  0  0  0  0
   25.9540   17.1990   13.6530 O   0  0  0  0  0  0  0  0  0  0  0  0
   24.0540   18.1720   14.4720 N   0  0  0  0  0  0  0  0  0  0  0  0
   24.7490   18.9610   15.4810 C   0  0  1  0  0  0  0  0  0  0  0  0
   25.7340   18.1250   16.2910 C   0  0  0  0  0  0  0  0  0  0  0  0
   26.4530   19.0180   17.2900 C   0  0  0  0  0  0  0  0  0  0  0  0
   27.1310   20.1800   16.6020 C   0  0  0  0  0  0  0  0  0  0  0  0
   28.1840   20.6620   17.0070 O   0  0  0  0  0  0  0  0  0  0  0  0
   26.4930   20.7030   15.5050 N   0  0  0  0  0  0  0  0  0  0  0  0
   25.5110   20.0850   14.7730 C   0  0  0  0  0  0  0  0  0  0  0  0
   25.2560   20.4330   13.6200 O   0  0  0  0  0  0  0  0  0  0  0  0
   22.9500   15.6700   13.4290 C   0  0  0  0  0  0  0  0  0  0  0  0
   22.0960   14.8190   12.6700 C   0  0  0  0  0  0  0  0  0  0  0  0
   21.0840   13.9470   12.9920 C   0  0  0  0  0  0  0  0  0  0  0  0
   20.6630   13.4310   11.7600 C   0  0  0  0  0  0  0  0  0  0  0  0
   21.3490   13.9280   10.7320 N   0  0  0  0  0  0  0  0  0  0  0  0
   22.2420   14.7910   11.2750 N   0  0  0  0  0  0  0  0  0  0  0  0
   21.8330   16.0430    6.7990 C   0  0  0  0  0  0  0  0  0  0  0  0
   20.6860   16.5980    6.4680 N   0  0  0  0  0  0  0  0  0  0  0  0
   18.9504   19.6134    8.5356 H   0  0  0  0  0  0  0  0  0  0  0  0
   19.8320   19.3891    6.9867 H   0  0  0  0  0  0  0  0  0  0  0  0
   18.0430   19.5504    6.9867 H   0  0  0  0  0  0  0  0  0  0  0  0
   18.2685   17.4229    8.6297 H   0  0  0  0  0  0  0  0  0  0  0  0
   18.1903   17.2770    6.8211 H   0  0  0  0  0  0  0  0  0  0  0  0
   20.7020   16.7587    9.8023 H   0  0  0  0  0  0  0  0  0  0  0  0
   24.7743   16.9851   10.8388 H   0  0  0  0  0  0  0  0  0  0  0  0
   23.0337   18.2689   14.3691 H   0  0  0  0  0  0  0  0  0  0  0  0
   24.0005   19.3604   16.1811 H   0  0  0  0  0  0  0  0  0  0  0  0
   25.1891   17.3360   16.8300 H   0  0  0  0  0  0  0  0  0  0  0  0
   26.4690   17.6652   15.6140 H   0  0  0  0  0  0  0  0  0  0  0  0
   25.7214   19.4076   18.0132 H   0  0  0  0  0  0  0  0  0  0  0  0
   27.2231   18.4192   17.7982 H   0  0  0  0  0  0  0  0  0  0  0  0
   26.7776   21.6459   15.2037 H   0  0  0  0  0  0  0  0  0  0  0  0
   22.8681   15.6986   14.5256 H   0  0  0  0  0  0  0  0  0  0  0  0
   20.6928   13.7081   13.9919 H   0  0  0  0  0  0  0  0  0  0  0  0
   19.8530   12.6945   11.6528 H   0  0  0  0  0  0  0  0  0  0  0  0
   22.5621   15.6376    6.0820 H   0  0  0  0  0  0  0  0  0  0  0  0
  1  2  1  0
  2  3  1  0
  3  4  2  0
  4  5  1  0
  5  6  1  0
  6  7  2  0
  6  8  2  0
  6  9  1  0
  9 10  2  0
 10 11  1  0
 11 12  1  0
 12 13  2  0
 12 14  1  0
 14 15  1  0
 15 16  1  0
 16 17  1  0
 17 18  1  0
 18 19  2  0
 18 20  1  0
 20 21  1  0
 21 22  2  0
 11 23  2  0
 23 24  1  0
 24 25  2  0
 25 26  1  0
 26 27  2  0
 27 28  1  0
  5 29  1  0
 29 30  2  0
 30  3  1  0
 28  9  1  0
 21 15  1  0
 28 24  1  0
  1 31  1  0
  1 32  1  0
  1 33  1  0
  2 34  1  0
  2 35  1  0
  4 36  1  0
 10 37  1  0
 14 38  1  0
 15 39  1  1
 16 40  1  0
 16 41  1  0
 17 42  1  0
 17 43  1  0
 20 44  1  0
 23 45  1  0
 25 46  1  0
 26 47  1  0
 29 48  1  0
M  END
>  <meeko>  (944) 
{"is_sidechain": [true], "free_energy": -10.38, "intermolecular_energy": 0.0, "internal_energy": -10.38, "cluster_size": 20, "cluster_id": 1, "rank_in_cluster": 1}

>  <_RMSD_MCS_to_ref>  (944) 
0.8142625839098563

$$$$
ligand
     RDKit          3D

 48 51  0  0  0  0  0  0  0  0999 V2000
   18.9090   19.1540    7.5370 C   0  0  0  0  0  0  0  0  0  0  0  0
   18.7730   17.6460    7.6780 C   0  0  0  0  0  0  0  0  0  0  0  0
   20.0940   16.9610    7.6800 C   0  0  0  0  0  0  0  0  0  0  0  0
   21.0020   16.8300    8.7120 C   0  0  0  0  0  0  0  0  0  0  0  0
   22.0330   16.1230    8.1650 N   0  0  0  0  0  0  0  0  0  0  0  0
   23.3320   15.4640    8.9990 S   0  0  0  0  0  6  0  0  0  0  0  0
   23.5350   14.1440    8.4320 O   0  0  0  0  0  0  0  0  0  0  0  0
   24.3690   16.4750    9.0190 O   0  0  0  0  0  0  0  0  0  0  0  0
   22.7330   15.2450   10.6500 C   0  0  0  0  0  0  0  0  0  0  0  0
   23.4120   15.8480   11.7190 C   0  0  0  0  0  0  0  0  0  0  0  0
   22.9570   15.7010   13.0380 C   0  0  0  0  0  0  0  0  0  0  0  0
   23.7190   16.3950   14.1140 C   0  0  0  0  0  0  0  0  0  0  0  0
   24.0590   15.7790   15.1170 O   0  0  0  0  0  0  0  0  0  0  0  0
   23.9790   17.7340   13.9280 N   0  0  0  0  0  0  0  0  0  0  0  0
   24.5780   18.5360   14.9870 C   0  0  1  0  0  0  0  0  0  0  0  0
   25.7150   17.8060   15.6940 C   0  0  0  0  0  0  0  0  0  0  0  0
   26.3200   18.7160   16.7530 C   0  0  0  0  0  0  0  0  0  0  0  0
   26.7770   20.0260   16.1540 C   0  0  0  0  0  0  0  0  0  0  0  0
   27.7610   20.6310   16.5660 O   0  0  0  0  0  0  0  0  0  0  0  0
   26.0150   20.5330   15.1320 N   0  0  0  0  0  0  0  0  0  0  0  0
   25.1230   19.8250   14.3660 C   0  0  0  0  0  0  0  0  0  0  0  0
   24.7820   20.2200   13.2510 O   0  0  0  0  0  0  0  0  0  0  0  0
   21.8020   14.9500   13.3170 C   0  0  0  0  0  0  0  0  0  0  0  0
   21.1270   14.3210   12.2520 C   0  0  0  0  0  0  0  0  0  0  0  0
   19.9840   13.5050   12.1110 C   0  0  0  0  0  0  0  0  0  0  0  0
   19.7540   13.1560   10.8440 N   0  0  0  0  0  0  0  0  0  0  0  0
   20.7540   13.7410   10.1640 N   0  0  0  0  0  0  0  0  0  0  0  0
   21.6050   14.4740   10.9570 C   0  0  0  0  0  0  0  0  0  0  0  0
   21.7280   15.8170    6.8770 C   0  0  0  0  0  0  0  0  0  0  0  0
   20.5590   16.3230    6.5470 N   0  0  0  0  0  0  0  0  0  0  0  0
   18.9504   19.6134    8.5356 H   0  0  0  0  0  0  0  0  0  0  0  0
   19.8320   19.3891    6.9867 H   0  0  0  0  0  0  0  0  0  0  0  0
   18.0430   19.5504    6.9867 H   0  0  0  0  0  0  0  0  0  0  0  0
   18.2570   17.4236    8.6237 H   0  0  0  0  0  0  0  0  0  0  0  0
   18.2016   17.2759    6.8140 H   0  0  0  0  0  0  0  0  0  0  0  0
   20.9142   17.2092    9.7408 H   0  0  0  0  0  0  0  0  0  0  0  0
   24.3144   16.4448   11.5203 H   0  0  0  0  0  0  0  0  0  0  0  0
   23.7467   18.1755   13.0269 H   0  0  0  0  0  0  0  0  0  0  0  0
   23.8024   18.7462   15.7381 H   0  0  0  0  0  0  0  0  0  0  0  0
   25.3250   16.8954   16.1722 H   0  0  0  0  0  0  0  0  0  0  0  0
   26.4876   17.5323   14.9604 H   0  0  0  0  0  0  0  0  0  0  0  0
   25.5637   18.9195   17.5254 H   0  0  0  0  0  0  0  0  0  0  0  0
   27.1938   18.2094   17.1886 H   0  0  0  0  0  0  0  0  0  0  0  0
   26.1220   21.5354   14.9205 H   0  0  0  0  0  0  0  0  0  0  0  0
   21.4317   14.8550   14.3484 H   0  0  0  0  0  0  0  0  0  0  0  0
   19.3514   13.1909   12.9543 H   0  0  0  0  0  0  0  0  0  0  0  0
   20.8720   13.6491    9.1449 H   0  0  0  0  0  0  0  0  0  0  0  0
   22.3688   15.2284    6.2040 H   0  0  0  0  0  0  0  0  0  0  0  0
  1  2  1  0
  2  3  1  0
  3  4  2  0
  4  5  1  0
  5  6  1  0
  6  7  2  0
  6  8  2  0
  6  9  1  0
  9 10  2  0
 10 11  1  0
 11 12  1  0
 12 13  2  0
 12 14  1  0
 14 15  1  0
 15 16  1  0
 16 17  1  0
 17 18  1  0
 18 19  2  0
 18 20  1  0
 20 21  1  0
 21 22  2  0
 11 23  2  0
 23 24  1  0
 24 25  1  0
 25 26  2  0
 26 27  1  0
 27 28  1  0
  5 29  1  0
 29 30  2  0
 30  3  1  0
 28  9  1  0
 21 15  1  0
 28 24  2  0
  1 31  1  0
  1 32  1  0
  1 33  1  0
  2 34  1  0
  2 35  1  0
  4 36  1  0
 10 37  1  0
 14 38  1  0
 15 39  1  1
 16 40  1  0
 16 41  1  0
 17 42  1  0
 17 43  1  0
 20 44  1  0
 23 45  1  0
 25 46  1  0
 27 47  1  0
 29 48  1  0
M  END
>  <meeko>  (945) 
{"is_sidechain": [true], "free_energy": -10.38, "intermolecular_energy": 0.0, "internal_energy": -10.38, "cluster_size": 16, "cluster_id": 2, "rank_in_cluster": 1}

>  <_RMSD_MCS_to_ref>  (945) 
0.42663658748140504

$$$$
ligand
     RDKit          3D

 46 49  0  0  0  0  0  0  0  0999 V2000
   18.9090   19.1540    7.5370 C   0  0  0  0  0  0  0  0  0  0  0  0
   18.7730   17.6460    7.6780 C   0  0  0  0  0  0  0  0  0  0  0  0
   20.0920   16.9570    7.6380 C   0  0  0  0  0  0  0  0  0  0  0  0
   21.0030   16.7710    8.6580 C   0  0  0  0  0  0  0  0  0  0  0  0
   22.0210   16.0770    8.0750 N   0  0  0  0  0  0  0  0  0  0  0  0
   23.3490   15.3890    8.8550 S   0  0  0  0  0  6  0  0  0  0  0  0
   24.4890   16.1900    8.4480 O   0  0  0  0  0  0  0  0  0  0  0  0
   23.2760   13.9870    8.4750 O   0  0  0  0  0  0  0  0  0  0  0  0
   23.1350   15.5170   10.5670 C   0  0  0  0  0  0  0  0  0  0  0  0
   23.9240   16.3550   11.2590 C   0  0  0  0  0  0  0  0  0  0  0  0
   23.6740   16.4630   12.7220 C   0  0  0  0  0  0  0  0  0  0  0  0
   24.5940   17.4120   13.4990 C   0  0  0  0  0  0  0  0  0  0  0  0
   25.7720   17.5150   13.2010 O   0  0  0  0  0  0  0  0  0  0  0  0
   23.9670   18.0800   14.5200 N   0  0  0  0  0  0  0  0  0  0  0  0
   24.6990   18.8740   15.4930 C   0  0  1  0  0  0  0  0  0  0  0  0
   25.7190   18.0430   16.2630 C   0  0  0  0  0  0  0  0  0  0  0  0
   26.4730   18.9370   17.2340 C   0  0  0  0  0  0  0  0  0  0  0  0
   27.1200   20.1010   16.5200 C   0  0  0  0  0  0  0  0  0  0  0  0
   28.1890   20.5840   16.8800 O   0  0  0  0  0  0  0  0  0  0  0  0
   26.4350   20.6250   15.4530 N   0  0  0  0  0  0  0  0  0  0  0  0
   25.4240   20.0070   14.7590 C   0  0  0  0  0  0  0  0  0  0  0  0
   25.1190   20.3660   13.6220 O   0  0  0  0  0  0  0  0  0  0  0  0
   22.7490   15.8300   13.3840 N   0  0  0  0  0  0  0  0  0  0  0  0
   21.9930   15.0180   12.5910 N   0  0  0  0  0  0  0  0  0  0  0  0
   20.9510   14.2270   12.9800 C   0  0  0  0  0  0  0  0  0  0  0  0
   20.4630   13.5880   11.9410 N   0  0  0  0  0  0  0  0  0  0  0  0
   21.1960   13.9600   10.8380 N   0  0  0  0  0  0  0  0  0  0  0  0
   22.1150   14.8130   11.2320 C   0  0  0  0  0  0  0  0  0  0  0  0
   21.7140   15.8440    6.7730 C   0  0  0  0  0  0  0  0  0  0  0  0
   20.5480   16.3750    6.4710 N   0  0  0  0  0  0  0  0  0  0  0  0
   18.9504   19.6134    8.5356 H   0  0  0  0  0  0  0  0  0  0  0  0
   19.8320   19.3891    6.9867 H   0  0  0  0  0  0  0  0  0  0  0  0
   18.0430   19.5504    6.9867 H   0  0  0  0  0  0  0  0  0  0  0  0
   18.2854   17.4224    8.6383 H   0  0  0  0  0  0  0  0  0  0  0  0
   18.1746   17.2799    6.8307 H   0  0  0  0  0  0  0  0  0  0  0  0
   20.9253   17.1063    9.7028 H   0  0  0  0  0  0  0  0  0  0  0  0
   24.7186   16.9350   10.7669 H   0  0  0  0  0  0  0  0  0  0  0  0
   22.9421   18.0168   14.5999 H   0  0  0  0  0  0  0  0  0  0  0  0
   23.9765   19.2721   16.2207 H   0  0  0  0  0  0  0  0  0  0  0  0
   25.1994   17.2509   16.8221 H   0  0  0  0  0  0  0  0  0  0  0  0
   26.4292   17.5884   15.5567 H   0  0  0  0  0  0  0  0  0  0  0  0
   25.7688   19.3241   17.9852 H   0  0  0  0  0  0  0  0  0  0  0  0
   27.2637   18.3405   17.7125 H   0  0  0  0  0  0  0  0  0  0  0  0
   26.7041   21.5699   15.1437 H   0  0  0  0  0  0  0  0  0  0  0  0
   20.5757   14.1378   14.0101 H   0  0  0  0  0  0  0  0  0  0  0  0
   22.3510   15.2888    6.0687 H   0  0  0  0  0  0  0  0  0  0  0  0
  1  2  1  0
  2  3  1  0
  3  4  2  0
  4  5  1  0
  5  6  1  0
  6  7  2  0
  6  8  2  0
  6  9  1  0
  9 10  2  0
 10 11  1  0
 11 12  1  0
 12 13  2  0
 12 14  1  0
 14 15  1  0
 15 16  1  0
 16 17  1  0
 17 18  1  0
 18 19  2  0
 18 20  1  0
 20 21  1  0
 21 22  2  0
 11 23  2  0
 23 24  1  0
 24 25  1  0
 25 26  2  0
 26 27  1  0
 27 28  2  0
  5 29  1  0
 29 30  2  0
 30  3  1  0
 28  9  1  0
 21 15  1  0
 28 24  1  0
  1 31  1  0
  1 32  1  0
  1 33  1  0
  2 34  1  0
  2 35  1  0
  4 36  1  0
 10 37  1  0
 14 38  1  0
 15 39  1  1
 16 40  1  0
 16 41  1  0
 17 42  1  0
 17 43  1  0
 20 44  1  0
 25 45  1  0
 29 46  1  0
M  END
>  <meeko>  (946) 
{"is_sidechain": [true], "free_energy": -10.38, "intermolecular_energy": 0.0, "internal_energy": -10.38, "cluster_size": 17, "cluster_id": 1, "rank_in_cluster": 1}

>  <_RMSD_MCS_to_ref>  (946) 
0.7745372094927971

$$$$
ligand
     RDKit          3D

 46 49  0  0  0  0  0  0  0  0999 V2000
   18.9090   19.1540    7.5370 C   0  0  0  0  0  0  0  0  0  0  0  0
   18.7730   17.6460    7.6780 C   0  0  0  0  0  0  0  0  0  0  0  0
   19.9070   16.9180    7.0460 C   0  0  0  0  0  0  0  0  0  0  0  0
   21.0050   16.3320    7.6440 C   0  0  0  0  0  0  0  0  0  0  0  0
   21.7300   15.8350    6.5990 N   0  0  0  0  0  0  0  0  0  0  0  0
   23.0870   14.8580    6.7160 S   0  0  0  0  0  6  0  0  0  0  0  0
   24.1160   15.5100    5.9270 O   0  0  0  0  0  0  0  0  0  0  0  0
   22.6270   13.5080    6.4490 O   0  0  0  0  0  0  0  0  0  0  0  0
   23.6340   14.8840    8.3910 C   0  0  0  0  0  0  0  0  0  0  0  0
   23.9950   13.8300    9.0990 N   0  0  0  0  0  0  0  0  0  0  0  0
   24.3660   14.2540   10.3600 C   0  0  0  0  0  0  0  0  0  0  0  0
   24.8160   13.4670   11.4330 C   0  0  0  0  0  0  0  0  0  0  0  0
   25.1400   14.1120   12.6270 C   0  0  0  0  0  0  0  0  0  0  0  0
   25.0040   15.4950   12.7050 C   0  0  0  0  0  0  0  0  0  0  0  0
   25.3460   16.1910   13.9910 C   0  0  0  0  0  0  0  0  0  0  0  0
   25.5760   15.5660   15.0190 O   0  0  0  0  0  0  0  0  0  0  0  0
   25.3680   17.5660   13.9170 N   0  0  0  0  0  0  0  0  0  0  0  0
   25.5260   18.4080   15.0880 C   0  0  1  0  0  0  0  0  0  0  0  0
   26.5750   17.8600   16.0490 C   0  0  0  0  0  0  0  0  0  0  0  0
   26.7080   18.7930   17.2420 C   0  0  0  0  0  0  0  0  0  0  0  0
   27.0320   20.2020   16.8020 C   0  0  0  0  0  0  0  0  0  0  0  0
   27.7340   20.9540   17.4710 O   0  0  0  0  0  0  0  0  0  0  0  0
   26.4720   20.6220   15.6230 N   0  0  0  0  0  0  0  0  0  0  0  0
   25.9400   19.8160   14.6450 C   0  0  0  0  0  0  0  0  0  0  0  0
   25.7950   20.2300   13.4950 O   0  0  0  0  0  0  0  0  0  0  0  0
   24.5730   16.3060   11.6980 N   0  0  0  0  0  0  0  0  0  0  0  0
   24.2750   15.6300   10.5710 C   0  0  0  0  0  0  0  0  0  0  0  0
   23.7150   16.4070    9.1620 S   0  0  0  0  0  0  0  0  0  0  0  0
   21.0570   16.0630    5.4420 C   0  0  0  0  0  0  0  0  0  0  0  0
   19.9520   16.7390    5.6770 N   0  0  0  0  0  0  0  0  0  0  0  0
   18.9504   19.6134    8.5356 H   0  0  0  0  0  0  0  0  0  0  0  0
   19.8320   19.3891    6.9867 H   0  0  0  0  0  0  0  0  0  0  0  0
   18.0430   19.5504    6.9867 H   0  0  0  0  0  0  0  0  0  0  0  0
   18.7408   17.3916    8.7477 H   0  0  0  0  0  0  0  0  0  0  0  0
   17.8484   17.3409    7.1661 H   0  0  0  0  0  0  0  0  0  0  0  0
   21.2416   16.2779    8.7169 H   0  0  0  0  0  0  0  0  0  0  0  0
   24.9101   12.3754   11.3349 H   0  0  0  0  0  0  0  0  0  0  0  0
   25.4975   13.5363   13.4935 H   0  0  0  0  0  0  0  0  0  0  0  0
   25.2685   18.0139   12.9948 H   0  0  0  0  0  0  0  0  0  0  0  0
   24.5617   18.4322   15.6168 H   0  0  0  0  0  0  0  0  0  0  0  0
   26.2681   16.8624   16.3964 H   0  0  0  0  0  0  0  0  0  0  0  0
   27.5430   17.7871   15.5316 H   0  0  0  0  0  0  0  0  0  0  0  0
   25.7594   18.8004   17.7989 H   0  0  0  0  0  0  0  0  0  0  0  0
   27.5289   18.4298   17.8778 H   0  0  0  0  0  0  0  0  0  0  0  0
   26.4477   21.6378   15.4542 H   0  0  0  0  0  0  0  0  0  0  0  0
   21.3886   15.7296    4.4476 H   0  0  0  0  0  0  0  0  0  0  0  0
  1  2  1  0
  2  3  1  0
  3  4  2  0
  4  5  1  0
  5  6  1  0
  6  7  2  0
  6  8  2  0
  6  9  1  0
  9 10  2  0
 10 11  1  0
 11 12  2  0
 12 13  1  0
 13 14  2  0
 14 15  1  0
 15 16  2  0
 15 17  1  0
 17 18  1  0
 18 19  1  0
 19 20  1  0
 20 21  1  0
 21 22  2  0
 21 23  1  0
 23 24  1  0
 24 25  2  0
 14 26  1  0
 26 27  2  0
 27 28  1  0
  5 29  1  0
 29 30  2  0
 30  3  1  0
 28  9  1  0
 27 11  1  0
 24 18  1  0
  1 31  1  0
  1 32  1  0
  1 33  1  0
  2 34  1  0
  2 35  1  0
  4 36  1  0
 12 37  1  0
 13 38  1  0
 17 39  1  0
 18 40  1  1
 19 41  1  0
 19 42  1  0
 20 43  1  0
 20 44  1  0
 23 45  1  0
 29 46  1  0
M  END
>  <meeko>  (947) 
{"is_sidechain": [true], "free_energy": -10.38, "intermolecular_energy": 0.0, "internal_energy": -10.38, "cluster_size": 8, "cluster_id": 1, "rank_in_cluster": 1}

>  <_RMSD_MCS_to_ref>  (947) 
0.7682746904590831

$$$$
ligand
     RDKit          3D

 48 51  0  0  0  0  0  0  0  0999 V2000
   18.9090   19.1540    7.5370 C   0  0  0  0  0  0  0  0  0  0  0  0
   18.7730   17.6460    7.6780 C   0  0  0  0  0  0  0  0  0  0  0  0
   20.0900   16.9570    7.6270 C   0  0  0  0  0  0  0  0  0  0  0  0
   20.8510   16.4610    8.6680 C   0  0  0  0  0  0  0  0  0  0  0  0
   21.9420   15.9130    8.0550 N   0  0  0  0  0  0  0  0  0  0  0  0
   23.3080   15.3110    8.8220 S   0  0  0  0  0  6  0  0  0  0  0  0
   23.3290   13.8920    8.5220 O   0  0  0  0  0  0  0  0  0  0  0  0
   24.3850   16.2120    8.4610 O   0  0  0  0  0  0  0  0  0  0  0  0
   23.1200   15.4440   10.5680 C   0  0  0  0  0  0  0  0  0  0  0  0
   24.3360   16.3430   11.3770 S   0  0  0  0  0  0  0  0  0  0  0  0
   23.6120   16.1110   12.9240 C   0  0  0  0  0  0  0  0  0  0  0  0
   24.2470   16.6920   14.0970 C   0  0  0  0  0  0  0  0  0  0  0  0
   24.5160   16.0690   15.1220 O   0  0  0  0  0  0  0  0  0  0  0  0
   24.5370   18.0370   14.0020 N   0  0  0  0  0  0  0  0  0  0  0  0
   25.0310   18.8060   15.1300 C   0  0  1  0  0  0  0  0  0  0  0  0
   26.1340   18.0760   15.8870 C   0  0  0  0  0  0  0  0  0  0  0  0
   26.6270   18.9470   17.0310 C   0  0  0  0  0  0  0  0  0  0  0  0
   27.0840   20.2980   16.5340 C   0  0  0  0  0  0  0  0  0  0  0  0
   28.0160   20.9100   17.0480 O   0  0  0  0  0  0  0  0  0  0  0  0
   26.3830   20.8360   15.4860 N   0  0  0  0  0  0  0  0  0  0  0  0
   25.5790   20.1410   14.6150 C   0  0  0  0  0  0  0  0  0  0  0  0
   25.3200   20.5870   13.4980 O   0  0  0  0  0  0  0  0  0  0  0  0
   22.4710   15.3450   12.8010 C   0  0  0  0  0  0  0  0  0  0  0  0
   22.1820   14.9890   11.4580 C   0  0  0  0  0  0  0  0  0  0  0  0
   21.1050   14.2600   11.0800 O   0  0  0  0  0  0  0  0  0  0  0  0
   20.1320   14.1960   12.1390 C   0  0  0  0  0  0  0  0  0  0  0  0
   20.7920   13.9300   13.4960 C   0  0  0  0  0  0  0  0  0  0  0  0
   21.7020   14.9850   13.8600 O   0  0  0  0  0  0  0  0  0  0  0  0
   21.8510   16.1230    6.7160 C   0  0  0  0  0  0  0  0  0  0  0  0
   20.7290   16.7460    6.4200 N   0  0  0  0  0  0  0  0  0  0  0  0
   18.9504   19.6134    8.5356 H   0  0  0  0  0  0  0  0  0  0  0  0
   19.8320   19.3891    6.9867 H   0  0  0  0  0  0  0  0  0  0  0  0
   18.0430   19.5504    6.9867 H   0  0  0  0  0  0  0  0  0  0  0  0
   18.2929   17.4220    8.6420 H   0  0  0  0  0  0  0  0  0  0  0  0
   18.1675   17.2808    6.8354 H   0  0  0  0  0  0  0  0  0  0  0  0
   20.6291   16.4987    9.7447 H   0  0  0  0  0  0  0  0  0  0  0  0
   24.3982   18.5126   13.0990 H   0  0  0  0  0  0  0  0  0  0  0  0
   24.1937   18.9612   15.8263 H   0  0  0  0  0  0  0  0  0  0  0  0
   25.7390   17.1315   16.2894 H   0  0  0  0  0  0  0  0  0  0  0  0
   26.9686   17.8632   15.2028 H   0  0  0  0  0  0  0  0  0  0  0  0
   25.8085   19.0885   17.7522 H   0  0  0  0  0  0  0  0  0  0  0  0
   27.4820   18.4444   17.5067 H   0  0  0  0  0  0  0  0  0  0  0  0
   26.4664   21.8519   15.3383 H   0  0  0  0  0  0  0  0  0  0  0  0
   19.5922   15.1533   12.1861 H   0  0  0  0  0  0  0  0  0  0  0  0
   19.4426   13.3664   11.9232 H   0  0  0  0  0  0  0  0  0  0  0  0
   20.0089   13.8533   14.2647 H   0  0  0  0  0  0  0  0  0  0  0  0
   21.3639   12.9933   13.4221 H   0  0  0  0  0  0  0  0  0  0  0  0
   22.6093   15.8154    5.9809 H   0  0  0  0  0  0  0  0  0  0  0  0
  1  2  1  0
  2  3  1  0
  3  4  2  0
  4  5  1  0
  5  6  1  0
  6  7  2  0
  6  8  2  0
  6  9  1  0
  9 10  1  0
 10 11  1  0
 11 12  1  0
 12 13  2  0
 12 14  1  0
 14 15  1  0
 15 16  1  0
 16 17  1  0
 17 18  1  0
 18 19  2  0
 18 20  1  0
 20 21  1  0
 21 22  2  0
 11 23  2  0
 23 24  1  0
 24 25  1  0
 25 26  1  0
 26 27  1  0
 27 28  1  0
  5 29  1  0
 29 30  2  0
 30  3  1  0
 24  9  2  0
 21 15  1  0
 28 23  1  0
  1 31  1  0
  1 32  1  0
  1 33  1  0
  2 34  1  0
  2 35  1  0
  4 36  1  0
 14 37  1  0
 15 38  1  1
 16 39  1  0
 16 40  1  0
 17 41  1  0
 17 42  1  0
 20 43  1  0
 26 44  1  0
 26 45  1  0
 27 46  1  0
 27 47  1  0
 29 48  1  0
M  END
>  <meeko>  (948) 
{"is_sidechain": [true], "free_energy": -10.38, "intermolecular_energy": 0.0, "internal_energy": -10.38, "cluster_size": 20, "cluster_id": 1, "rank_in_cluster": 1}

>  <_RMSD_MCS_to_ref>  (948) 
0.6372840810815844

$$$$
ligand
     RDKit          3D

 56 60  0  0  0  0  0  0  0  0999 V2000
   18.8250   19.0170    7.5350 C   0  0  0  0  0  0  0  0  0  0  0  0
   18.5200   17.5420    7.7330 C   0  0  0  0  0  0  0  0  0  0  0  0
   19.7280   16.7640    8.1210 C   0  0  0  0  0  0  0  0  0  0  0  0
   20.3320   16.6630    9.3590 C   0  0  0  0  0  0  0  0  0  0  0  0
   21.4180   15.8680    9.1350 N   0  0  0  0  0  0  0  0  0  0  0  0
   22.5140   15.3200   10.2760 S   0  0  0  0  0  6  0  0  0  0  0  0
   22.9310   13.9880    9.8930 O   0  0  0  0  0  0  0  0  0  0  0  0
   23.4510   16.4190   10.4170 O   0  0  0  0  0  0  0  0  0  0  0  0
   21.8040   15.1380   11.8560 C   0  0  0  0  0  0  0  0  0  0  0  0
   22.4410   15.4460   13.0500 C   0  0  0  0  0  0  0  0  0  0  0  0
   23.7370   16.0700   13.2550 C   0  0  0  0  0  0  0  0  0  0  0  0
   24.7430   15.7130   12.6540 O   0  0  0  0  0  0  0  0  0  0  0  0
   23.7900   17.0660   14.2000 N   0  0  0  0  0  0  0  0  0  0  0  0
   25.0070   17.8140   14.4730 C   0  0  2  0  0  0  0  0  0  0  0  0
   25.4300   17.7130   15.9360 C   0  0  0  0  0  0  0  0  0  0  0  0
   26.6830   18.5440   16.1610 C   0  0  0  0  0  0  0  0  0  0  0  0
   26.4780   19.9770   15.7280 C   0  0  0  0  0  0  0  0  0  0  0  0
   27.0210   20.9210   16.2960 O   0  0  0  0  0  0  0  0  0  0  0  0
   25.6720   20.1800   14.6370 N   0  0  0  0  0  0  0  0  0  0  0  0
   24.7640   19.2860   14.1290 C   0  0  0  0  0  0  0  0  0  0  0  0
   23.8210   19.6590   13.4320 O   0  0  0  0  0  0  0  0  0  0  0  0
   21.4720   15.0140   14.4000 S   0  0  0  0  0  0  0  0  0  0  0  0
   20.1800   14.5160   13.4210 C   0  0  0  0  0  0  0  0  0  0  0  0
   20.4620   14.6620   12.0740 C   0  0  0  0  0  0  0  0  0  0  0  0
   19.4210   14.2910   11.0500 C   0  0  0  0  0  0  0  0  0  0  0  0
   17.9920   14.4660   11.5990 C   0  0  0  0  0  0  0  0  0  0  0  0
   17.8180   13.9480   13.0160 C   0  0  0  0  0  0  0  0  0  0  0  0
   16.5670   13.4810   13.4400 C   0  0  0  0  0  0  0  0  0  0  0  0
   16.3850   13.0580   14.7550 C   0  0  0  0  0  0  0  0  0  0  0  0
   17.4450   13.1090   15.6570 C   0  0  0  0  0  0  0  0  0  0  0  0
   18.6940   13.5860   15.2500 C   0  0  0  0  0  0  0  0  0  0  0  0
   18.8940   14.0150   13.9320 C   0  0  0  0  0  0  0  0  0  0  0  0
   21.3940   15.4350    7.8470 C   0  0  0  0  0  0  0  0  0  0  0  0
   20.4060   16.0020    7.1880 N   0  0  0  0  0  0  0  0  0  0  0  0
   18.9260   19.5054    8.5155 H   0  0  0  0  0  0  0  0  0  0  0  0
   19.7645   19.1250    6.9731 H   0  0  0  0  0  0  0  0  0  0  0  0
   18.0054   19.4887    6.9731 H   0  0  0  0  0  0  0  0  0  0  0  0
   17.7638   17.4401    8.5253 H   0  0  0  0  0  0  0  0  0  0  0  0
   18.1544   17.1419    6.7758 H   0  0  0  0  0  0  0  0  0  0  0  0
   20.0113   17.1187   10.3074 H   0  0  0  0  0  0  0  0  0  0  0  0
   22.9382   17.2907   14.7336 H   0  0  0  0  0  0  0  0  0  0  0  0
   25.8137   17.3862   13.8597 H   0  0  0  0  0  0  0  0  0  0  0  0
   24.6203   18.0895   16.5784 H   0  0  0  0  0  0  0  0  0  0  0  0
   25.6380   16.6620   16.1853 H   0  0  0  0  0  0  0  0  0  0  0  0
   26.9372   18.5261   17.2311 H   0  0  0  0  0  0  0  0  0  0  0  0
   27.4972   18.1133   15.5597 H   0  0  0  0  0  0  0  0  0  0  0  0
   25.7562   21.0864   14.1551 H   0  0  0  0  0  0  0  0  0  0  0  0
   19.5447   14.9350   10.1668 H   0  0  0  0  0  0  0  0  0  0  0  0
   19.5600   13.2316   10.7888 H   0  0  0  0  0  0  0  0  0  0  0  0
   17.7437   15.5375   11.5874 H   0  0  0  0  0  0  0  0  0  0  0  0
   17.3241   13.8751   10.9550 H   0  0  0  0  0  0  0  0  0  0  0  0
   15.7256   13.4482   12.7323 H   0  0  0  0  0  0  0  0  0  0  0  0
   15.4034   12.6835   15.0810 H   0  0  0  0  0  0  0  0  0  0  0  0
   17.2985   12.7725   16.6940 H   0  0  0  0  0  0  0  0  0  0  0  0
   19.5252   13.6247   15.9694 H   0  0  0  0  0  0  0  0  0  0  0  0
   22.1016   14.7116    7.4156 H   0  0  0  0  0  0  0  0  0  0  0  0
  1  2  1  0
  2  3  1  0
  3  4  2  0
  4  5  1  0
  5  6  1  0
  6  7  2  0
  6  8  2  0
  6  9  1  0
  9 10  2  0
 10 11  1  0
 11 12  2  0
 11 13  1  0
 13 14  1  0
 14 15  1  0
 15 16  1  0
 16 17  1  0
 17 18  2  0
 17 19  1  0
 19 20  1  0
 20 21  2  0
 10 22  1  0
 22 23  1  0
 23 24  2  0
 24 25  1  0
 25 26  1  0
 26 27  1  0
 27 28  2  0
 28 29  1  0
 29 30  2  0
 30 31  1  0
 31 32  2  0
  5 33  1  0
 33 34  2  0
 34  3  1  0
 24  9  1  0
 32 27  1  0
 20 14  1  0
 32 23  1  0
  1 35  1  0
  1 36  1  0
  1 37  1  0
  2 38  1  0
  2 39  1  0
  4 40  1  0
 13 41  1  0
 14 42  1  6
 15 43  1  0
 15 44  1  0
 16 45  1  0
 16 46  1  0
 19 47  1  0
 25 48  1  0
 25 49  1  0
 26 50  1  0
 26 51  1  0
 28 52  1  0
 29 53  1  0
 30 54  1  0
 31 55  1  0
 33 56  1  0
M  END
>  <meeko>  (949) 
{"is_sidechain": [true], "free_energy": -10.37, "intermolecular_energy": 0.0, "internal_energy": -10.37, "cluster_size": 8, "cluster_id": 1, "rank_in_cluster": 1}

>  <_RMSD_MCS_to_ref>  (949) 
0.8312189843837782

$$$$
ligand
     RDKit          3D

 47 50  0  0  0  0  0  0  0  0999 V2000
   18.7970   18.8170    7.7190 C   0  0  0  0  0  0  0  0  0  0  0  0
   18.5280   17.3290    7.8810 C   0  0  0  0  0  0  0  0  0  0  0  0
   19.7850   16.5370    7.9720 C   0  0  0  0  0  0  0  0  0  0  0  0
   20.2470   15.7550    9.0120 C   0  0  0  0  0  0  0  0  0  0  0  0
   21.4350   15.2590    8.5550 N   0  0  0  0  0  0  0  0  0  0  0  0
   22.5460   14.3960    9.4880 S   0  0  0  0  0  6  0  0  0  0  0  0
   23.6950   15.2740    9.6180 O   0  0  0  0  0  0  0  0  0  0  0  0
   22.6680   13.1320    8.7820 O   0  0  0  0  0  0  0  0  0  0  0  0
   21.8160   14.1330   11.0340 C   0  0  0  0  0  0  0  0  0  0  0  0
   20.8510   13.2010   11.1250 C   0  0  0  0  0  0  0  0  0  0  0  0
   20.2470   13.0430   12.4700 C   0  0  0  0  0  0  0  0  0  0  0  0
   20.5550   13.7200   13.5290 N   0  0  0  0  0  0  0  0  0  0  0  0
   21.5400   14.6520   13.3920 C   0  0  0  0  0  0  0  0  0  0  0  0
   22.0170   15.4640   14.3100 N   0  0  0  0  0  0  0  0  0  0  0  0
   23.0140   16.1950   13.6990 C   0  0  0  0  0  0  0  0  0  0  0  0
   23.8070   17.2040   14.3950 C   0  0  0  0  0  0  0  0  0  0  0  0
   23.3110   18.1450   15.0060 O   0  0  0  0  0  0  0  0  0  0  0  0
   25.1590   16.9830   14.3020 N   0  0  0  0  0  0  0  0  0  0  0  0
   26.1280   17.7740   15.0340 C   0  0  2  0  0  0  0  0  0  0  0  0
   25.8670   17.7440   16.5370 C   0  0  0  0  0  0  0  0  0  0  0  0
   26.9010   18.6000   17.2510 C   0  0  0  0  0  0  0  0  0  0  0  0
   26.9110   20.0110   16.7120 C   0  0  0  0  0  0  0  0  0  0  0  0
   27.1690   20.9830   17.4160 O   0  0  0  0  0  0  0  0  0  0  0  0
   26.6500   20.1600   15.3730 N   0  0  0  0  0  0  0  0  0  0  0  0
   26.0790   19.2250   14.5440 C   0  0  0  0  0  0  0  0  0  0  0  0
   25.5870   19.5580   13.4670 O   0  0  0  0  0  0  0  0  0  0  0  0
   23.1310   15.8210   12.3760 C   0  0  0  0  0  0  0  0  0  0  0  0
   22.1820   14.8530   12.1660 N   0  0  0  0  0  0  0  0  0  0  0  0
   21.6730   15.7450    7.3110 C   0  0  0  0  0  0  0  0  0  0  0  0
   20.6870   16.5280    6.9280 N   0  0  0  0  0  0  0  0  0  0  0  0
   18.8815   19.2845    8.7111 H   0  0  0  0  0  0  0  0  0  0  0  0
   19.7359   18.9616    7.1643 H   0  0  0  0  0  0  0  0  0  0  0  0
   17.9682   19.2812    7.1643 H   0  0  0  0  0  0  0  0  0  0  0  0
   17.9435   17.1726    8.7996 H   0  0  0  0  0  0  0  0  0  0  0  0
   17.9768   16.9868    6.9927 H   0  0  0  0  0  0  0  0  0  0  0  0
   19.7682   15.5731    9.9855 H   0  0  0  0  0  0  0  0  0  0  0  0
   20.5320   12.5980   10.2621 H   0  0  0  0  0  0  0  0  0  0  0  0
   19.4635   12.2785   12.5777 H   0  0  0  0  0  0  0  0  0  0  0  0
   25.4970   16.2271   13.6894 H   0  0  0  0  0  0  0  0  0  0  0  0
   27.1217   17.3391   14.8514 H   0  0  0  0  0  0  0  0  0  0  0  0
   24.8607   18.1383   16.7418 H   0  0  0  0  0  0  0  0  0  0  0  0
   25.9371   16.7078   16.8995 H   0  0  0  0  0  0  0  0  0  0  0  0
   26.6634   18.6281   18.3247 H   0  0  0  0  0  0  0  0  0  0  0  0
   27.8940   18.1571   17.0840 H   0  0  0  0  0  0  0  0  0  0  0  0
   26.9076   21.0619   14.9475 H   0  0  0  0  0  0  0  0  0  0  0  0
   23.8426   16.2192   11.6377 H   0  0  0  0  0  0  0  0  0  0  0  0
   22.5641   15.5169    6.7077 H   0  0  0  0  0  0  0  0  0  0  0  0
  1  2  1  0
  2  3  1  0
  3  4  2  0
  4  5  1  0
  5  6  1  0
  6  7  2  0
  6  8  2  0
  6  9  1  0
  9 10  2  0
 10 11  1  0
 11 12  2  0
 12 13  1  0
 13 14  2  0
 14 15  1  0
 15 16  1  0
 16 17  2  0
 16 18  1  0
 18 19  1  0
 19 20  1  0
 20 21  1  0
 21 22  1  0
 22 23  2  0
 22 24  1  0
 24 25  1  0
 25 26  2  0
 15 27  2  0
 27 28  1  0
  5 29  1  0
 29 30  2  0
 30  3  1  0
 28  9  1  0
 28 13  1  0
 25 19  1  0
  1 31  1  0
  1 32  1  0
  1 33  1  0
  2 34  1  0
  2 35  1  0
  4 36  1  0
 10 37  1  0
 11 38  1  0
 18 39  1  0
 19 40  1  1
 20 41  1  0
 20 42  1  0
 21 43  1  0
 21 44  1  0
 24 45  1  0
 27 46  1  0
 29 47  1  0
M  END
>  <meeko>  (950) 
{"is_sidechain": [true], "free_energy": -10.37, "intermolecular_energy": 0.0, "internal_energy": -10.37, "cluster_size": 6, "cluster_id": 1, "rank_in_cluster": 1}

>  <_RMSD_MCS_to_ref>  (950) 
0.7195249976353993

$$$$
ligand
     RDKit          3D

 47 50  0  0  0  0  0  0  0  0999 V2000
   18.7970   18.8170    7.7190 C   0  0  0  0  0  0  0  0  0  0  0  0
   18.5280   17.3290    7.8810 C   0  0  0  0  0  0  0  0  0  0  0  0
   19.7550   16.5110    7.6700 C   0  0  0  0  0  0  0  0  0  0  0  0
   20.4230   15.7000    8.5660 C   0  0  0  0  0  0  0  0  0  0  0  0
   21.4550   15.1780    7.8400 N   0  0  0  0  0  0  0  0  0  0  0  0
   22.7820   14.3570    8.4860 S   0  0  0  0  0  6  0  0  0  0  0  0
   23.9080   14.8060    7.6890 O   0  0  0  0  0  0  0  0  0  0  0  0
   22.3740   12.9630    8.4770 O   0  0  0  0  0  0  0  0  0  0  0  0
   22.9560   14.9170   10.0950 C   0  0  0  0  0  0  0  0  0  0  0  0
   24.0050   15.8950   10.4640 C   0  0  0  0  0  0  0  0  0  0  0  0
   24.1880   16.3970   11.6530 N   0  0  0  0  0  0  0  0  0  0  0  0
   23.3330   15.9520   12.6310 C   0  0  0  0  0  0  0  0  0  0  0  0
   23.2410   16.2460   13.9800 C   0  0  0  0  0  0  0  0  0  0  0  0
   24.0580   17.1450   14.7700 C   0  0  0  0  0  0  0  0  0  0  0  0
   23.6360   17.6800   15.7890 O   0  0  0  0  0  0  0  0  0  0  0  0
   25.3300   17.3480   14.2980 N   0  0  0  0  0  0  0  0  0  0  0  0
   26.3220   18.1070   15.0370 C   0  0  2  0  0  0  0  0  0  0  0  0
   26.2210   17.8660   16.5390 C   0  0  0  0  0  0  0  0  0  0  0  0
   27.2700   18.7000   17.2600 C   0  0  0  0  0  0  0  0  0  0  0  0
   27.1360   20.1640   16.9170 C   0  0  0  0  0  0  0  0  0  0  0  0
   27.3910   21.0550   17.7220 O   0  0  0  0  0  0  0  0  0  0  0  0
   26.7420   20.4610   15.6360 N   0  0  0  0  0  0  0  0  0  0  0  0
   26.1280   19.6020   14.7580 C   0  0  0  0  0  0  0  0  0  0  0  0
   25.4830   20.0320   13.8030 O   0  0  0  0  0  0  0  0  0  0  0  0
   22.1600   15.4620   14.4320 C   0  0  0  0  0  0  0  0  0  0  0  0
   21.6000   14.7290   13.4690 N   0  0  0  0  0  0  0  0  0  0  0  0
   22.3230   15.0190   12.3660 N   0  0  0  0  0  0  0  0  0  0  0  0
   22.1480   14.5120   11.0840 C   0  0  0  0  0  0  0  0  0  0  0  0
   21.4280   15.7030    6.5880 C   0  0  0  0  0  0  0  0  0  0  0  0
   20.4000   16.5120    6.4500 N   0  0  0  0  0  0  0  0  0  0  0  0
   18.8815   19.2845    8.7111 H   0  0  0  0  0  0  0  0  0  0  0  0
   19.7359   18.9616    7.1643 H   0  0  0  0  0  0  0  0  0  0  0  0
   17.9682   19.2812    7.1643 H   0  0  0  0  0  0  0  0  0  0  0  0
   18.1500   17.1456    8.8976 H   0  0  0  0  0  0  0  0  0  0  0  0
   17.7895   17.0338    7.1211 H   0  0  0  0  0  0  0  0  0  0  0  0
   20.1795   15.5164    9.6229 H   0  0  0  0  0  0  0  0  0  0  0  0
   24.6875   16.2258    9.6673 H   0  0  0  0  0  0  0  0  0  0  0  0
   25.5905   16.9471   13.3857 H   0  0  0  0  0  0  0  0  0  0  0  0
   27.3158   17.7735   14.7036 H   0  0  0  0  0  0  0  0  0  0  0  0
   25.2191   18.1544   16.8898 H   0  0  0  0  0  0  0  0  0  0  0  0
   26.3918   16.8002   16.7509 H   0  0  0  0  0  0  0  0  0  0  0  0
   27.1449   18.5732   18.3455 H   0  0  0  0  0  0  0  0  0  0  0  0
   28.2656   18.3579   16.9410 H   0  0  0  0  0  0  0  0  0  0  0  0
   26.9240   21.4182   15.3020 H   0  0  0  0  0  0  0  0  0  0  0  0
   21.8128   15.4556   15.4758 H   0  0  0  0  0  0  0  0  0  0  0  0
   21.3503   13.7820   10.8823 H   0  0  0  0  0  0  0  0  0  0  0  0
   22.1628   15.4827    5.7996 H   0  0  0  0  0  0  0  0  0  0  0  0
  1  2  1  0
  2  3  1  0
  3  4  2  0
  4  5  1  0
  5  6  1  0
  6  7  2  0
  6  8  2  0
  6  9  1  0
  9 10  1  0
 10 11  2  0
 11 12  1  0
 12 13  2  0
 13 14  1  0
 14 15  2  0
 14 16  1  0
 16 17  1  0
 17 18  1  0
 18 19  1  0
 19 20  1  0
 20 21  2  0
 20 22  1  0
 22 23  1  0
 23 24  2  0
 13 25  1  0
 25 26  2  0
 26 27  1  0
 27 28  1  0
  5 29  1  0
 29 30  2  0
 30  3  1  0
 28  9  2  0
 27 12  1  0
 23 17  1  0
  1 31  1  0
  1 32  1  0
  1 33  1  0
  2 34  1  0
  2 35  1  0
  4 36  1  0
 10 37  1  0
 16 38  1  0
 17 39  1  6
 18 40  1  0
 18 41  1  0
 19 42  1  0
 19 43  1  0
 22 44  1  0
 25 45  1  0
 28 46  1  0
 29 47  1  0
M  END
>  <meeko>  (951) 
{"is_sidechain": [true], "free_energy": -10.37, "intermolecular_energy": 0.0, "internal_energy": -10.37, "cluster_size": 19, "cluster_id": 1, "rank_in_cluster": 1}

>  <_RMSD_MCS_to_ref>  (951) 
0.7764342284515223

$$$$
ligand
     RDKit          3D

 48 51  0  0  0  0  0  0  0  0999 V2000
   18.9090   19.1540    7.5370 C   0  0  0  0  0  0  0  0  0  0  0  0
   18.7730   17.6460    7.6780 C   0  0  0  0  0  0  0  0  0  0  0  0
   20.0620   16.9410    7.4410 C   0  0  0  0  0  0  0  0  0  0  0  0
   20.8210   16.1980    8.3240 C   0  0  0  0  0  0  0  0  0  0  0  0
   21.9000   15.8020    7.5850 N   0  0  0  0  0  0  0  0  0  0  0  0
   23.1340   14.7970    8.1170 S   0  0  0  0  0  6  0  0  0  0  0  0
   22.5530   13.4840    8.3100 O   0  0  0  0  0  0  0  0  0  0  0  0
   24.2230   15.0300    7.1850 O   0  0  0  0  0  0  0  0  0  0  0  0
   23.6330   15.4140    9.6880 C   0  0  0  0  0  0  0  0  0  0  0  0
   22.8100   15.1930   10.8040 C   0  0  0  0  0  0  0  0  0  0  0  0
   23.1720   15.6620   12.0690 C   0  0  0  0  0  0  0  0  0  0  0  0
   24.3770   16.3670   12.2680 C   0  0  0  0  0  0  0  0  0  0  0  0
   24.7690   16.8710   13.6100 C   0  0  0  0  0  0  0  0  0  0  0  0
   24.7740   16.1300   14.5850 O   0  0  0  0  0  0  0  0  0  0  0  0
   25.0900   18.2090   13.6910 N   0  0  0  0  0  0  0  0  0  0  0  0
   25.3380   18.8450   14.9790 C   0  0  1  0  0  0  0  0  0  0  0  0
   26.4220   18.1310   15.7770 C   0  0  0  0  0  0  0  0  0  0  0  0
   26.6580   18.8710   17.0850 C   0  0  0  0  0  0  0  0  0  0  0  0
   27.0040   20.3220   16.8380 C   0  0  0  0  0  0  0  0  0  0  0  0
   27.7790   20.9470   17.5560 O   0  0  0  0  0  0  0  0  0  0  0  0
   26.3810   20.9310   15.7780 N   0  0  0  0  0  0  0  0  0  0  0  0
   25.7760   20.2910   14.7250 C   0  0  0  0  0  0  0  0  0  0  0  0
   25.5920   20.8620   13.6500 O   0  0  0  0  0  0  0  0  0  0  0  0
   25.2060   16.6180   11.1510 C   0  0  0  0  0  0  0  0  0  0  0  0
   26.4480   17.2750   10.9160 C   0  0  0  0  0  0  0  0  0  0  0  0
   26.7130   17.1560    9.5730 C   0  0  0  0  0  0  0  0  0  0  0  0
   25.7220   16.4660    8.9570 O   0  0  0  0  0  0  0  0  0  0  0  0
   24.8050   16.1320    9.9070 C   0  0  0  0  0  0  0  0  0  0  0  0
   21.7700   16.2720    6.3180 C   0  0  0  0  0  0  0  0  0  0  0  0
   20.6630   16.9750    6.1980 N   0  0  0  0  0  0  0  0  0  0  0  0
   18.9504   19.6134    8.5356 H   0  0  0  0  0  0  0  0  0  0  0  0
   19.8320   19.3891    6.9867 H   0  0  0  0  0  0  0  0  0  0  0  0
   18.0430   19.5504    6.9867 H   0  0  0  0  0  0  0  0  0  0  0  0
   18.4249   17.4153    8.6956 H   0  0  0  0  0  0  0  0  0  0  0  0
   18.0542   17.2994    6.9209 H   0  0  0  0  0  0  0  0  0  0  0  0
   20.6062   15.9760    9.3797 H   0  0  0  0  0  0  0  0  0  0  0  0
   21.8659   14.6422   10.6802 H   0  0  0  0  0  0  0  0  0  0  0  0
   22.5056   15.4782   12.9247 H   0  0  0  0  0  0  0  0  0  0  0  0
   25.1556   18.7679   12.8283 H   0  0  0  0  0  0  0  0  0  0  0  0
   24.4103   18.8014   15.5685 H   0  0  0  0  0  0  0  0  0  0  0  0
   26.1014   17.1007   15.9911 H   0  0  0  0  0  0  0  0  0  0  0  0
   27.3542   18.1107   15.1934 H   0  0  0  0  0  0  0  0  0  0  0  0
   25.7450   18.8190   17.6964 H   0  0  0  0  0  0  0  0  0  0  0  0
   27.5019   18.3958   17.6065 H   0  0  0  0  0  0  0  0  0  0  0  0
   26.3659   21.9609   15.7718 H   0  0  0  0  0  0  0  0  0  0  0  0
   27.0745   17.7805   11.6657 H   0  0  0  0  0  0  0  0  0  0  0  0
   27.6025   17.5626    9.0695 H   0  0  0  0  0  0  0  0  0  0  0  0
   22.4888   16.0909    5.5053 H   0  0  0  0  0  0  0  0  0  0  0  0
  1  2  1  0
  2  3  1  0
  3  4  2  0
  4  5  1  0
  5  6  1  0
  6  7  2  0
  6  8  2  0
  6  9  1  0
  9 10  2  0
 10 11  1  0
 11 12  2  0
 12 13  1  0
 13 14  2  0
 13 15  1  0
 15 16  1  0
 16 17  1  0
 17 18  1  0
 18 19  1  0
 19 20  2  0
 19 21  1  0
 21 22  1  0
 22 23  2  0
 12 24  1  0
 24 25  1  0
 25 26  2  0
 26 27  1  0
 27 28  1  0
  5 29  1  0
 29 30  2  0
 30  3  1  0
 28  9  1  0
 22 16  1  0
 28 24  2  0
  1 31  1  0
  1 32  1  0
  1 33  1  0
  2 34  1  0
  2 35  1  0
  4 36  1  0
 10 37  1  0
 11 38  1  0
 15 39  1  0
 16 40  1  1
 17 41  1  0
 17 42  1  0
 18 43  1  0
 18 44  1  0
 21 45  1  0
 25 46  1  0
 26 47  1  0
 29 48  1  0
M  END
>  <meeko>  (952) 
{"is_sidechain": [true], "free_energy": -10.37, "intermolecular_energy": 0.0, "internal_energy": -10.37, "cluster_size": 16, "cluster_id": 1, "rank_in_cluster": 1}

>  <_RMSD_MCS_to_ref>  (952) 
0.7955486576361415

$$$$
ligand
     RDKit          3D

 43 45  0  0  0  0  0  0  0  0999 V2000
   18.9090   19.1540    7.5370 C   0  0  0  0  0  0  0  0  0  0  0  0
   18.7730   17.6460    7.6780 C   0  0  0  0  0  0  0  0  0  0  0  0
   20.0830   16.9490    7.5550 C   0  0  0  0  0  0  0  0  0  0  0  0
   21.0850   16.8120    8.4940 C   0  0  0  0  0  0  0  0  0  0  0  0
   22.0610   16.1140    7.8420 N   0  0  0  0  0  0  0  0  0  0  0  0
   23.4310   15.4570    8.5490 S   0  0  0  0  0  6  0  0  0  0  0  0
   23.4680   14.0610    8.1690 O   0  0  0  0  0  0  0  0  0  0  0  0
   24.5140   16.3850    8.2950 O   0  0  0  0  0  0  0  0  0  0  0  0
   23.2230   15.4670   10.3060 C   0  0  0  0  0  0  0  0  0  0  0  0
   22.2050   15.0510   11.1430 C   0  0  0  0  0  0  0  0  0  0  0  0
   22.5990   15.3180   12.4780 C   0  0  0  0  0  0  0  0  0  0  0  0
   23.8580   15.8930   12.4460 C   0  0  0  0  0  0  0  0  0  0  0  0
   24.7430   16.3660   13.4870 C   0  0  0  0  0  0  0  0  0  0  0  0
   25.2710   15.6050   14.2920 O   0  0  0  0  0  0  0  0  0  0  0  0
   24.9640   17.7200   13.5080 N   0  0  0  0  0  0  0  0  0  0  0  0
   25.9380   18.3240   14.4020 C   0  0  2  0  0  0  0  0  0  0  0  0
   25.6850   17.9670   15.8620 C   0  0  0  0  0  0  0  0  0  0  0  0
   26.7140   18.6620   16.7410 C   0  0  0  0  0  0  0  0  0  0  0  0
   26.7100   20.1550   16.5160 C   0  0  0  0  0  0  0  0  0  0  0  0
   26.9410   20.9580   17.4150 O   0  0  0  0  0  0  0  0  0  0  0  0
   26.4610   20.5830   15.2360 N   0  0  0  0  0  0  0  0  0  0  0  0
   25.8680   19.8450   14.2420 C   0  0  0  0  0  0  0  0  0  0  0  0
   25.3240   20.3890   13.2810 O   0  0  0  0  0  0  0  0  0  0  0  0
   24.2190   15.9610   11.1180 N   0  0  0  0  0  0  0  0  0  0  0  0
   21.6250   15.7970    6.5970 C   0  0  0  0  0  0  0  0  0  0  0  0
   20.4290   16.3060    6.3830 N   0  0  0  0  0  0  0  0  0  0  0  0
   18.9504   19.6134    8.5356 H   0  0  0  0  0  0  0  0  0  0  0  0
   19.8320   19.3891    6.9867 H   0  0  0  0  0  0  0  0  0  0  0  0
   18.0430   19.5504    6.9867 H   0  0  0  0  0  0  0  0  0  0  0  0
   18.3427   17.4199    8.6648 H   0  0  0  0  0  0  0  0  0  0  0  0
   18.1227   17.2883    6.8661 H   0  0  0  0  0  0  0  0  0  0  0  0
   21.0952   17.1806    9.5303 H   0  0  0  0  0  0  0  0  0  0  0  0
   21.2556   14.5931   10.8283 H   0  0  0  0  0  0  0  0  0  0  0  0
   22.0081   15.1056   13.3812 H   0  0  0  0  0  0  0  0  0  0  0  0
   24.4247   18.3252   12.8726 H   0  0  0  0  0  0  0  0  0  0  0  0
   26.9319   17.9366   14.1334 H   0  0  0  0  0  0  0  0  0  0  0  0
   24.6754   18.2955   16.1499 H   0  0  0  0  0  0  0  0  0  0  0  0
   25.7680   16.8779   15.9923 H   0  0  0  0  0  0  0  0  0  0  0  0
   26.4798   18.4582   17.7963 H   0  0  0  0  0  0  0  0  0  0  0  0
   27.7103   18.2747   16.4813 H   0  0  0  0  0  0  0  0  0  0  0  0
   26.7446   21.5446   14.9999 H   0  0  0  0  0  0  0  0  0  0  0  0
   25.1170   16.3329   10.7772 H   0  0  0  0  0  0  0  0  0  0  0  0
   22.1911   15.1985    5.8681 H   0  0  0  0  0  0  0  0  0  0  0  0
  1  2  1  0
  2  3  1  0
  3  4  2  0
  4  5  1  0
  5  6  1  0
  6  7  2  0
  6  8  2  0
  6  9  1  0
  9 10  2  0
 10 11  1  0
 11 12  2  0
 12 13  1  0
 13 14  2  0
 13 15  1  0
 15 16  1  0
 16 17  1  0
 17 18  1  0
 18 19  1  0
 19 20  2  0
 19 21  1  0
 21 22  1  0
 22 23  2  0
 12 24  1  0
  5 25  1  0
 25 26  2  0
 26  3  1  0
 24  9  1  0
 22 16  1  0
  1 27  1  0
  1 28  1  0
  1 29  1  0
  2 30  1  0
  2 31  1  0
  4 32  1  0
 10 33  1  0
 11 34  1  0
 15 35  1  0
 16 36  1  6
 17 37  1  0
 17 38  1  0
 18 39  1  0
 18 40  1  0
 21 41  1  0
 24 42  1  0
 25 43  1  0
M  END
>  <meeko>  (953) 
{"is_sidechain": [true], "free_energy": -10.37, "intermolecular_energy": 0.0, "internal_energy": -10.37, "cluster_size": 20, "cluster_id": 1, "rank_in_cluster": 1}

>  <_RMSD_MCS_to_ref>  (953) 
0.624938574759329

$$$$
ligand
     RDKit          3D

 47 50  0  0  0  0  0  0  0  0999 V2000
   18.9090   19.1540    7.5370 C   0  0  0  0  0  0  0  0  0  0  0  0
   18.7730   17.6460    7.6780 C   0  0  0  0  0  0  0  0  0  0  0  0
   20.0620   16.9410    7.4480 C   0  0  0  0  0  0  0  0  0  0  0  0
   20.6690   15.9630    8.2120 C   0  0  0  0  0  0  0  0  0  0  0  0
   21.8350   15.7000    7.5510 N   0  0  0  0  0  0  0  0  0  0  0  0
   22.9430   14.5010    7.9790 S   0  0  0  0  0  6  0  0  0  0  0  0
   23.4900   14.0850    6.6960 O   0  0  0  0  0  0  0  0  0  0  0  0
   22.1950   13.5540    8.7840 O   0  0  0  0  0  0  0  0  0  0  0  0
   24.1880   15.2200    8.9250 C   0  0  0  0  0  0  0  0  0  0  0  0
   25.3180   15.6590    8.3340 C   0  0  0  0  0  0  0  0  0  0  0  0
   26.3590   16.2530    9.1570 C   0  0  0  0  0  0  0  0  0  0  0  0
   26.2210   16.3670   10.4910 C   0  0  0  0  0  0  0  0  0  0  0  0
   25.0300   15.8970   11.1110 C   0  0  0  0  0  0  0  0  0  0  0  0
   24.5270   15.8360   12.3950 C   0  0  0  0  0  0  0  0  0  0  0  0
   25.1480   16.2880   13.6300 C   0  0  0  0  0  0  0  0  0  0  0  0
   25.2900   15.5690   14.6140 O   0  0  0  0  0  0  0  0  0  0  0  0
   25.5730   17.5950   13.5950 N   0  0  0  0  0  0  0  0  0  0  0  0
   26.3340   18.1920   14.6790 C   0  0  2  0  0  0  0  0  0  0  0  0
   25.6660   17.9730   16.0330 C   0  0  0  0  0  0  0  0  0  0  0  0
   26.4940   18.6380   17.1210 C   0  0  0  0  0  0  0  0  0  0  0  0
   26.7080   20.1050   16.8300 C   0  0  0  0  0  0  0  0  0  0  0  0
   26.7960   20.9470   17.7200 O   0  0  0  0  0  0  0  0  0  0  0  0
   26.8370   20.4570   15.5110 N   0  0  0  0  0  0  0  0  0  0  0  0
   26.4730   19.6970   14.4270 C   0  0  0  0  0  0  0  0  0  0  0  0
   26.2900   20.2090   13.3240 O   0  0  0  0  0  0  0  0  0  0  0  0
   23.2840   15.2560   12.3510 N   0  0  0  0  0  0  0  0  0  0  0  0
   23.0030   14.9540   11.0920 N   0  0  0  0  0  0  0  0  0  0  0  0
   24.0400   15.3270   10.3020 N   0  0  0  0  0  0  0  0  0  0  0  0
   21.8940   16.4550    6.4260 C   0  0  0  0  0  0  0  0  0  0  0  0
   20.8340   17.2340    6.3410 N   0  0  0  0  0  0  0  0  0  0  0  0
   18.9504   19.6134    8.5356 H   0  0  0  0  0  0  0  0  0  0  0  0
   19.8320   19.3891    6.9867 H   0  0  0  0  0  0  0  0  0  0  0  0
   18.0430   19.5504    6.9867 H   0  0  0  0  0  0  0  0  0  0  0  0
   18.4199   17.4158    8.6940 H   0  0  0  0  0  0  0  0  0  0  0  0
   18.0583   17.2991    6.9171 H   0  0  0  0  0  0  0  0  0  0  0  0
   20.2984   15.5020    9.1395 H   0  0  0  0  0  0  0  0  0  0  0  0
   25.4501   15.5690    7.2457 H   0  0  0  0  0  0  0  0  0  0  0  0
   27.2801   16.6174    8.6787 H   0  0  0  0  0  0  0  0  0  0  0  0
   27.0210   16.8190   11.0957 H   0  0  0  0  0  0  0  0  0  0  0  0
   25.3440   18.1706   12.7721 H   0  0  0  0  0  0  0  0  0  0  0  0
   27.3211   17.7073   14.7052 H   0  0  0  0  0  0  0  0  0  0  0  0
   24.6577   18.4124   16.0196 H   0  0  0  0  0  0  0  0  0  0  0  0
   25.5936   16.8942   16.2356 H   0  0  0  0  0  0  0  0  0  0  0  0
   25.9696   18.5364   18.0826 H   0  0  0  0  0  0  0  0  0  0  0  0
   27.4766   18.1451   17.1590 H   0  0  0  0  0  0  0  0  0  0  0  0
   27.2468   21.3813   15.3143 H   0  0  0  0  0  0  0  0  0  0  0  0
   22.7102   16.4220    5.6893 H   0  0  0  0  0  0  0  0  0  0  0  0
  1  2  1  0
  2  3  1  0
  3  4  2  0
  4  5  1  0
  5  6  1  0
  6  7  2  0
  6  8  2  0
  6  9  1  0
  9 10  2  0
 10 11  1  0
 11 12  2  0
 12 13  1  0
 13 14  2  0
 14 15  1  0
 15 16  2  0
 15 17  1  0
 17 18  1  0
 18 19  1  0
 19 20  1  0
 20 21  1  0
 21 22  2  0
 21 23  1  0
 23 24  1  0
 24 25  2  0
 14 26  1  0
 26 27  2  0
 27 28  1  0
  5 29  1  0
 29 30  2  0
 30  3  1  0
 28  9  1  0
 28 13  1  0
 24 18  1  0
  1 31  1  0
  1 32  1  0
  1 33  1  0
  2 34  1  0
  2 35  1  0
  4 36  1  0
 10 37  1  0
 11 38  1  0
 12 39  1  0
 17 40  1  0
 18 41  1  1
 19 42  1  0
 19 43  1  0
 20 44  1  0
 20 45  1  0
 23 46  1  0
 29 47  1  0
M  END
>  <meeko>  (954) 
{"is_sidechain": [true], "free_energy": -10.37, "intermolecular_energy": 0.0, "internal_energy": -10.37, "cluster_size": 18, "cluster_id": 1, "rank_in_cluster": 1}

>  <_RMSD_MCS_to_ref>  (954) 
1.0283035111829142

$$$$
ligand
     RDKit          3D

 47 50  0  0  0  0  0  0  0  0999 V2000
   18.9090   19.1540    7.5370 C   0  0  0  0  0  0  0  0  0  0  0  0
   18.7730   17.6460    7.6780 C   0  0  0  0  0  0  0  0  0  0  0  0
   19.9120   16.9200    7.0540 C   0  0  0  0  0  0  0  0  0  0  0  0
   20.8560   16.1110    7.6540 C   0  0  0  0  0  0  0  0  0  0  0  0
   21.6420   15.6900    6.6220 N   0  0  0  0  0  0  0  0  0  0  0  0
   22.8660   14.5480    6.6910 S   0  0  0  0  0  6  0  0  0  0  0  0
   22.3080   13.4390    7.4440 O   0  0  0  0  0  0  0  0  0  0  0  0
   23.3750   14.4010    5.3400 O   0  0  0  0  0  0  0  0  0  0  0  0
   24.1870   15.1550    7.6290 C   0  0  0  0  0  0  0  0  0  0  0  0
   25.4460   15.3240    7.1690 N   0  0  0  0  0  0  0  0  0  0  0  0
   26.1060   15.8260    8.2270 N   0  0  0  0  0  0  0  0  0  0  0  0
   25.3330   15.9790    9.3470 C   0  0  0  0  0  0  0  0  0  0  0  0
   25.6120   16.4450   10.6340 C   0  0  0  0  0  0  0  0  0  0  0  0
   24.5300   16.4510   11.5240 C   0  0  0  0  0  0  0  0  0  0  0  0
   24.6430   16.9060   12.9320 C   0  0  0  0  0  0  0  0  0  0  0  0
   24.0810   16.2860   13.8260 O   0  0  0  0  0  0  0  0  0  0  0  0
   25.3730   18.0510   13.1650 N   0  0  0  0  0  0  0  0  0  0  0  0
   25.4130   18.6610   14.4890 C   0  0  1  0  0  0  0  0  0  0  0  0
   26.3320   17.9120   15.4470 C   0  0  0  0  0  0  0  0  0  0  0  0
   26.3630   18.6330   16.7860 C   0  0  0  0  0  0  0  0  0  0  0  0
   26.7760   20.0780   16.6210 C   0  0  0  0  0  0  0  0  0  0  0  0
   27.4450   20.6720   17.4610 O   0  0  0  0  0  0  0  0  0  0  0  0
   26.3430   20.7150   15.4860 N   0  0  0  0  0  0  0  0  0  0  0  0
   25.9220   20.0980   14.3350 C   0  0  0  0  0  0  0  0  0  0  0  0
   25.9470   20.6790   13.2500 O   0  0  0  0  0  0  0  0  0  0  0  0
   23.2930   15.9860   11.0810 C   0  0  0  0  0  0  0  0  0  0  0  0
   23.0150   15.5370    9.8320 N   0  0  0  0  0  0  0  0  0  0  0  0
   24.0650   15.5450    8.9780 C   0  0  0  0  0  0  0  0  0  0  0  0
   21.1750   16.2220    5.4620 C   0  0  0  0  0  0  0  0  0  0  0  0
   20.1260   16.9830    5.6900 N   0  0  0  0  0  0  0  0  0  0  0  0
   18.9504   19.6134    8.5356 H   0  0  0  0  0  0  0  0  0  0  0  0
   19.8320   19.3891    6.9867 H   0  0  0  0  0  0  0  0  0  0  0  0
   18.0430   19.5504    6.9867 H   0  0  0  0  0  0  0  0  0  0  0  0
   18.7338   17.3920    8.7475 H   0  0  0  0  0  0  0  0  0  0  0  0
   17.8519   17.3394    7.1607 H   0  0  0  0  0  0  0  0  0  0  0  0
   20.9523   15.8625    8.7212 H   0  0  0  0  0  0  0  0  0  0  0  0
   27.1053   16.0738    8.1978 H   0  0  0  0  0  0  0  0  0  0  0  0
   26.6156   16.7850   10.9294 H   0  0  0  0  0  0  0  0  0  0  0  0
   25.8988   18.4830   12.3918 H   0  0  0  0  0  0  0  0  0  0  0  0
   24.3987   18.6295   14.9135 H   0  0  0  0  0  0  0  0  0  0  0  0
   25.9565   16.8880   15.5903 H   0  0  0  0  0  0  0  0  0  0  0  0
   27.3479   17.8740   15.0269 H   0  0  0  0  0  0  0  0  0  0  0  0
   25.3602   18.5959   17.2365 H   0  0  0  0  0  0  0  0  0  0  0  0
   27.0985   18.1329   17.4333 H   0  0  0  0  0  0  0  0  0  0  0  0
   26.3330   21.7449   15.4988 H   0  0  0  0  0  0  0  0  0  0  0  0
   22.4688   15.9830   11.8095 H   0  0  0  0  0  0  0  0  0  0  0  0
   21.6134   16.0414    4.4694 H   0  0  0  0  0  0  0  0  0  0  0  0
  1  2  1  0
  2  3  1  0
  3  4  2  0
  4  5  1  0
  5  6  1  0
  6  7  2  0
  6  8  2  0
  6  9  1  0
  9 10  2  0
 10 11  1  0
 11 12  1  0
 12 13  2  0
 13 14  1  0
 14 15  1  0
 15 16  2  0
 15 17  1  0
 17 18  1  0
 18 19  1  0
 19 20  1  0
 20 21  1  0
 21 22  2  0
 21 23  1  0
 23 24  1  0
 24 25  2  0
 14 26  2  0
 26 27  1  0
 27 28  2  0
  5 29  1  0
 29 30  2  0
 30  3  1  0
 28  9  1  0
 28 12  1  0
 24 18  1  0
  1 31  1  0
  1 32  1  0
  1 33  1  0
  2 34  1  0
  2 35  1  0
  4 36  1  0
 11 37  1  0
 13 38  1  0
 17 39  1  0
 18 40  1  1
 19 41  1  0
 19 42  1  0
 20 43  1  0
 20 44  1  0
 23 45  1  0
 26 46  1  0
 29 47  1  0
M  END
>  <meeko>  (955) 
{"is_sidechain": [true], "free_energy": -10.37, "intermolecular_energy": 0.0, "internal_energy": -10.37, "cluster_size": 20, "cluster_id": 1, "rank_in_cluster": 1}

>  <_RMSD_MCS_to_ref>  (955) 
0.7302897446295619

$$$$
ligand
     RDKit          3D

 47 50  0  0  0  0  0  0  0  0999 V2000
   18.9090   19.1540    7.5370 C   0  0  0  0  0  0  0  0  0  0  0  0
   18.7730   17.6460    7.6780 C   0  0  0  0  0  0  0  0  0  0  0  0
   20.0890   16.9540    7.6120 C   0  0  0  0  0  0  0  0  0  0  0  0
   21.0660   16.8570    8.5820 C   0  0  0  0  0  0  0  0  0  0  0  0
   22.0650   16.1360    7.9880 N   0  0  0  0  0  0  0  0  0  0  0  0
   23.3770   15.4280    8.7810 S   0  0  0  0  0  6  0  0  0  0  0  0
   24.4060   16.4550    8.7730 O   0  0  0  0  0  0  0  0  0  0  0  0
   23.5440   14.1400    8.1320 O   0  0  0  0  0  0  0  0  0  0  0  0
   22.7590   15.1960   10.4370 C   0  0  0  0  0  0  0  0  0  0  0  0
   23.5310   15.7140   11.4130 N   0  0  0  0  0  0  0  0  0  0  0  0
   23.0680   15.5950   12.6760 C   0  0  0  0  0  0  0  0  0  0  0  0
   23.8790   16.1930   13.7670 C   0  0  0  0  0  0  0  0  0  0  0  0
   24.1410   15.5550   14.7800 O   0  0  0  0  0  0  0  0  0  0  0  0
   24.2710   17.4990   13.5360 N   0  0  0  0  0  0  0  0  0  0  0  0
   24.6620   18.3630   14.6350 C   0  0  1  0  0  0  0  0  0  0  0  0
   25.7770   17.7260   15.4530 C   0  0  0  0  0  0  0  0  0  0  0  0
   26.1740   18.6610   16.5830 C   0  0  0  0  0  0  0  0  0  0  0  0
   26.5700   20.0220   16.0580 C   0  0  0  0  0  0  0  0  0  0  0  0
   27.4210   20.7160   16.6070 O   0  0  0  0  0  0  0  0  0  0  0  0
   25.9010   20.4710   14.9480 N   0  0  0  0  0  0  0  0  0  0  0  0
   25.1590   19.7080   14.0780 C   0  0  0  0  0  0  0  0  0  0  0  0
   24.9140   20.1100   12.9410 O   0  0  0  0  0  0  0  0  0  0  0  0
   21.8630   14.9570   12.8880 C   0  0  0  0  0  0  0  0  0  0  0  0
   21.1400   14.6940   14.0270 N   0  0  0  0  0  0  0  0  0  0  0  0
   19.9920   14.0180   13.6940 C   0  0  0  0  0  0  0  0  0  0  0  0
   19.9750   13.8550   12.3240 C   0  0  0  0  0  0  0  0  0  0  0  0
   21.1520   14.4480   11.8100 C   0  0  0  0  0  0  0  0  0  0  0  0
   21.5800   14.5520   10.5320 N   0  0  0  0  0  0  0  0  0  0  0  0
   21.6770   15.8060    6.7260 C   0  0  0  0  0  0  0  0  0  0  0  0
   20.4700   16.2690    6.4750 N   0  0  0  0  0  0  0  0  0  0  0  0
   18.9504   19.6134    8.5356 H   0  0  0  0  0  0  0  0  0  0  0  0
   19.8320   19.3891    6.9867 H   0  0  0  0  0  0  0  0  0  0  0  0
   18.0430   19.5504    6.9867 H   0  0  0  0  0  0  0  0  0  0  0  0
   18.3031   17.4218    8.6470 H   0  0  0  0  0  0  0  0  0  0  0  0
   18.1582   17.2828    6.8413 H   0  0  0  0  0  0  0  0  0  0  0  0
   21.0458   17.2670    9.6025 H   0  0  0  0  0  0  0  0  0  0  0  0
   24.2857   17.8630   12.5726 H   0  0  0  0  0  0  0  0  0  0  0  0
   23.7867   18.5180   15.2830 H   0  0  0  0  0  0  0  0  0  0  0  0
   25.4247   16.7723   15.8729 H   0  0  0  0  0  0  0  0  0  0  0  0
   26.6475   17.5426   14.8060 H   0  0  0  0  0  0  0  0  0  0  0  0
   25.3217   18.7759   17.2689 H   0  0  0  0  0  0  0  0  0  0  0  0
   27.0388   18.2259   17.1053 H   0  0  0  0  0  0  0  0  0  0  0  0
   25.9604   21.4793   14.7464 H   0  0  0  0  0  0  0  0  0  0  0  0
   21.4164   14.9624   14.9822 H   0  0  0  0  0  0  0  0  0  0  0  0
   19.2212   13.6679   14.3963 H   0  0  0  0  0  0  0  0  0  0  0  0
   19.1895   13.3551   11.7383 H   0  0  0  0  0  0  0  0  0  0  0  0
   22.2875   15.2316    6.0137 H   0  0  0  0  0  0  0  0  0  0  0  0
  1  2  1  0
  2  3  1  0
  3  4  2  0
  4  5  1  0
  5  6  1  0
  6  7  2  0
  6  8  2  0
  6  9  1  0
  9 10  2  0
 10 11  1  0
 11 12  1  0
 12 13  2  0
 12 14  1  0
 14 15  1  0
 15 16  1  0
 16 17  1  0
 17 18  1  0
 18 19  2  0
 18 20  1  0
 20 21  1  0
 21 22  2  0
 11 23  2  0
 23 24  1  0
 24 25  1  0
 25 26  2  0
 26 27  1  0
 27 28  2  0
  5 29  1  0
 29 30  2  0
 30  3  1  0
 28  9  1  0
 21 15  1  0
 27 23  1  0
  1 31  1  0
  1 32  1  0
  1 33  1  0
  2 34  1  0
  2 35  1  0
  4 36  1  0
 14 37  1  0
 15 38  1  1
 16 39  1  0
 16 40  1  0
 17 41  1  0
 17 42  1  0
 20 43  1  0
 24 44  1  0
 25 45  1  0
 26 46  1  0
 29 47  1  0
M  END
>  <meeko>  (956) 
{"is_sidechain": [true], "free_energy": -10.37, "intermolecular_energy": 0.0, "internal_energy": -10.37, "cluster_size": 20, "cluster_id": 1, "rank_in_cluster": 1}

>  <_RMSD_MCS_to_ref>  (956) 
0.3838435734630568

$$$$
ligand
     RDKit          3D

 46 49  0  0  0  0  0  0  0  0999 V2000
   18.9090   19.1540    7.5370 C   0  0  0  0  0  0  0  0  0  0  0  0
   18.7730   17.6460    7.6780 C   0  0  0  0  0  0  0  0  0  0  0  0
   20.0040   16.9270    7.2490 C   0  0  0  0  0  0  0  0  0  0  0  0
   20.7270   15.9630    7.9220 C   0  0  0  0  0  0  0  0  0  0  0  0
   21.7330   15.6340    7.0580 N   0  0  0  0  0  0  0  0  0  0  0  0
   23.0760   14.6850    7.4270 S   0  0  0  0  0  6  0  0  0  0  0  0
   23.6150   14.2890    6.1390 O   0  0  0  0  0  0  0  0  0  0  0  0
   22.5860   13.7080    8.3810 O   0  0  0  0  0  0  0  0  0  0  0  0
   24.1350   15.6770    8.1700 O   0  0  0  0  0  0  0  0  0  0  0  0
   24.0610   15.9740    9.5090 C   0  0  0  0  0  0  0  0  0  0  0  0
   22.9450   15.7230   10.3360 C   0  0  0  0  0  0  0  0  0  0  0  0
   22.9640   16.0700   11.6950 C   0  0  0  0  0  0  0  0  0  0  0  0
   24.1110   16.6590   12.1850 C   0  0  0  0  0  0  0  0  0  0  0  0
   25.2020   16.9070   11.3770 C   0  0  0  0  0  0  0  0  0  0  0  0
   25.2100   16.5790   10.0350 C   0  0  0  0  0  0  0  0  0  0  0  0
   26.2250   17.5430   12.2020 C   0  0  0  0  0  0  0  0  0  0  0  0
   27.3050   17.9150   11.7840 O   0  0  0  0  0  0  0  0  0  0  0  0
   25.7200   17.6120   13.4720 N   0  0  0  0  0  0  0  0  0  0  0  0
   26.3950   18.3250   14.5480 C   0  0  2  0  0  0  0  0  0  0  0  0
   25.9520   17.9140   15.9490 C   0  0  0  0  0  0  0  0  0  0  0  0
   26.7520   18.7010   16.9760 C   0  0  0  0  0  0  0  0  0  0  0  0
   26.6070   20.1900   16.7610 C   0  0  0  0  0  0  0  0  0  0  0  0
   26.7130   20.9970   17.6800 O   0  0  0  0  0  0  0  0  0  0  0  0
   26.4090   20.6090   15.4690 N   0  0  0  0  0  0  0  0  0  0  0  0
   26.1990   19.8320   14.3520 C   0  0  0  0  0  0  0  0  0  0  0  0
   25.9310   20.3530   13.2710 O   0  0  0  0  0  0  0  0  0  0  0  0
   24.4360   17.1420   13.5260 C   0  0  0  0  0  0  0  0  0  0  0  0
   23.6620   17.1220   14.4620 O   0  0  0  0  0  0  0  0  0  0  0  0
   21.6530   16.4290    5.9600 C   0  0  0  0  0  0  0  0  0  0  0  0
   20.5960   17.2120    6.0330 N   0  0  0  0  0  0  0  0  0  0  0  0
   18.9504   19.6134    8.5356 H   0  0  0  0  0  0  0  0  0  0  0  0
   19.8320   19.3891    6.9867 H   0  0  0  0  0  0  0  0  0  0  0  0
   18.0430   19.5504    6.9867 H   0  0  0  0  0  0  0  0  0  0  0  0
   18.5718   17.4057    8.7324 H   0  0  0  0  0  0  0  0  0  0  0  0
   17.9478   17.3195    7.0281 H   0  0  0  0  0  0  0  0  0  0  0  0
   20.5367   15.5532    8.9249 H   0  0  0  0  0  0  0  0  0  0  0  0
   22.0487   15.2491    9.9092 H   0  0  0  0  0  0  0  0  0  0  0  0
   22.0973   15.8797   12.3451 H   0  0  0  0  0  0  0  0  0  0  0  0
   26.0862   16.7852    9.4028 H   0  0  0  0  0  0  0  0  0  0  0  0
   27.4592   18.0538   14.4857 H   0  0  0  0  0  0  0  0  0  0  0  0
   24.8804   18.1285   16.0740 H   0  0  0  0  0  0  0  0  0  0  0  0
   26.1253   16.8371   16.0910 H   0  0  0  0  0  0  0  0  0  0  0  0
   26.3899   18.4474   17.9832 H   0  0  0  0  0  0  0  0  0  0  0  0
   27.8140   18.4360   16.8662 H   0  0  0  0  0  0  0  0  0  0  0  0
   26.4187   21.6276   15.3168 H   0  0  0  0  0  0  0  0  0  0  0  0
   22.3704   16.4204    5.1262 H   0  0  0  0  0  0  0  0  0  0  0  0
  1  2  1  0
  2  3  1  0
  3  4  2  0
  4  5  1  0
  5  6  1  0
  6  7  2  0
  6  8  2  0
  6  9  1  0
  9 10  1  0
 10 11  2  0
 11 12  1  0
 12 13  2  0
 13 14  1  0
 14 15  2  0
 14 16  1  0
 16 17  2  0
 16 18  1  0
 18 19  1  0
 19 20  1  0
 20 21  1  0
 21 22  1  0
 22 23  2  0
 22 24  1  0
 24 25  1  0
 25 26  2  0
 18 27  1  0
 27 28  2  0
  5 29  1  0
 29 30  2  0
 30  3  1  0
 15 10  1  0
 25 19  1  0
 27 13  1  0
  1 31  1  0
  1 32  1  0
  1 33  1  0
  2 34  1  0
  2 35  1  0
  4 36  1  0
 11 37  1  0
 12 38  1  0
 15 39  1  0
 19 40  1  1
 20 41  1  0
 20 42  1  0
 21 43  1  0
 21 44  1  0
 24 45  1  0
 29 46  1  0
M  END
>  <meeko>  (957) 
{"is_sidechain": [true], "free_energy": -10.37, "intermolecular_energy": 0.0, "internal_energy": -10.37, "cluster_size": 20, "cluster_id": 1, "rank_in_cluster": 1}

>  <_RMSD_MCS_to_ref>  (957) 
0.9426479501355408

$$$$
ligand
     RDKit          3D

 50 53  0  0  0  0  0  0  0  0999 V2000
   18.9090   19.1540    7.5370 C   0  0  0  0  0  0  0  0  0  0  0  0
   18.7730   17.6460    7.6780 C   0  0  0  0  0  0  0  0  0  0  0  0
   20.0150   16.9310    7.2750 C   0  0  0  0  0  0  0  0  0  0  0  0
   21.2040   16.7970    7.9640 C   0  0  0  0  0  0  0  0  0  0  0  0
   21.9970   16.0710    7.1240 N   0  0  0  0  0  0  0  0  0  0  0  0
   23.4990   15.4220    7.5070 S   0  0  0  0  0  6  0  0  0  0  0  0
   24.4760   16.3110    6.9090 O   0  0  0  0  0  0  0  0  0  0  0  0
   23.4250   14.0140    7.1710 O   0  0  0  0  0  0  0  0  0  0  0  0
   23.5870   15.5850    9.2660 C   0  0  0  0  0  0  0  0  0  0  0  0
   24.5100   16.4530    9.8380 C   0  0  0  0  0  0  0  0  0  0  0  0
   24.5630   16.5610   11.2260 C   0  0  0  0  0  0  0  0  0  0  0  0
   23.6980   15.8030   12.0600 C   0  0  0  0  0  0  0  0  0  0  0  0
   23.6820   15.8460   13.4760 C   0  0  0  0  0  0  0  0  0  0  0  0
   24.5780   16.7550   14.2390 C   0  0  0  0  0  0  0  0  0  0  0  0
   25.7620   16.4920   14.3980 O   0  0  0  0  0  0  0  0  0  0  0  0
   23.9770   17.8840   14.7480 N   0  0  0  0  0  0  0  0  0  0  0  0
   24.6940   18.7820   15.6450 C   0  0  1  0  0  0  0  0  0  0  0  0
   25.6900   18.0400   16.5310 C   0  0  0  0  0  0  0  0  0  0  0  0
   26.4300   19.0390   17.4080 C   0  0  0  0  0  0  0  0  0  0  0  0
   27.1000   20.1080   16.5770 C   0  0  0  0  0  0  0  0  0  0  0  0
   28.1690   20.6170   16.8970 O   0  0  0  0  0  0  0  0  0  0  0  0
   26.4370   20.5120   15.4460 N   0  0  0  0  0  0  0  0  0  0  0  0
   25.4500   19.8110   14.8000 C   0  0  0  0  0  0  0  0  0  0  0  0
   25.1920   20.0170   13.6150 O   0  0  0  0  0  0  0  0  0  0  0  0
   22.7970   15.0490   14.2040 C   0  0  0  0  0  0  0  0  0  0  0  0
   21.9530   14.2220   13.4990 C   0  0  0  0  0  0  0  0  0  0  0  0
   21.9400   14.1440   12.1540 N   0  0  0  0  0  0  0  0  0  0  0  0
   22.7850   14.9130   11.4540 C   0  0  0  0  0  0  0  0  0  0  0  0
   22.7450   14.8140   10.0720 C   0  0  0  0  0  0  0  0  0  0  0  0
   21.2890   15.7450    6.0120 C   0  0  0  0  0  0  0  0  0  0  0  0
   20.0800   16.2640    6.0670 N   0  0  0  0  0  0  0  0  0  0  0  0
   18.9504   19.6134    8.5356 H   0  0  0  0  0  0  0  0  0  0  0  0
   19.8320   19.3891    6.9867 H   0  0  0  0  0  0  0  0  0  0  0  0
   18.0430   19.5504    6.9867 H   0  0  0  0  0  0  0  0  0  0  0  0
   18.5511   17.4067    8.7285 H   0  0  0  0  0  0  0  0  0  0  0  0
   17.9614   17.3157    7.0130 H   0  0  0  0  0  0  0  0  0  0  0  0
   21.4546   17.1864    8.9618 H   0  0  0  0  0  0  0  0  0  0  0  0
   25.1875   17.0449    9.2050 H   0  0  0  0  0  0  0  0  0  0  0  0
   25.2895   17.2473   11.6856 H   0  0  0  0  0  0  0  0  0  0  0  0
   23.0030   18.0982   14.4904 H   0  0  0  0  0  0  0  0  0  0  0  0
   23.9581   19.2657   16.3042 H   0  0  0  0  0  0  0  0  0  0  0  0
   25.1513   17.3222   17.1670 H   0  0  0  0  0  0  0  0  0  0  0  0
   26.4117   17.5007   15.8999 H   0  0  0  0  0  0  0  0  0  0  0  0
   25.7127   19.5147   18.0930 H   0  0  0  0  0  0  0  0  0  0  0  0
   27.2060   18.4992   17.9705 H   0  0  0  0  0  0  0  0  0  0  0  0
   26.7039   21.4229   15.0460 H   0  0  0  0  0  0  0  0  0  0  0  0
   22.7751   15.0810   15.3033 H   0  0  0  0  0  0  0  0  0  0  0  0
   21.2513   13.5907   14.0638 H   0  0  0  0  0  0  0  0  0  0  0  0
   22.0375   14.1157    9.6010 H   0  0  0  0  0  0  0  0  0  0  0  0
   21.6717   15.1332    5.1818 H   0  0  0  0  0  0  0  0  0  0  0  0
  1  2  1  0
  2  3  1  0
  3  4  2  0
  4  5  1  0
  5  6  1  0
  6  7  2  0
  6  8  2  0
  6  9  1  0
  9 10  2  0
 10 11  1  0
 11 12  2  0
 12 13  1  0
 13 14  1  0
 14 15  2  0
 14 16  1  0
 16 17  1  0
 17 18  1  0
 18 19  1  0
 19 20  1  0
 20 21  2  0
 20 22  1  0
 22 23  1  0
 23 24  2  0
 13 25  2  0
 25 26  1  0
 26 27  2  0
 27 28  1  0
 28 29  2  0
  5 30  1  0
 30 31  2  0
 31  3  1  0
 29  9  1  0
 28 12  1  0
 23 17  1  0
  1 32  1  0
  1 33  1  0
  1 34  1  0
  2 35  1  0
  2 36  1  0
  4 37  1  0
 10 38  1  0
 11 39  1  0
 16 40  1  0
 17 41  1  1
 18 42  1  0
 18 43  1  0
 19 44  1  0
 19 45  1  0
 22 46  1  0
 25 47  1  0
 26 48  1  0
 29 49  1  0
 30 50  1  0
M  END
>  <meeko>  (958) 
{"is_sidechain": [true], "free_energy": -10.37, "intermolecular_energy": 0.0, "internal_energy": -10.37, "cluster_size": 19, "cluster_id": 1, "rank_in_cluster": 1}

>  <_RMSD_MCS_to_ref>  (958) 
0.8486309890379657

$$$$
ligand
     RDKit          3D

 48 51  0  0  0  0  0  0  0  0999 V2000
   18.9090   19.1540    7.5370 C   0  0  0  0  0  0  0  0  0  0  0  0
   18.7730   17.6460    7.6780 C   0  0  0  0  0  0  0  0  0  0  0  0
   19.9790   16.9250    7.1890 C   0  0  0  0  0  0  0  0  0  0  0  0
   20.4410   15.6710    7.5340 C   0  0  0  0  0  0  0  0  0  0  0  0
   21.5690   15.5100    6.7850 N   0  0  0  0  0  0  0  0  0  0  0  0
   22.6920   14.2710    6.9240 S   0  0  0  0  0  6  0  0  0  0  0  0
   23.2530   14.0990    5.5990 O   0  0  0  0  0  0  0  0  0  0  0  0
   22.0500   13.2010    7.6580 O   0  0  0  0  0  0  0  0  0  0  0  0
   24.0020   14.8110    7.9200 C   0  0  0  0  0  0  0  0  0  0  0  0
   25.3110   14.7860    7.4920 C   0  0  0  0  0  0  0  0  0  0  0  0
   26.3770   15.4280    8.6510 S   0  0  0  0  0  0  0  0  0  0  0  0
   25.0980   15.7460    9.7610 C   0  0  0  0  0  0  0  0  0  0  0  0
   25.2360   16.3270   11.0410 C   0  0  0  0  0  0  0  0  0  0  0  0
   24.0940   16.5160   11.8280 C   0  0  0  0  0  0  0  0  0  0  0  0
   24.1680   17.1170   13.1900 C   0  0  0  0  0  0  0  0  0  0  0  0
   23.2930   16.8910   14.0170 O   0  0  0  0  0  0  0  0  0  0  0  0
   25.2340   17.9540   13.4420 N   0  0  0  0  0  0  0  0  0  0  0  0
   25.3150   18.7100   14.6840 C   0  0  1  0  0  0  0  0  0  0  0  0
   26.2120   18.0340   15.7160 C   0  0  0  0  0  0  0  0  0  0  0  0
   26.2840   18.8950   16.9670 C   0  0  0  0  0  0  0  0  0  0  0  0
   26.7540   20.2940   16.6430 C   0  0  0  0  0  0  0  0  0  0  0  0
   27.4400   20.9550   17.4160 O   0  0  0  0  0  0  0  0  0  0  0  0
   26.3480   20.8170   15.4410 N   0  0  0  0  0  0  0  0  0  0  0  0
   25.8770   20.1000   14.3700 C   0  0  0  0  0  0  0  0  0  0  0  0
   25.9000   20.5660   13.2300 O   0  0  0  0  0  0  0  0  0  0  0  0
   22.8510   16.1050   11.3560 C   0  0  0  0  0  0  0  0  0  0  0  0
   22.7230   15.5310   10.0870 C   0  0  0  0  0  0  0  0  0  0  0  0
   23.8560   15.3500    9.2500 C   0  0  0  0  0  0  0  0  0  0  0  0
   21.7830   16.6340    6.0540 C   0  0  0  0  0  0  0  0  0  0  0  0
   20.8290   17.5140    6.2730 N   0  0  0  0  0  0  0  0  0  0  0  0
   18.9504   19.6134    8.5356 H   0  0  0  0  0  0  0  0  0  0  0  0
   19.8320   19.3891    6.9867 H   0  0  0  0  0  0  0  0  0  0  0  0
   18.0430   19.5504    6.9867 H   0  0  0  0  0  0  0  0  0  0  0  0
   18.6204   17.4018    8.7396 H   0  0  0  0  0  0  0  0  0  0  0  0
   17.9167   17.3254    7.0665 H   0  0  0  0  0  0  0  0  0  0  0  0
   19.9996   14.9625    8.2504 H   0  0  0  0  0  0  0  0  0  0  0  0
   25.6298   14.3960    6.5141 H   0  0  0  0  0  0  0  0  0  0  0  0
   26.2265   16.6266   11.4140 H   0  0  0  0  0  0  0  0  0  0  0  0
   25.9838   18.0460   12.7419 H   0  0  0  0  0  0  0  0  0  0  0  0
   24.3039   18.7718   15.1127 H   0  0  0  0  0  0  0  0  0  0  0  0
   25.7970   17.0482   15.9728 H   0  0  0  0  0  0  0  0  0  0  0  0
   27.2219   17.9093   15.2982 H   0  0  0  0  0  0  0  0  0  0  0  0
   25.2844   18.9492   17.4229 H   0  0  0  0  0  0  0  0  0  0  0  0
   27.0040   18.4386   17.6622 H   0  0  0  0  0  0  0  0  0  0  0  0
   26.4016   21.8399   15.3330 H   0  0  0  0  0  0  0  0  0  0  0  0
   21.9596   16.2329   11.9877 H   0  0  0  0  0  0  0  0  0  0  0  0
   21.7308   15.2153    9.7322 H   0  0  0  0  0  0  0  0  0  0  0  0
   22.6341   16.7876    5.3742 H   0  0  0  0  0  0  0  0  0  0  0  0
  1  2  1  0
  2  3  1  0
  3  4  2  0
  4  5  1  0
  5  6  1  0
  6  7  2  0
  6  8  2  0
  6  9  1  0
  9 10  2  0
 10 11  1  0
 11 12  1  0
 12 13  2  0
 13 14  1  0
 14 15  1  0
 15 16  2  0
 15 17  1  0
 17 18  1  0
 18 19  1  0
 19 20  1  0
 20 21  1  0
 21 22  2  0
 21 23  1  0
 23 24  1  0
 24 25  2  0
 14 26  2  0
 26 27  1  0
 27 28  2  0
  5 29  1  0
 29 30  2  0
 30  3  1  0
 28  9  1  0
 28 12  1  0
 24 18  1  0
  1 31  1  0
  1 32  1  0
  1 33  1  0
  2 34  1  0
  2 35  1  0
  4 36  1  0
 10 37  1  0
 13 38  1  0
 17 39  1  0
 18 40  1  1
 19 41  1  0
 19 42  1  0
 20 43  1  0
 20 44  1  0
 23 45  1  0
 26 46  1  0
 27 47  1  0
 29 48  1  0
M  END
>  <meeko>  (959) 
{"is_sidechain": [true], "free_energy": -10.37, "intermolecular_energy": 0.0, "internal_energy": -10.37, "cluster_size": 19, "cluster_id": 1, "rank_in_cluster": 1}

>  <_RMSD_MCS_to_ref>  (959) 
0.6827626071906527

$$$$
ligand
     RDKit          3D

 48 51  0  0  0  0  0  0  0  0999 V2000
   18.9090   19.1540    7.5370 C   0  0  0  0  0  0  0  0  0  0  0  0
   18.7730   17.6460    7.6780 C   0  0  0  0  0  0  0  0  0  0  0  0
   20.0830   16.9520    7.5490 C   0  0  0  0  0  0  0  0  0  0  0  0
   21.1020   16.8470    8.4730 C   0  0  0  0  0  0  0  0  0  0  0  0
   22.0470   16.0880    7.8470 N   0  0  0  0  0  0  0  0  0  0  0  0
   23.4300   15.4360    8.5410 S   0  0  0  0  0  6  0  0  0  0  0  0
   23.5090   14.0880    8.0100 O   0  0  0  0  0  0  0  0  0  0  0  0
   24.4920   16.4030    8.3600 O   0  0  0  0  0  0  0  0  0  0  0  0
   23.0870   15.3100   10.2620 C   0  0  0  0  0  0  0  0  0  0  0  0
   23.9950   15.8340   11.2000 C   0  0  0  0  0  0  0  0  0  0  0  0
   23.7260   15.7420   12.5850 C   0  0  0  0  0  0  0  0  0  0  0  0
   24.6590   16.2930   13.6070 C   0  0  0  0  0  0  0  0  0  0  0  0
   25.2070   15.5400   14.4050 O   0  0  0  0  0  0  0  0  0  0  0  0
   24.8850   17.6490   13.5770 N   0  0  0  0  0  0  0  0  0  0  0  0
   25.8900   18.2620   14.4370 C   0  0  2  0  0  0  0  0  0  0  0  0
   25.6580   17.9430   15.9110 C   0  0  0  0  0  0  0  0  0  0  0  0
   26.7100   18.6480   16.7520 C   0  0  0  0  0  0  0  0  0  0  0  0
   26.7160   20.1360   16.4920 C   0  0  0  0  0  0  0  0  0  0  0  0
   26.9810   20.9570   17.3660 O   0  0  0  0  0  0  0  0  0  0  0  0
   26.4390   20.5370   15.2100 N   0  0  0  0  0  0  0  0  0  0  0  0
   25.8350   19.7790   14.2390 C   0  0  0  0  0  0  0  0  0  0  0  0
   25.2960   20.2990   13.2620 O   0  0  0  0  0  0  0  0  0  0  0  0
   22.5370   15.1500   13.0380 C   0  0  0  0  0  0  0  0  0  0  0  0
   21.6770   14.6620   12.0800 C   0  0  0  0  0  0  0  0  0  0  0  0
   20.4660   14.0470   12.2200 N   0  0  0  0  0  0  0  0  0  0  0  0
   19.9930   13.7560   10.9650 C   0  0  0  0  0  0  0  0  0  0  0  0
   18.9330   13.2010   10.7210 O   0  0  0  0  0  0  0  0  0  0  0  0
   20.8980   14.1790    9.9820 O   0  0  0  0  0  0  0  0  0  0  0  0
   21.9270   14.7300   10.7260 C   0  0  0  0  0  0  0  0  0  0  0  0
   21.6070   15.7660    6.6040 C   0  0  0  0  0  0  0  0  0  0  0  0
   20.4110   16.2710    6.3910 N   0  0  0  0  0  0  0  0  0  0  0  0
   18.9504   19.6134    8.5356 H   0  0  0  0  0  0  0  0  0  0  0  0
   19.8320   19.3891    6.9867 H   0  0  0  0  0  0  0  0  0  0  0  0
   18.0430   19.5504    6.9867 H   0  0  0  0  0  0  0  0  0  0  0  0
   18.3470   17.4190    8.6665 H   0  0  0  0  0  0  0  0  0  0  0  0
   18.1184   17.2876    6.8699 H   0  0  0  0  0  0  0  0  0  0  0  0
   21.1432   17.2774    9.4845 H   0  0  0  0  0  0  0  0  0  0  0  0
   24.9200   16.3183   10.8538 H   0  0  0  0  0  0  0  0  0  0  0  0
   24.3359   18.2406   12.9372 H   0  0  0  0  0  0  0  0  0  0  0  0
   26.8743   17.8565   14.1601 H   0  0  0  0  0  0  0  0  0  0  0  0
   24.6574   18.2899   16.2085 H   0  0  0  0  0  0  0  0  0  0  0  0
   25.7301   16.8566   16.0675 H   0  0  0  0  0  0  0  0  0  0  0  0
   26.4950   18.4714   17.8162 H   0  0  0  0  0  0  0  0  0  0  0  0
   27.6971   18.2450   16.4815 H   0  0  0  0  0  0  0  0  0  0  0  0
   26.7097   21.4968   14.9522 H   0  0  0  0  0  0  0  0  0  0  0  0
   22.3026   15.0790   14.1104 H   0  0  0  0  0  0  0  0  0  0  0  0
   19.9914   13.8384   13.1100 H   0  0  0  0  0  0  0  0  0  0  0  0
   22.1721   15.1659    5.8756 H   0  0  0  0  0  0  0  0  0  0  0  0
  1  2  1  0
  2  3  1  0
  3  4  2  0
  4  5  1  0
  5  6  1  0
  6  7  2  0
  6  8  2  0
  6  9  1  0
  9 10  2  0
 10 11  1  0
 11 12  1  0
 12 13  2  0
 12 14  1  0
 14 15  1  0
 15 16  1  0
 16 17  1  0
 17 18  1  0
 18 19  2  0
 18 20  1  0
 20 21  1  0
 21 22  2  0
 11 23  2  0
 23 24  1  0
 24 25  1  0
 25 26  1  0
 26 27  2  0
 26 28  1  0
 28 29  1  0
  5 30  1  0
 30 31  2  0
 31  3  1  0
 29  9  1  0
 21 15  1  0
 29 24  2  0
  1 32  1  0
  1 33  1  0
  1 34  1  0
  2 35  1  0
  2 36  1  0
  4 37  1  0
 10 38  1  0
 14 39  1  0
 15 40  1  6
 16 41  1  0
 16 42  1  0
 17 43  1  0
 17 44  1  0
 20 45  1  0
 23 46  1  0
 25 47  1  0
 30 48  1  0
M  END
>  <meeko>  (960) 
{"is_sidechain": [true], "free_energy": -10.37, "intermolecular_energy": 0.0, "internal_energy": -10.37, "cluster_size": 19, "cluster_id": 1, "rank_in_cluster": 1}

>  <_RMSD_MCS_to_ref>  (960) 
0.5913644298475256

$$$$
ligand
     RDKit          3D

 46 49  0  0  0  0  0  0  0  0999 V2000
   18.7970   18.8170    7.7190 C   0  0  0  0  0  0  0  0  0  0  0  0
   18.5280   17.3290    7.8810 C   0  0  0  0  0  0  0  0  0  0  0  0
   19.6850   16.4980    7.4530 C   0  0  0  0  0  0  0  0  0  0  0  0
   20.8470   16.2050    8.1420 C   0  0  0  0  0  0  0  0  0  0  0  0
   21.5460   15.4030    7.2870 N   0  0  0  0  0  0  0  0  0  0  0  0
   23.0710   14.7460    7.5840 S   0  0  0  0  0  6  0  0  0  0  0  0
   23.1780   13.6830    6.5980 O   0  0  0  0  0  0  0  0  0  0  0  0
   24.0050   15.8580    7.5620 O   0  0  0  0  0  0  0  0  0  0  0  0
   23.0820   14.0410    9.0500 O   0  0  0  0  0  0  0  0  0  0  0  0
   23.4340   14.7630   10.1590 C   0  0  0  0  0  0  0  0  0  0  0  0
   24.7720   14.7630   10.5190 C   0  0  0  0  0  0  0  0  0  0  0  0
   25.1500   15.4560   11.6690 C   0  0  0  0  0  0  0  0  0  0  0  0
   24.1800   16.1130   12.4280 C   0  0  0  0  0  0  0  0  0  0  0  0
   24.5690   16.8500   13.6470 C   0  0  0  0  0  0  0  0  0  0  0  0
   23.7580   17.6340   14.2830 N   0  0  0  0  0  0  0  0  0  0  0  0
   24.4650   18.1690   15.3830 O   0  0  0  0  0  0  0  0  0  0  0  0
   25.8610   17.9230   15.1850 C   0  0  2  0  0  0  0  0  0  0  0  0
   26.5210   17.6570   16.5360 C   0  0  0  0  0  0  0  0  0  0  0  0
   26.3800   18.8740   17.4430 C   0  0  0  0  0  0  0  0  0  0  0  0
   26.9030   20.1230   16.7750 C   0  0  0  0  0  0  0  0  0  0  0  0
   27.4840   21.0080   17.3970 O   0  0  0  0  0  0  0  0  0  0  0  0
   26.6930   20.2320   15.4250 N   0  0  0  0  0  0  0  0  0  0  0  0
   26.5010   19.1730   14.5700 C   0  0  0  0  0  0  0  0  0  0  0  0
   26.8630   19.2470   13.3960 O   0  0  0  0  0  0  0  0  0  0  0  0
   25.9210   16.7200   14.2620 C   0  0  0  0  0  0  0  0  0  0  0  0
   22.8650   16.0450   11.9900 C   0  0  0  0  0  0  0  0  0  0  0  0
   22.4740   15.3810   10.8730 N   0  0  0  0  0  0  0  0  0  0  0  0
   20.8330   15.2320    6.1450 C   0  0  0  0  0  0  0  0  0  0  0  0
   19.6910   15.8880    6.2120 N   0  0  0  0  0  0  0  0  0  0  0  0
   18.8815   19.2845    8.7111 H   0  0  0  0  0  0  0  0  0  0  0  0
   19.7359   18.9616    7.1643 H   0  0  0  0  0  0  0  0  0  0  0  0
   17.9682   19.2812    7.1643 H   0  0  0  0  0  0  0  0  0  0  0  0
   18.3151   17.1209    8.9400 H   0  0  0  0  0  0  0  0  0  0  0  0
   17.6715   17.0695    7.2414 H   0  0  0  0  0  0  0  0  0  0  0  0
   21.1406   16.5408    9.1475 H   0  0  0  0  0  0  0  0  0  0  0  0
   25.5184   14.2292    9.9123 H   0  0  0  0  0  0  0  0  0  0  0  0
   26.2059   15.4846   11.9759 H   0  0  0  0  0  0  0  0  0  0  0  0
   26.0368   16.7916   17.0122 H   0  0  0  0  0  0  0  0  0  0  0  0
   27.5899   17.4511   16.3775 H   0  0  0  0  0  0  0  0  0  0  0  0
   25.3170   19.0171   17.6871 H   0  0  0  0  0  0  0  0  0  0  0  0
   26.9696   18.6964   18.3545 H   0  0  0  0  0  0  0  0  0  0  0  0
   26.6779   21.1791   15.0205 H   0  0  0  0  0  0  0  0  0  0  0  0
   26.7259   16.8079   13.5174 H   0  0  0  0  0  0  0  0  0  0  0  0
   26.1366   15.7557   14.7454 H   0  0  0  0  0  0  0  0  0  0  0  0
   22.0945   16.5595   12.5830 H   0  0  0  0  0  0  0  0  0  0  0  0
   21.1615   14.6307    5.2844 H   0  0  0  0  0  0  0  0  0  0  0  0
  1  2  1  0
  2  3  1  0
  3  4  2  0
  4  5  1  0
  5  6  1  0
  6  7  2  0
  6  8  2  0
  6  9  1  0
  9 10  1  0
 10 11  2  0
 11 12  1  0
 12 13  2  0
 13 14  1  0
 14 15  2  0
 15 16  1  0
 17 16  1  1
 17 18  1  0
 18 19  1  0
 19 20  1  0
 20 21  2  0
 20 22  1  0
 22 23  1  0
 23 24  2  0
 17 25  1  0
 13 26  1  0
 26 27  2  0
  5 28  1  0
 28 29  2  0
 29  3  1  0
 27 10  1  0
 25 14  1  0
 23 17  1  0
  1 30  1  0
  1 31  1  0
  1 32  1  0
  2 33  1  0
  2 34  1  0
  4 35  1  0
 11 36  1  0
 12 37  1  0
 18 38  1  0
 18 39  1  0
 19 40  1  0
 19 41  1  0
 22 42  1  0
 25 43  1  0
 25 44  1  0
 26 45  1  0
 28 46  1  0
M  END
>  <meeko>  (961) 
{"is_sidechain": [true], "free_energy": -10.36, "intermolecular_energy": 0.0, "internal_energy": -10.36, "cluster_size": 20, "cluster_id": 1, "rank_in_cluster": 1}

>  <_RMSD_MCS_to_ref>  (961) 
1.0066405142850157

$$$$
ligand
     RDKit          3D

 49 52  0  0  0  0  0  0  0  0999 V2000
   18.7970   18.8170    7.7190 C   0  0  0  0  0  0  0  0  0  0  0  0
   18.5280   17.3290    7.8810 C   0  0  0  0  0  0  0  0  0  0  0  0
   19.7670   16.5160    7.7470 C   0  0  0  0  0  0  0  0  0  0  0  0
   20.6210   16.0640    8.7340 C   0  0  0  0  0  0  0  0  0  0  0  0
   21.5760   15.3640    8.0550 N   0  0  0  0  0  0  0  0  0  0  0  0
   23.0000   14.7660    8.7050 S   0  0  0  0  0  6  0  0  0  0  0  0
   23.9960   15.8090    8.5610 O   0  0  0  0  0  0  0  0  0  0  0  0
   23.1700   13.4280    8.1810 O   0  0  0  0  0  0  0  0  0  0  0  0
   22.8040   14.5710   10.4480 C   0  0  0  0  0  0  0  0  0  0  0  0
   23.5190   15.0270   11.5400 C   0  0  0  0  0  0  0  0  0  0  0  0
   22.9040   14.5380   12.7300 C   0  0  0  0  0  0  0  0  0  0  0  0
   23.1660   14.6610   14.1160 C   0  0  0  0  0  0  0  0  0  0  0  0
   24.3370   15.4490   14.5840 C   0  0  0  0  0  0  0  0  0  0  0  0
   25.3560   14.8980   14.9850 O   0  0  0  0  0  0  0  0  0  0  0  0
   24.2160   16.8210   14.5080 N   0  0  0  0  0  0  0  0  0  0  0  0
   25.3510   17.6910   14.7820 C   0  0  2  0  0  0  0  0  0  0  0  0
   25.7300   17.6990   16.2600 C   0  0  0  0  0  0  0  0  0  0  0  0
   26.8920   18.6550   16.4800 C   0  0  0  0  0  0  0  0  0  0  0  0
   26.5650   20.0400   15.9760 C   0  0  0  0  0  0  0  0  0  0  0  0
   26.9920   21.0560   16.5170 O   0  0  0  0  0  0  0  0  0  0  0  0
   25.7850   20.1170   14.8510 N   0  0  0  0  0  0  0  0  0  0  0  0
   24.9860   19.1160   14.3550 C   0  0  0  0  0  0  0  0  0  0  0  0
   24.0450   19.3650   13.6030 O   0  0  0  0  0  0  0  0  0  0  0  0
   22.3170   14.0070   15.0290 C   0  0  0  0  0  0  0  0  0  0  0  0
   21.2210   13.2690   14.5860 C   0  0  0  0  0  0  0  0  0  0  0  0
   20.9370   13.1530   13.2230 C   0  0  0  0  0  0  0  0  0  0  0  0
   21.7950   13.7920   12.3220 C   0  0  0  0  0  0  0  0  0  0  0  0
   21.7550   13.8350   10.9480 N   0  0  0  0  0  0  0  0  0  0  0  0
   21.3310   15.4530    6.7230 C   0  0  0  0  0  0  0  0  0  0  0  0
   20.2210   16.1270    6.5010 N   0  0  0  0  0  0  0  0  0  0  0  0
   18.8815   19.2845    8.7111 H   0  0  0  0  0  0  0  0  0  0  0  0
   19.7359   18.9616    7.1643 H   0  0  0  0  0  0  0  0  0  0  0  0
   17.9682   19.2812    7.1643 H   0  0  0  0  0  0  0  0  0  0  0  0
   18.0952   17.1536    8.8770 H   0  0  0  0  0  0  0  0  0  0  0  0
   17.8350   17.0223    7.0837 H   0  0  0  0  0  0  0  0  0  0  0  0
   20.5482   16.2301    9.8189 H   0  0  0  0  0  0  0  0  0  0  0  0
   24.4155   15.6629   11.4977 H   0  0  0  0  0  0  0  0  0  0  0  0
   23.3086   17.2366   14.2534 H   0  0  0  0  0  0  0  0  0  0  0  0
   26.2157   17.3110   14.2182 H   0  0  0  0  0  0  0  0  0  0  0  0
   24.8670   18.0270   16.8581 H   0  0  0  0  0  0  0  0  0  0  0  0
   26.0257   16.6853   16.5683 H   0  0  0  0  0  0  0  0  0  0  0  0
   27.1136   18.7082   17.5561 H   0  0  0  0  0  0  0  0  0  0  0  0
   27.7620   18.2786   15.9220 H   0  0  0  0  0  0  0  0  0  0  0  0
   25.7996   21.0059   14.3308 H   0  0  0  0  0  0  0  0  0  0  0  0
   22.5217   14.0796   16.1074 H   0  0  0  0  0  0  0  0  0  0  0  0
   20.5704   12.7708   15.3198 H   0  0  0  0  0  0  0  0  0  0  0  0
   20.0678   12.5784   12.8703 H   0  0  0  0  0  0  0  0  0  0  0  0
   21.0355   13.3772   10.3704 H   0  0  0  0  0  0  0  0  0  0  0  0
   21.9702   15.0224    5.9382 H   0  0  0  0  0  0  0  0  0  0  0  0
  1  2  1  0
  2  3  1  0
  3  4  2  0
  4  5  1  0
  5  6  1  0
  6  7  2  0
  6  8  2  0
  6  9  1  0
  9 10  2  0
 10 11  1  0
 11 12  2  0
 12 13  1  0
 13 14  2  0
 13 15  1  0
 15 16  1  0
 16 17  1  0
 17 18  1  0
 18 19  1  0
 19 20  2  0
 19 21  1  0
 21 22  1  0
 22 23  2  0
 12 24  1  0
 24 25  2  0
 25 26  1  0
 26 27  2  0
 27 28  1  0
  5 29  1  0
 29 30  2  0
 30  3  1  0
 28  9  1  0
 27 11  1  0
 22 16  1  0
  1 31  1  0
  1 32  1  0
  1 33  1  0
  2 34  1  0
  2 35  1  0
  4 36  1  0
 10 37  1  0
 15 38  1  0
 16 39  1  6
 17 40  1  0
 17 41  1  0
 18 42  1  0
 18 43  1  0
 21 44  1  0
 24 45  1  0
 25 46  1  0
 26 47  1  0
 28 48  1  0
 29 49  1  0
M  END
>  <meeko>  (962) 
{"is_sidechain": [true], "free_energy": -10.36, "intermolecular_energy": 0.0, "internal_energy": -10.36, "cluster_size": 16, "cluster_id": 1, "rank_in_cluster": 1}

>  <_RMSD_MCS_to_ref>  (962) 
0.7971605860803703

$$$$
ligand
     RDKit          3D

 45 48  0  0  0  0  0  0  0  0999 V2000
   18.7980   18.8170    7.7190 C   0  0  0  0  0  0  0  0  0  0  0  0
   18.5270   17.3290    7.8810 C   0  0  0  0  0  0  0  0  0  0  0  0
   19.7360   16.5070    7.6030 C   0  0  0  0  0  0  0  0  0  0  0  0
   20.8800   16.3610    8.3620 C   0  0  0  0  0  0  0  0  0  0  0  0
   21.6530   15.4960    7.6420 N   0  0  0  0  0  0  0  0  0  0  0  0
   23.0390   14.7140    8.2020 S   0  0  0  0  0  6  0  0  0  0  0  0
   22.7880   13.3080    7.9350 O   0  0  0  0  0  0  0  0  0  0  0  0
   24.1360   15.4060    7.5490 O   0  0  0  0  0  0  0  0  0  0  0  0
   23.1420   14.9660    9.9100 C   0  0  0  0  0  0  0  0  0  0  0  0
   22.1050   14.6230   10.6960 C   0  0  0  0  0  0  0  0  0  0  0  0
   22.3560   14.8680   12.0290 N   0  0  0  0  0  0  0  0  0  0  0  0
   21.6370   14.6940   13.1490 N   0  0  0  0  0  0  0  0  0  0  0  0
   22.4560   15.1290   14.1180 C   0  0  0  0  0  0  0  0  0  0  0  0
   23.7150   15.5910   13.6420 C   0  0  0  0  0  0  0  0  0  0  0  0
   24.8070   16.1170   14.4310 C   0  0  0  0  0  0  0  0  0  0  0  0
   25.6060   15.3810   15.0000 O   0  0  0  0  0  0  0  0  0  0  0  0
   24.8920   17.4860   14.4910 N   0  0  0  0  0  0  0  0  0  0  0  0
   26.0110   18.1630   15.1240 C   0  0  2  0  0  0  0  0  0  0  0  0
   26.0400   17.9440   16.6320 C   0  0  0  0  0  0  0  0  0  0  0  0
   27.2090   18.7080   17.2330 C   0  0  0  0  0  0  0  0  0  0  0  0
   27.1480   20.1750   16.8770 C   0  0  0  0  0  0  0  0  0  0  0  0
   27.5390   21.0560   17.6380 O   0  0  0  0  0  0  0  0  0  0  0  0
   26.6550   20.4860   15.6350 N   0  0  0  0  0  0  0  0  0  0  0  0
   25.8960   19.6640   14.8410 C   0  0  0  0  0  0  0  0  0  0  0  0
   25.1790   20.1210   13.9510 O   0  0  0  0  0  0  0  0  0  0  0  0
   23.5940   15.3990   12.2920 C   0  0  0  0  0  0  0  0  0  0  0  0
   24.5080   15.6130   10.8250 S   0  0  0  0  0  0  0  0  0  0  0  0
   20.9760   15.1180    6.5270 C   0  0  0  0  0  0  0  0  0  0  0  0
   19.8090   15.7250    6.4670 N   0  0  0  0  0  0  0  0  0  0  0  0
   18.8831   19.2843    8.7111 H   0  0  0  0  0  0  0  0  0  0  0  0
   19.7370   18.9604    7.1644 H   0  0  0  0  0  0  0  0  0  0  0  0
   17.9698   19.2823    7.1644 H   0  0  0  0  0  0  0  0  0  0  0  0
   18.1981   17.1386    8.9133 H   0  0  0  0  0  0  0  0  0  0  0  0
   17.7499   17.0450    7.1561 H   0  0  0  0  0  0  0  0  0  0  0  0
   21.1151   16.8338    9.3270 H   0  0  0  0  0  0  0  0  0  0  0  0
   21.1645   14.1959   10.3179 H   0  0  0  0  0  0  0  0  0  0  0  0
   22.1799   15.1287   15.1828 H   0  0  0  0  0  0  0  0  0  0  0  0
   24.1386   18.0511   14.0740 H   0  0  0  0  0  0  0  0  0  0  0  0
   26.9405   17.7464   14.7088 H   0  0  0  0  0  0  0  0  0  0  0  0
   25.0997   18.3062   17.0732 H   0  0  0  0  0  0  0  0  0  0  0  0
   26.1555   16.8709   16.8444 H   0  0  0  0  0  0  0  0  0  0  0  0
   27.1804   18.6035   18.3277 H   0  0  0  0  0  0  0  0  0  0  0  0
   28.1420   18.2908   16.8262 H   0  0  0  0  0  0  0  0  0  0  0  0
   26.8747   21.4218   15.2650 H   0  0  0  0  0  0  0  0  0  0  0  0
   21.3503   14.4043    5.7784 H   0  0  0  0  0  0  0  0  0  0  0  0
  1  2  1  0
  2  3  1  0
  3  4  2  0
  4  5  1  0
  5  6  1  0
  6  7  2  0
  6  8  2  0
  6  9  1  0
  9 10  2  0
 10 11  1  0
 11 12  1  0
 12 13  2  0
 13 14  1  0
 14 15  1  0
 15 16  2  0
 15 17  1  0
 17 18  1  0
 18 19  1  0
 19 20  1  0
 20 21  1  0
 21 22  2  0
 21 23  1  0
 23 24  1  0
 24 25  2  0
 14 26  2  0
 26 27  1  0
  5 28  1  0
 28 29  2  0
 29  3  1  0
 27  9  1  0
 26 11  1  0
 24 18  1  0
  1 30  1  0
  1 31  1  0
  1 32  1  0
  2 33  1  0
  2 34  1  0
  4 35  1  0
 10 36  1  0
 13 37  1  0
 17 38  1  0
 18 39  1  6
 19 40  1  0
 19 41  1  0
 20 42  1  0
 20 43  1  0
 23 44  1  0
 28 45  1  0
M  END
>  <meeko>  (963) 
{"is_sidechain": [true], "free_energy": -10.36, "intermolecular_energy": 0.0, "internal_energy": -10.36, "cluster_size": 17, "cluster_id": 1, "rank_in_cluster": 1}

>  <_RMSD_MCS_to_ref>  (963) 
0.6698698878638047

$$$$
ligand
     RDKit          3D

 47 50  0  0  0  0  0  0  0  0999 V2000
   18.7970   18.8170    7.7190 C   0  0  0  0  0  0  0  0  0  0  0  0
   18.5280   17.3290    7.8810 C   0  0  0  0  0  0  0  0  0  0  0  0
   19.7840   16.5360    7.9610 C   0  0  0  0  0  0  0  0  0  0  0  0
   20.0970   15.4870    8.8030 C   0  0  0  0  0  0  0  0  0  0  0  0
   21.3760   15.1510    8.4570 N   0  0  0  0  0  0  0  0  0  0  0  0
   22.2740   13.9010    9.1280 S   0  0  0  0  0  6  0  0  0  0  0  0
   21.3320   12.9120    9.6130 O   0  0  0  0  0  0  0  0  0  0  0  0
   23.2640   13.5830    8.1150 O   0  0  0  0  0  0  0  0  0  0  0  0
   23.1280   14.5790   10.5180 C   0  0  0  0  0  0  0  0  0  0  0  0
   24.4120   15.1010   10.3230 C   0  0  0  0  0  0  0  0  0  0  0  0
   25.1120   15.6400   11.3940 C   0  0  0  0  0  0  0  0  0  0  0  0
   24.5630   15.6630   12.6890 C   0  0  0  0  0  0  0  0  0  0  0  0
   25.3910   16.2570   13.7680 C   0  0  0  0  0  0  0  0  0  0  0  0
   25.9210   15.5250   14.5980 O   0  0  0  0  0  0  0  0  0  0  0  0
   25.4950   17.6250   13.8140 N   0  0  0  0  0  0  0  0  0  0  0  0
   26.3650   18.2950   14.7710 C   0  0  2  0  0  0  0  0  0  0  0  0
   25.9890   17.9780   16.2150 C   0  0  0  0  0  0  0  0  0  0  0  0
   26.9160   18.7290   17.1570 C   0  0  0  0  0  0  0  0  0  0  0  0
   26.8940   20.2140   16.8810 C   0  0  0  0  0  0  0  0  0  0  0  0
   27.0140   21.0510   17.7700 O   0  0  0  0  0  0  0  0  0  0  0  0
   26.7580   20.5930   15.5700 N   0  0  0  0  0  0  0  0  0  0  0  0
   26.2650   19.8090   14.5560 C   0  0  0  0  0  0  0  0  0  0  0  0
   25.7830   20.3100   13.5410 O   0  0  0  0  0  0  0  0  0  0  0  0
   23.2620   15.1440   12.8720 C   0  0  0  0  0  0  0  0  0  0  0  0
   22.2590   15.0660   14.2850 S   0  0  0  0  0  0  0  0  0  0  0  0
   21.0280   14.3050   13.3880 C   0  0  0  0  0  0  0  0  0  0  0  0
   21.2850   14.1080   12.1180 N   0  0  0  0  0  0  0  0  0  0  0  0
   22.5400   14.5940   11.7970 C   0  0  0  0  0  0  0  0  0  0  0  0
   21.7900   15.9550    7.4440 C   0  0  0  0  0  0  0  0  0  0  0  0
   20.8450   16.8140    7.1210 N   0  0  0  0  0  0  0  0  0  0  0  0
   18.8815   19.2845    8.7111 H   0  0  0  0  0  0  0  0  0  0  0  0
   19.7359   18.9616    7.1643 H   0  0  0  0  0  0  0  0  0  0  0  0
   17.9682   19.2812    7.1643 H   0  0  0  0  0  0  0  0  0  0  0  0
   17.9506   17.1719    8.8040 H   0  0  0  0  0  0  0  0  0  0  0  0
   17.9697   16.9887    6.9964 H   0  0  0  0  0  0  0  0  0  0  0  0
   19.4625   15.0273    9.5751 H   0  0  0  0  0  0  0  0  0  0  0  0
   24.8664   15.0842    9.3214 H   0  0  0  0  0  0  0  0  0  0  0  0
   26.1159   16.0574   11.2266 H   0  0  0  0  0  0  0  0  0  0  0  0
   24.9435   18.1924   13.1546 H   0  0  0  0  0  0  0  0  0  0  0  0
   27.3903   17.9339   14.6026 H   0  0  0  0  0  0  0  0  0  0  0  0
   24.9497   18.2874   16.3996 H   0  0  0  0  0  0  0  0  0  0  0  0
   26.0864   16.8964   16.3901 H   0  0  0  0  0  0  0  0  0  0  0  0
   26.5931   18.5525   18.1936 H   0  0  0  0  0  0  0  0  0  0  0  0
   27.9412   18.3621   17.0007 H   0  0  0  0  0  0  0  0  0  0  0  0
   27.0513   21.5493   15.3244 H   0  0  0  0  0  0  0  0  0  0  0  0
   20.0762   13.9978   13.8459 H   0  0  0  0  0  0  0  0  0  0  0  0
   22.7765   15.8971    6.9608 H   0  0  0  0  0  0  0  0  0  0  0  0
  1  2  1  0
  2  3  1  0
  3  4  2  0
  4  5  1  0
  5  6  1  0
  6  7  2  0
  6  8  2  0
  6  9  1  0
  9 10  2  0
 10 11  1  0
 11 12  2  0
 12 13  1  0
 13 14  2  0
 13 15  1  0
 15 16  1  0
 16 17  1  0
 17 18  1  0
 18 19  1  0
 19 20  2  0
 19 21  1  0
 21 22  1  0
 22 23  2  0
 12 24  1  0
 24 25  1  0
 25 26  1  0
 26 27  2  0
 27 28  1  0
  5 29  1  0
 29 30  2  0
 30  3  1  0
 28  9  1  0
 22 16  1  0
 28 24  2  0
  1 31  1  0
  1 32  1  0
  1 33  1  0
  2 34  1  0
  2 35  1  0
  4 36  1  0
 10 37  1  0
 11 38  1  0
 15 39  1  0
 16 40  1  6
 17 41  1  0
 17 42  1  0
 18 43  1  0
 18 44  1  0
 21 45  1  0
 26 46  1  0
 29 47  1  0
M  END
>  <meeko>  (964) 
{"is_sidechain": [true], "free_energy": -10.36, "intermolecular_energy": 0.0, "internal_energy": -10.36, "cluster_size": 18, "cluster_id": 1, "rank_in_cluster": 1}

>  <_RMSD_MCS_to_ref>  (964) 
0.7986270858305654

$$$$
ligand
     RDKit          3D

 49 52  0  0  0  0  0  0  0  0999 V2000
   18.9090   19.1540    7.5370 C   0  0  0  0  0  0  0  0  0  0  0  0
   18.7730   17.6460    7.6780 C   0  0  0  0  0  0  0  0  0  0  0  0
   20.0920   16.9570    7.6330 C   0  0  0  0  0  0  0  0  0  0  0  0
   20.8290   16.4240    8.6710 C   0  0  0  0  0  0  0  0  0  0  0  0
   21.9380   15.9070    8.0650 N   0  0  0  0  0  0  0  0  0  0  0  0
   23.2950   15.3070    8.8500 S   0  0  0  0  0  6  0  0  0  0  0  0
   23.8180   14.2680    7.9810 O   0  0  0  0  0  0  0  0  0  0  0  0
   24.0780   16.4610    9.2480 O   0  0  0  0  0  0  0  0  0  0  0  0
   22.6330   14.5350   10.3010 C   0  0  0  0  0  0  0  0  0  0  0  0
   21.6990   13.4960   10.1530 C   0  0  0  0  0  0  0  0  0  0  0  0
   21.1690   12.8510   11.2690 C   0  0  0  0  0  0  0  0  0  0  0  0
   21.5500   13.2300   12.5610 C   0  0  0  0  0  0  0  0  0  0  0  0
   22.4690   14.2820   12.7340 C   0  0  0  0  0  0  0  0  0  0  0  0
   23.0490   14.9100   13.8710 C   0  0  0  0  0  0  0  0  0  0  0  0
   23.8980   15.9130   13.4360 C   0  0  0  0  0  0  0  0  0  0  0  0
   24.7360   16.8570   14.1390 C   0  0  0  0  0  0  0  0  0  0  0  0
   25.9620   16.7790   14.1330 O   0  0  0  0  0  0  0  0  0  0  0  0
   24.0710   17.8390   14.8280 N   0  0  0  0  0  0  0  0  0  0  0  0
   24.7710   18.7720   15.6960 C   0  0  1  0  0  0  0  0  0  0  0  0
   25.8200   18.0820   16.5630 C   0  0  0  0  0  0  0  0  0  0  0  0
   26.5360   19.1200   17.4140 C   0  0  0  0  0  0  0  0  0  0  0  0
   27.1380   20.2100   16.5590 C   0  0  0  0  0  0  0  0  0  0  0  0
   28.1910   20.7710   16.8510 O   0  0  0  0  0  0  0  0  0  0  0  0
   26.4350   20.5720   15.4380 N   0  0  0  0  0  0  0  0  0  0  0  0
   25.4630   19.8240   14.8230 C   0  0  0  0  0  0  0  0  0  0  0  0
   25.1690   20.0060   13.6420 O   0  0  0  0  0  0  0  0  0  0  0  0
   23.8290   15.9070   12.0590 N   0  0  0  0  0  0  0  0  0  0  0  0
   22.9850   14.9160   11.6070 C   0  0  0  0  0  0  0  0  0  0  0  0
   21.8760   16.1630    6.7330 C   0  0  0  0  0  0  0  0  0  0  0  0
   20.7590   16.7930    6.4340 N   0  0  0  0  0  0  0  0  0  0  0  0
   18.9504   19.6134    8.5356 H   0  0  0  0  0  0  0  0  0  0  0  0
   19.8320   19.3891    6.9867 H   0  0  0  0  0  0  0  0  0  0  0  0
   18.0430   19.5504    6.9867 H   0  0  0  0  0  0  0  0  0  0  0  0
   18.2888   17.4222    8.6400 H   0  0  0  0  0  0  0  0  0  0  0  0
   18.1713   17.2802    6.8330 H   0  0  0  0  0  0  0  0  0  0  0  0
   20.5798   16.4172    9.7424 H   0  0  0  0  0  0  0  0  0  0  0  0
   21.3826   13.1883    9.1454 H   0  0  0  0  0  0  0  0  0  0  0  0
   20.4436   12.0354   11.1327 H   0  0  0  0  0  0  0  0  0  0  0  0
   21.1339   12.7091   13.4359 H   0  0  0  0  0  0  0  0  0  0  0  0
   22.8552   14.6432   14.9204 H   0  0  0  0  0  0  0  0  0  0  0  0
   23.0489   17.9175   14.7279 H   0  0  0  0  0  0  0  0  0  0  0  0
   24.0314   19.2301   16.3691 H   0  0  0  0  0  0  0  0  0  0  0  0
   25.3290   17.3466   17.2174 H   0  0  0  0  0  0  0  0  0  0  0  0
   26.5493   17.5695   15.9185 H   0  0  0  0  0  0  0  0  0  0  0  0
   25.8151   19.5696   18.1127 H   0  0  0  0  0  0  0  0  0  0  0  0
   27.3483   18.6197   17.9615 H   0  0  0  0  0  0  0  0  0  0  0  0
   26.6567   21.4872   15.0207 H   0  0  0  0  0  0  0  0  0  0  0  0
   24.3416   16.5585   11.4477 H   0  0  0  0  0  0  0  0  0  0  0  0
   22.6513   15.8830    6.0047 H   0  0  0  0  0  0  0  0  0  0  0  0
  1  2  1  0
  2  3  1  0
  3  4  2  0
  4  5  1  0
  5  6  1  0
  6  7  2  0
  6  8  2  0
  6  9  1  0
  9 10  2  0
 10 11  1  0
 11 12  2  0
 12 13  1  0
 13 14  1  0
 14 15  2  0
 15 16  1  0
 16 17  2  0
 16 18  1  0
 18 19  1  0
 19 20  1  0
 20 21  1  0
 21 22  1  0
 22 23  2  0
 22 24  1  0
 24 25  1  0
 25 26  2  0
 15 27  1  0
 27 28  1  0
  5 29  1  0
 29 30  2  0
 30  3  1  0
 28  9  1  0
 28 13  2  0
 25 19  1  0
  1 31  1  0
  1 32  1  0
  1 33  1  0
  2 34  1  0
  2 35  1  0
  4 36  1  0
 10 37  1  0
 11 38  1  0
 12 39  1  0
 14 40  1  0
 18 41  1  0
 19 42  1  1
 20 43  1  0
 20 44  1  0
 21 45  1  0
 21 46  1  0
 24 47  1  0
 27 48  1  0
 29 49  1  0
M  END
>  <meeko>  (965) 
{"is_sidechain": [true], "free_energy": -10.36, "intermolecular_energy": 0.0, "internal_energy": -10.36, "cluster_size": 19, "cluster_id": 1, "rank_in_cluster": 1}

>  <_RMSD_MCS_to_ref>  (965) 
0.7777497990999419

$$$$
ligand
     RDKit          3D

 47 50  0  0  0  0  0  0  0  0999 V2000
   18.9090   19.1540    7.5370 C   0  0  0  0  0  0  0  0  0  0  0  0
   18.7730   17.6460    7.6780 C   0  0  0  0  0  0  0  0  0  0  0  0
   20.0430   16.9370    7.3630 C   0  0  0  0  0  0  0  0  0  0  0  0
   20.7390   16.0220    8.1280 C   0  0  0  0  0  0  0  0  0  0  0  0
   21.8140   15.6890    7.3550 N   0  0  0  0  0  0  0  0  0  0  0  0
   23.0830   14.6970    7.8140 S   0  0  0  0  0  6  0  0  0  0  0  0
   22.5020   13.3920    8.0660 O   0  0  0  0  0  0  0  0  0  0  0  0
   24.1520   14.9070    6.8590 O   0  0  0  0  0  0  0  0  0  0  0  0
   23.7380   15.1650    9.3090 C   0  0  0  0  0  0  0  0  0  0  0  0
   24.9780   15.7790    9.4910 C   0  0  0  0  0  0  0  0  0  0  0  0
   25.2280   16.0460   10.7740 N   0  0  0  0  0  0  0  0  0  0  0  0
   24.1260   15.5990   11.4470 N   0  0  0  0  0  0  0  0  0  0  0  0
   23.8700   15.6340   12.8210 C   0  0  0  0  0  0  0  0  0  0  0  0
   24.8100   16.1930   13.8340 C   0  0  0  0  0  0  0  0  0  0  0  0
   25.3190   15.4800   14.6960 O   0  0  0  0  0  0  0  0  0  0  0  0
   25.0740   17.5320   13.7450 N   0  0  0  0  0  0  0  0  0  0  0  0
   26.0160   18.2010   14.6260 C   0  0  2  0  0  0  0  0  0  0  0  0
   25.7100   17.9200   16.0940 C   0  0  0  0  0  0  0  0  0  0  0  0
   26.7150   18.6460   16.9730 C   0  0  0  0  0  0  0  0  0  0  0  0
   26.7310   20.1270   16.6780 C   0  0  0  0  0  0  0  0  0  0  0  0
   26.9620   20.9670   17.5430 O   0  0  0  0  0  0  0  0  0  0  0  0
   26.5100   20.4970   15.3760 N   0  0  0  0  0  0  0  0  0  0  0  0
   25.9720   19.7140   14.3830 C   0  0  0  0  0  0  0  0  0  0  0  0
   25.5120   20.2220   13.3620 O   0  0  0  0  0  0  0  0  0  0  0  0
   22.7090   15.1390   13.2880 C   0  0  0  0  0  0  0  0  0  0  0  0
   21.7830   14.5840   12.2710 C   0  0  0  0  0  0  0  0  0  0  0  0
   21.9960   14.5360   10.9920 N   0  0  0  0  0  0  0  0  0  0  0  0
   23.1860   15.0490   10.5590 C   0  0  0  0  0  0  0  0  0  0  0  0
   21.7800   16.4140    6.2080 C   0  0  0  0  0  0  0  0  0  0  0  0
   20.7000   17.1690    6.1700 N   0  0  0  0  0  0  0  0  0  0  0  0
   18.9504   19.6134    8.5356 H   0  0  0  0  0  0  0  0  0  0  0  0
   19.8320   19.3891    6.9867 H   0  0  0  0  0  0  0  0  0  0  0  0
   18.0430   19.5504    6.9867 H   0  0  0  0  0  0  0  0  0  0  0  0
   18.4831   17.4113    8.7128 H   0  0  0  0  0  0  0  0  0  0  0  0
   18.0094   17.3066    6.9626 H   0  0  0  0  0  0  0  0  0  0  0  0
   20.4854   15.6472    9.1306 H   0  0  0  0  0  0  0  0  0  0  0  0
   25.6706   16.0159    8.6699 H   0  0  0  0  0  0  0  0  0  0  0  0
   24.5869   18.0868   13.0267 H   0  0  0  0  0  0  0  0  0  0  0  0
   27.0190   17.8098   14.4004 H   0  0  0  0  0  0  0  0  0  0  0  0
   24.6952   18.2726   16.3303 H   0  0  0  0  0  0  0  0  0  0  0  0
   25.7769   16.8379   16.2802 H   0  0  0  0  0  0  0  0  0  0  0  0
   26.4444   18.4935   18.0282 H   0  0  0  0  0  0  0  0  0  0  0  0
   27.7158   18.2393   16.7658 H   0  0  0  0  0  0  0  0  0  0  0  0
   26.7737   21.4582   15.1164 H   0  0  0  0  0  0  0  0  0  0  0  0
   22.4616   15.1456   14.3598 H   0  0  0  0  0  0  0  0  0  0  0  0
   20.8283   14.1757   12.6343 H   0  0  0  0  0  0  0  0  0  0  0  0
   22.5467   16.3768    5.4201 H   0  0  0  0  0  0  0  0  0  0  0  0
  1  2  1  0
  2  3  1  0
  3  4  2  0
  4  5  1  0
  5  6  1  0
  6  7  2  0
  6  8  2  0
  6  9  1  0
  9 10  1  0
 10 11  2  0
 11 12  1  0
 12 13  1  0
 13 14  1  0
 14 15  2  0
 14 16  1  0
 16 17  1  0
 17 18  1  0
 18 19  1  0
 19 20  1  0
 20 21  2  0
 20 22  1  0
 22 23  1  0
 23 24  2  0
 13 25  2  0
 25 26  1  0
 26 27  2  0
 27 28  1  0
  5 29  1  0
 29 30  2  0
 30  3  1  0
 28  9  2  0
 28 12  1  0
 23 17  1  0
  1 31  1  0
  1 32  1  0
  1 33  1  0
  2 34  1  0
  2 35  1  0
  4 36  1  0
 10 37  1  0
 16 38  1  0
 17 39  1  6
 18 40  1  0
 18 41  1  0
 19 42  1  0
 19 43  1  0
 22 44  1  0
 25 45  1  0
 26 46  1  0
 29 47  1  0
M  END
>  <meeko>  (966) 
{"is_sidechain": [true], "free_energy": -10.36, "intermolecular_energy": 0.0, "internal_energy": -10.36, "cluster_size": 9, "cluster_id": 1, "rank_in_cluster": 1}

>  <_RMSD_MCS_to_ref>  (966) 
0.6922126359243476

$$$$
ligand
     RDKit          3D

 42 44  0  0  0  0  0  0  0  0999 V2000
   18.9090   19.1540    7.5370 C   0  0  0  0  0  0  0  0  0  0  0  0
   18.7730   17.6460    7.6780 C   0  0  0  0  0  0  0  0  0  0  0  0
   20.0890   16.9540    7.6100 C   0  0  0  0  0  0  0  0  0  0  0  0
   20.8820   16.4900    8.6410 C   0  0  0  0  0  0  0  0  0  0  0  0
   21.9490   15.9180    8.0110 N   0  0  0  0  0  0  0  0  0  0  0  0
   23.3520   15.3870    8.7550 S   0  0  0  0  0  6  0  0  0  0  0  0
   23.3390   13.9400    8.6830 O   0  0  0  0  0  0  0  0  0  0  0  0
   24.4330   16.2010    8.2430 O   0  0  0  0  0  0  0  0  0  0  0  0
   23.2640   15.7460   10.4660 C   0  0  0  0  0  0  0  0  0  0  0  0
   24.0640   16.4170   11.3680 C   0  0  0  0  0  0  0  0  0  0  0  0
   23.3890   16.3400   12.6140 C   0  0  0  0  0  0  0  0  0  0  0  0
   23.8340   16.9010   13.8990 C   0  0  0  0  0  0  0  0  0  0  0  0
   23.5800   16.3760   14.9780 O   0  0  0  0  0  0  0  0  0  0  0  0
   24.5500   18.0680   13.7730 N   0  0  0  0  0  0  0  0  0  0  0  0
   24.9280   18.8790   14.9130 C   0  0  1  0  0  0  0  0  0  0  0  0
   25.8810   18.1400   15.8480 C   0  0  0  0  0  0  0  0  0  0  0  0
   26.2590   19.0440   17.0090 C   0  0  0  0  0  0  0  0  0  0  0  0
   26.8510   20.3460   16.5200 C   0  0  0  0  0  0  0  0  0  0  0  0
   27.7240   20.9450   17.1400 O   0  0  0  0  0  0  0  0  0  0  0  0
   26.3400   20.8510   15.3520 N   0  0  0  0  0  0  0  0  0  0  0  0
   25.6060   20.1600   14.4190 C   0  0  0  0  0  0  0  0  0  0  0  0
   25.4970   20.5790   13.2670 O   0  0  0  0  0  0  0  0  0  0  0  0
   22.2320   15.6600   12.4900 N   0  0  0  0  0  0  0  0  0  0  0  0
   22.1990   15.3010   11.1950 N   0  0  0  0  0  0  0  0  0  0  0  0
   21.8240   16.0970    6.6710 C   0  0  0  0  0  0  0  0  0  0  0  0
   20.6930   16.7100    6.3910 N   0  0  0  0  0  0  0  0  0  0  0  0
   18.9504   19.6134    8.5356 H   0  0  0  0  0  0  0  0  0  0  0  0
   19.8320   19.3891    6.9867 H   0  0  0  0  0  0  0  0  0  0  0  0
   18.0430   19.5504    6.9867 H   0  0  0  0  0  0  0  0  0  0  0  0
   18.3045   17.4217    8.6476 H   0  0  0  0  0  0  0  0  0  0  0  0
   18.1569   17.2829    6.8422 H   0  0  0  0  0  0  0  0  0  0  0  0
   20.6962   16.5644    9.7226 H   0  0  0  0  0  0  0  0  0  0  0  0
   25.0260   16.9097   11.1636 H   0  0  0  0  0  0  0  0  0  0  0  0
   24.8287   18.3781   12.8312 H   0  0  0  0  0  0  0  0  0  0  0  0
   24.0130   19.1142   15.4764 H   0  0  0  0  0  0  0  0  0  0  0  0
   25.3875   17.2357   16.2337 H   0  0  0  0  0  0  0  0  0  0  0  0
   26.7887   17.8567   15.2950 H   0  0  0  0  0  0  0  0  0  0  0  0
   25.3587   19.2602   17.6029 H   0  0  0  0  0  0  0  0  0  0  0  0
   27.0133   18.5272   17.6206 H   0  0  0  0  0  0  0  0  0  0  0  0
   26.5245   21.8450   15.1552 H   0  0  0  0  0  0  0  0  0  0  0  0
   21.4372   14.7395   10.7885 H   0  0  0  0  0  0  0  0  0  0  0  0
   22.5642   15.7749    5.9238 H   0  0  0  0  0  0  0  0  0  0  0  0
  1  2  1  0
  2  3  1  0
  3  4  2  0
  4  5  1  0
  5  6  1  0
  6  7  2  0
  6  8  2  0
  6  9  1  0
  9 10  2  0
 10 11  1  0
 11 12  1  0
 12 13  2  0
 12 14  1  0
 14 15  1  0
 15 16  1  0
 16 17  1  0
 17 18  1  0
 18 19  2  0
 18 20  1  0
 20 21  1  0
 21 22  2  0
 11 23  2  0
 23 24  1  0
  5 25  1  0
 25 26  2  0
 26  3  1  0
 24  9  1  0
 21 15  1  0
  1 27  1  0
  1 28  1  0
  1 29  1  0
  2 30  1  0
  2 31  1  0
  4 32  1  0
 10 33  1  0
 14 34  1  0
 15 35  1  1
 16 36  1  0
 16 37  1  0
 17 38  1  0
 17 39  1  0
 20 40  1  0
 24 41  1  0
 25 42  1  0
M  END
>  <meeko>  (967) 
{"is_sidechain": [true], "free_energy": -10.36, "intermolecular_energy": 0.0, "internal_energy": -10.36, "cluster_size": 20, "cluster_id": 1, "rank_in_cluster": 1}

>  <_RMSD_MCS_to_ref>  (967) 
0.5929017156700133

$$$$
ligand
     RDKit          3D

 50 53  0  0  0  0  0  0  0  0999 V2000
   18.9090   19.1540    7.5370 C   0  0  0  0  0  0  0  0  0  0  0  0
   18.7730   17.6460    7.6780 C   0  0  0  0  0  0  0  0  0  0  0  0
   20.0860   16.9530    7.5750 C   0  0  0  0  0  0  0  0  0  0  0  0
   20.6310   15.9950    8.4080 C   0  0  0  0  0  0  0  0  0  0  0  0
   21.8500   15.7230    7.8540 N   0  0  0  0  0  0  0  0  0  0  0  0
   22.8890   14.5030    8.3480 S   0  0  0  0  0  6  0  0  0  0  0  0
   23.9750   14.4080    7.3890 O   0  0  0  0  0  0  0  0  0  0  0  0
   22.0030   13.3690    8.5600 O   0  0  0  0  0  0  0  0  0  0  0  0
   23.5420   15.0290    9.9260 C   0  0  0  0  0  0  0  0  0  0  0  0
   23.1300   16.2950   10.2400 N   0  0  0  0  0  0  0  0  0  0  0  0
   23.4270   16.7620   11.4690 C   0  0  0  0  0  0  0  0  0  0  0  0
   24.0950   16.0190   12.4310 C   0  0  0  0  0  0  0  0  0  0  0  0
   24.3580   16.6590   13.7370 C   0  0  0  0  0  0  0  0  0  0  0  0
   24.0000   16.1230   14.7770 O   0  0  0  0  0  0  0  0  0  0  0  0
   25.0080   17.8720   13.6890 N   0  0  0  0  0  0  0  0  0  0  0  0
   25.2000   18.6710   14.8950 C   0  0  1  0  0  0  0  0  0  0  0  0
   26.1530   18.0070   15.8820 C   0  0  0  0  0  0  0  0  0  0  0  0
   26.3410   18.9120   17.0910 C   0  0  0  0  0  0  0  0  0  0  0  0
   26.8210   20.2850   16.6810 C   0  0  0  0  0  0  0  0  0  0  0  0
   27.5790   20.9520   17.3770 O   0  0  0  0  0  0  0  0  0  0  0  0
   26.3400   20.7740   15.4920 N   0  0  0  0  0  0  0  0  0  0  0  0
   25.7720   20.0320   14.4870 C   0  0  0  0  0  0  0  0  0  0  0  0
   25.7200   20.4510   13.3310 O   0  0  0  0  0  0  0  0  0  0  0  0
   24.5270   14.7240   12.1000 C   0  0  0  0  0  0  0  0  0  0  0  0
   25.2100   13.8490   13.0700 C   0  0  0  0  0  0  0  0  0  0  0  0
   25.5930   12.6200   12.7130 C   0  0  0  0  0  0  0  0  0  0  0  0
   25.3830   12.1600   11.4470 N   0  0  0  0  0  0  0  0  0  0  0  0
   24.7890   12.8870   10.4440 C   0  0  0  0  0  0  0  0  0  0  0  0
   24.7540   12.4610    9.3010 O   0  0  0  0  0  0  0  0  0  0  0  0
   24.2600   14.2240   10.8010 C   0  0  0  0  0  0  0  0  0  0  0  0
   21.9830   16.4350    6.7050 C   0  0  0  0  0  0  0  0  0  0  0  0
   20.9370   17.2170    6.5210 N   0  0  0  0  0  0  0  0  0  0  0  0
   18.9504   19.6134    8.5356 H   0  0  0  0  0  0  0  0  0  0  0  0
   19.8320   19.3891    6.9867 H   0  0  0  0  0  0  0  0  0  0  0  0
   18.0430   19.5504    6.9867 H   0  0  0  0  0  0  0  0  0  0  0  0
   18.3288   17.4202    8.6587 H   0  0  0  0  0  0  0  0  0  0  0  0
   18.1347   17.2855    6.8579 H   0  0  0  0  0  0  0  0  0  0  0  0
   20.1853   15.5523    9.3110 H   0  0  0  0  0  0  0  0  0  0  0  0
   23.1231   17.7882   11.7229 H   0  0  0  0  0  0  0  0  0  0  0  0
   25.3643   18.2209   12.7877 H   0  0  0  0  0  0  0  0  0  0  0  0
   24.2260   18.7772   15.3951 H   0  0  0  0  0  0  0  0  0  0  0  0
   25.7325   17.0438   16.2066 H   0  0  0  0  0  0  0  0  0  0  0  0
   27.1251   17.8369   15.3960 H   0  0  0  0  0  0  0  0  0  0  0  0
   25.3801   19.0109   17.6172 H   0  0  0  0  0  0  0  0  0  0  0  0
   27.1000   18.4609   17.7471 H   0  0  0  0  0  0  0  0  0  0  0  0
   26.4119   21.7902   15.3403 H   0  0  0  0  0  0  0  0  0  0  0  0
   25.4049   14.2092   14.0909 H   0  0  0  0  0  0  0  0  0  0  0  0
   26.0850   11.9697   13.4513 H   0  0  0  0  0  0  0  0  0  0  0  0
   25.6907   11.2019   11.2275 H   0  0  0  0  0  0  0  0  0  0  0  0
   22.8434   16.3686    6.0228 H   0  0  0  0  0  0  0  0  0  0  0  0
  1  2  1  0
  2  3  1  0
  3  4  2  0
  4  5  1  0
  5  6  1  0
  6  7  2  0
  6  8  2  0
  6  9  1  0
  9 10  2  0
 10 11  1  0
 11 12  2  0
 12 13  1  0
 13 14  2  0
 13 15  1  0
 15 16  1  0
 16 17  1  0
 17 18  1  0
 18 19  1  0
 19 20  2  0
 19 21  1  0
 21 22  1  0
 22 23  2  0
 12 24  1  0
 24 25  1  0
 25 26  2  0
 26 27  1  0
 27 28  1  0
 28 29  2  0
 28 30  1  0
  5 31  1  0
 31 32  2  0
 32  3  1  0
 30  9  1  0
 22 16  1  0
 30 24  2  0
  1 33  1  0
  1 34  1  0
  1 35  1  0
  2 36  1  0
  2 37  1  0
  4 38  1  0
 11 39  1  0
 15 40  1  0
 16 41  1  1
 17 42  1  0
 17 43  1  0
 18 44  1  0
 18 45  1  0
 21 46  1  0
 25 47  1  0
 26 48  1  0
 27 49  1  0
 31 50  1  0
M  END
>  <meeko>  (968) 
{"is_sidechain": [true], "free_energy": -10.36, "intermolecular_energy": 0.0, "internal_energy": -10.36, "cluster_size": 19, "cluster_id": 1, "rank_in_cluster": 1}

>  <_RMSD_MCS_to_ref>  (968) 
0.6016931665447651

$$$$
ligand
     RDKit          3D

 45 48  0  0  0  0  0  0  0  0999 V2000
   18.9090   19.1540    7.5370 C   0  0  0  0  0  0  0  0  0  0  0  0
   18.7730   17.6460    7.6780 C   0  0  0  0  0  0  0  0  0  0  0  0
   20.0910   16.9550    7.6230 C   0  0  0  0  0  0  0  0  0  0  0  0
   20.8490   16.4550    8.6630 C   0  0  0  0  0  0  0  0  0  0  0  0
   21.9680   15.9550    8.0570 N   0  0  0  0  0  0  0  0  0  0  0  0
   23.4210   15.5940    8.8360 S   0  0  0  0  0  6  0  0  0  0  0  0
   23.9080   14.3820    8.2050 O   0  0  0  0  0  0  0  0  0  0  0  0
   24.1790   16.8300    8.8530 O   0  0  0  0  0  0  0  0  0  0  0  0
   22.9230   15.2080   10.4960 C   0  0  0  0  0  0  0  0  0  0  0  0
   21.7550   14.5070   10.7440 C   0  0  0  0  0  0  0  0  0  0  0  0
   21.4040   14.3020   12.0780 C   0  0  0  0  0  0  0  0  0  0  0  0
   22.2160   14.8120   13.0950 C   0  0  0  0  0  0  0  0  0  0  0  0
   23.3670   15.5020   12.7350 C   0  0  0  0  0  0  0  0  0  0  0  0
   24.2580   16.1190   13.7690 C   0  0  0  0  0  0  0  0  0  0  0  0
   24.6300   15.4960   14.7550 O   0  0  0  0  0  0  0  0  0  0  0  0
   24.5940   17.4360   13.5100 N   0  0  0  0  0  0  0  0  0  0  0  0
   25.1920   18.3150   14.5300 C   0  0  1  0  0  0  0  0  0  0  0  0
   24.4590   18.3250   15.9200 C   0  0  0  0  0  0  0  0  0  0  0  0
   25.8960   18.5980   16.4770 C   0  0  1  0  0  0  0  0  0  0  0  0
   26.3570   17.6310   15.3340 C   0  0  0  0  0  0  0  0  0  0  0  0
   26.3770   20.0910   16.2780 C   0  0  0  0  0  0  0  0  0  0  0  0
   26.9800   20.7830   17.0940 O   0  0  0  0  0  0  0  0  0  0  0  0
   26.0790   20.5830   15.0220 N   0  0  0  0  0  0  0  0  0  0  0  0
   25.6080   19.7790   13.9990 C   0  0  0  0  0  0  0  0  0  0  0  0
   25.6040   20.1880   12.8380 O   0  0  0  0  0  0  0  0  0  0  0  0
   23.7480   15.7030   11.4490 N   0  0  0  0  0  0  0  0  0  0  0  0
   21.8690   16.1560    6.7150 C   0  0  0  0  0  0  0  0  0  0  0  0
   20.7440   16.7740    6.4190 N   0  0  0  0  0  0  0  0  0  0  0  0
   18.9504   19.6134    8.5356 H   0  0  0  0  0  0  0  0  0  0  0  0
   19.8320   19.3891    6.9867 H   0  0  0  0  0  0  0  0  0  0  0  0
   18.0430   19.5504    6.9867 H   0  0  0  0  0  0  0  0  0  0  0  0
   18.2956   17.4220    8.6434 H   0  0  0  0  0  0  0  0  0  0  0  0
   18.1651   17.2815    6.8368 H   0  0  0  0  0  0  0  0  0  0  0  0
   20.6074   16.4582    9.7361 H   0  0  0  0  0  0  0  0  0  0  0  0
   21.1296   14.1274    9.9225 H   0  0  0  0  0  0  0  0  0  0  0  0
   20.4916   13.7411   12.3289 H   0  0  0  0  0  0  0  0  0  0  0  0
   21.9506   14.6707   14.1531 H   0  0  0  0  0  0  0  0  0  0  0  0
   24.4195   17.8162   12.5688 H   0  0  0  0  0  0  0  0  0  0  0  0
   23.7321   19.1375   16.0663 H   0  0  0  0  0  0  0  0  0  0  0  0
   23.8095   17.5113   16.2751 H   0  0  0  0  0  0  0  0  0  0  0  0
   26.1746   18.4650   17.5328 H   0  0  0  0  0  0  0  0  0  0  0  0
   27.3700   17.8080   14.9434 H   0  0  0  0  0  0  0  0  0  0  0  0
   26.4597   16.5427   15.4568 H   0  0  0  0  0  0  0  0  0  0  0  0
   26.2127   21.5879   14.8398 H   0  0  0  0  0  0  0  0  0  0  0  0
   22.6246   15.8452    5.9784 H   0  0  0  0  0  0  0  0  0  0  0  0
  1  2  1  0
  2  3  1  0
  3  4  2  0
  4  5  1  0
  5  6  1  0
  6  7  2  0
  6  8  2  0
  6  9  1  0
  9 10  2  0
 10 11  1  0
 11 12  2  0
 12 13  1  0
 13 14  1  0
 14 15  2  0
 14 16  1  0
 17 16  1  6
 17 18  1  0
 18 19  1  0
 19 20  1  0
 19 21  1  0
 21 22  2  0
 21 23  1  0
 23 24  1  0
 24 25  2  0
 13 26  2  0
  5 27  1  0
 27 28  2  0
 28  3  1  0
 26  9  1  0
 20 17  1  0
 24 17  1  0
  1 29  1  0
  1 30  1  0
  1 31  1  0
  2 32  1  0
  2 33  1  0
  4 34  1  0
 10 35  1  0
 11 36  1  0
 12 37  1  0
 16 38  1  0
 18 39  1  0
 18 40  1  0
 19 41  1  1
 20 42  1  0
 20 43  1  0
 23 44  1  0
 27 45  1  0
M  END
>  <meeko>  (969) 
{"is_sidechain": [true], "free_energy": -10.36, "intermolecular_energy": 0.0, "internal_energy": -10.36, "cluster_size": 20, "cluster_id": 1, "rank_in_cluster": 1}

>  <_RMSD_MCS_to_ref>  (969) 
0.7442662307415423

$$$$
ligand
     RDKit          3D

 53 57  0  0  0  0  0  0  0  0999 V2000
   18.8250   19.0170    7.5350 C   0  0  0  0  0  0  0  0  0  0  0  0
   18.5200   17.5420    7.7330 C   0  0  0  0  0  0  0  0  0  0  0  0
   19.7560   16.7150    7.7990 C   0  0  0  0  0  0  0  0  0  0  0  0
   20.2080   15.9050    8.8210 C   0  0  0  0  0  0  0  0  0  0  0  0
   21.3830   15.3960    8.3490 N   0  0  0  0  0  0  0  0  0  0  0  0
   22.3720   14.3080    9.1550 S   0  0  0  0  0  6  0  0  0  0  0  0
   21.4750   13.2310    9.5300 O   0  0  0  0  0  0  0  0  0  0  0  0
   23.5320   14.0740    8.3190 O   0  0  0  0  0  0  0  0  0  0  0  0
   22.9020   15.1340   10.6420 C   0  0  0  0  0  0  0  0  0  0  0  0
   21.9740   15.1670   11.7140 C   0  0  0  0  0  0  0  0  0  0  0  0
   22.2920   15.7950   12.9190 C   0  0  0  0  0  0  0  0  0  0  0  0
   23.5430   16.3660   13.0210 C   0  0  0  0  0  0  0  0  0  0  0  0
   24.4760   16.3400   11.9840 C   0  0  0  0  0  0  0  0  0  0  0  0
   24.1760   15.7260   10.7680 C   0  0  0  0  0  0  0  0  0  0  0  0
   25.1940   15.7080    9.7320 C   0  0  0  0  0  0  0  0  0  0  0  0
   25.1750   16.4200    8.4930 C   0  0  0  0  0  0  0  0  0  0  0  0
   26.2750   16.1410    7.7140 C   0  0  0  0  0  0  0  0  0  0  0  0
   27.3150   15.0030    8.4510 S   0  0  0  0  0  0  0  0  0  0  0  0
   26.3030   14.8890    9.8280 C   0  0  0  0  0  0  0  0  0  0  0  0
   25.7260   17.0400   12.4220 C   0  0  0  0  0  0  0  0  0  0  0  0
   25.4350   17.3910   13.8060 N   0  0  0  0  0  0  0  0  0  0  0  0
   26.2310   18.3410   14.5750 C   0  0  1  0  0  0  0  0  0  0  0  0
   25.6180   19.7370   14.5970 C   0  0  0  0  0  0  0  0  0  0  0  0
   26.5450   20.6820   15.3460 C   0  0  0  0  0  0  0  0  0  0  0  0
   26.8400   20.1710   16.7380 C   0  0  0  0  0  0  0  0  0  0  0  0
   26.9810   20.9220   17.6980 O   0  0  0  0  0  0  0  0  0  0  0  0
   26.9640   18.8110   16.8790 N   0  0  0  0  0  0  0  0  0  0  0  0
   26.4480   17.8670   16.0230 C   0  0  0  0  0  0  0  0  0  0  0  0
   26.1800   16.7370   16.4290 O   0  0  0  0  0  0  0  0  0  0  0  0
   24.1320   17.0780   14.1590 C   0  0  0  0  0  0  0  0  0  0  0  0
   23.5530   17.3320   15.1970 O   0  0  0  0  0  0  0  0  0  0  0  0
   21.5930   15.8510    7.0880 C   0  0  0  0  0  0  0  0  0  0  0  0
   20.6300   16.6750    6.7300 N   0  0  0  0  0  0  0  0  0  0  0  0
   18.9260   19.5054    8.5155 H   0  0  0  0  0  0  0  0  0  0  0  0
   19.7645   19.1250    6.9731 H   0  0  0  0  0  0  0  0  0  0  0  0
   18.0054   19.4887    6.9731 H   0  0  0  0  0  0  0  0  0  0  0  0
   17.9612   17.4190    8.6725 H   0  0  0  0  0  0  0  0  0  0  0  0
   17.9315   17.2004    6.8688 H   0  0  0  0  0  0  0  0  0  0  0  0
   19.7305   15.7135    9.7933 H   0  0  0  0  0  0  0  0  0  0  0  0
   20.9897   14.6909   11.5939 H   0  0  0  0  0  0  0  0  0  0  0  0
   21.5749   15.8329   13.7523 H   0  0  0  0  0  0  0  0  0  0  0  0
   24.3731   17.1118    8.1959 H   0  0  0  0  0  0  0  0  0  0  0  0
   26.4628   16.5977    6.7310 H   0  0  0  0  0  0  0  0  0  0  0  0
   26.5118   14.2384   10.6901 H   0  0  0  0  0  0  0  0  0  0  0  0
   26.5971   16.3713   12.3581 H   0  0  0  0  0  0  0  0  0  0  0  0
   25.9784   17.9095   11.7973 H   0  0  0  0  0  0  0  0  0  0  0  0
   27.2016   18.3937   14.0600 H   0  0  0  0  0  0  0  0  0  0  0  0
   25.4833   20.0953   13.5658 H   0  0  0  0  0  0  0  0  0  0  0  0
   24.6413   19.7024   15.1018 H   0  0  0  0  0  0  0  0  0  0  0  0
   27.4896   20.7733   14.7898 H   0  0  0  0  0  0  0  0  0  0  0  0
   26.0490   21.6600   15.4323 H   0  0  0  0  0  0  0  0  0  0  0  0
   27.4888   18.4684   17.6964 H   0  0  0  0  0  0  0  0  0  0  0  0
   22.4473   15.5710    6.4541 H   0  0  0  0  0  0  0  0  0  0  0  0
  1  2  1  0
  2  3  1  0
  3  4  2  0
  4  5  1  0
  5  6  1  0
  6  7  2  0
  6  8  2  0
  6  9  1  0
  9 10  2  0
 10 11  1  0
 11 12  2  0
 12 13  1  0
 13 14  2  0
 14 15  1  0
 15 16  1  0
 16 17  2  0
 17 18  1  0
 18 19  1  0
 13 20  1  0
 20 21  1  0
 21 22  1  0
 22 23  1  0
 23 24  1  0
 24 25  1  0
 25 26  2  0
 25 27  1  0
 27 28  1  0
 28 29  2  0
 21 30  1  0
 30 31  2  0
  5 32  1  0
 32 33  2  0
 33  3  1  0
 14  9  1  0
 19 15  2  0
 28 22  1  0
 30 12  1  0
  1 34  1  0
  1 35  1  0
  1 36  1  0
  2 37  1  0
  2 38  1  0
  4 39  1  0
 10 40  1  0
 11 41  1  0
 16 42  1  0
 17 43  1  0
 19 44  1  0
 20 45  1  0
 20 46  1  0
 22 47  1  6
 23 48  1  0
 23 49  1  0
 24 50  1  0
 24 51  1  0
 27 52  1  0
 32 53  1  0
M  END
>  <meeko>  (970) 
{"is_sidechain": [true], "free_energy": -10.35, "intermolecular_energy": 0.0, "internal_energy": -10.35, "cluster_size": 18, "cluster_id": 1, "rank_in_cluster": 1}

>  <_RMSD_MCS_to_ref>  (970) 
1.8486114308372714

$$$$
ligand
     RDKit          3D

 47 50  0  0  0  0  0  0  0  0999 V2000
   18.8250   19.0170    7.5350 C   0  0  0  0  0  0  0  0  0  0  0  0
   18.5200   17.5420    7.7330 C   0  0  0  0  0  0  0  0  0  0  0  0
   19.7280   16.7650    8.1240 C   0  0  0  0  0  0  0  0  0  0  0  0
   20.6550   16.1340    7.3170 C   0  0  0  0  0  0  0  0  0  0  0  0
   21.5220   15.5500    8.1980 N   0  0  0  0  0  0  0  0  0  0  0  0
   23.0020   14.8510    7.7990 S   0  0  0  0  0  6  0  0  0  0  0  0
   22.6650   13.5510    7.2510 O   0  0  0  0  0  0  0  0  0  0  0  0
   23.6900   15.8610    7.0170 O   0  0  0  0  0  0  0  0  0  0  0  0
   23.7990   14.6480    9.2150 O   0  0  0  0  0  0  0  0  0  0  0  0
   24.9010   15.4300    9.4410 C   0  0  0  0  0  0  0  0  0  0  0  0
   25.9640   15.3920    8.5350 C   0  0  0  0  0  0  0  0  0  0  0  0
   27.1050   16.1620    8.7680 C   0  0  0  0  0  0  0  0  0  0  0  0
   27.1870   16.9610    9.9110 C   0  0  0  0  0  0  0  0  0  0  0  0
   26.1260   16.9830   10.8250 C   0  0  0  0  0  0  0  0  0  0  0  0
   26.1980   17.8060   12.0460 C   0  0  0  0  0  0  0  0  0  0  0  0
   27.2010   18.4830   12.2570 O   0  0  0  0  0  0  0  0  0  0  0  0
   25.0870   17.7690   12.8900 N   0  0  0  0  0  0  0  0  0  0  0  0
   25.1690   18.4550   14.1820 C   0  0  1  0  0  0  0  0  0  0  0  0
   26.1580   17.8030   15.1490 C   0  0  0  0  0  0  0  0  0  0  0  0
   26.1520   18.5640   16.4660 C   0  0  0  0  0  0  0  0  0  0  0  0
   26.4740   20.0240   16.2540 C   0  0  0  0  0  0  0  0  0  0  0  0
   27.0340   20.7030   17.1090 O   0  0  0  0  0  0  0  0  0  0  0  0
   26.0630   20.5760   15.0670 N   0  0  0  0  0  0  0  0  0  0  0  0
   25.5530   19.9250   13.9630 C   0  0  0  0  0  0  0  0  0  0  0  0
   25.3860   20.5470   12.9150 O   0  0  0  0  0  0  0  0  0  0  0  0
   23.9710   16.9900   12.6640 N   0  0  0  0  0  0  0  0  0  0  0  0
   23.9300   16.2720   11.5860 C   0  0  0  0  0  0  0  0  0  0  0  0
   24.9940   16.2180   10.5900 C   0  0  0  0  0  0  0  0  0  0  0  0
   21.1690   15.8930    9.4630 C   0  0  0  0  0  0  0  0  0  0  0  0
   20.0670   16.6130    9.4540 N   0  0  0  0  0  0  0  0  0  0  0  0
   18.9260   19.5054    8.5155 H   0  0  0  0  0  0  0  0  0  0  0  0
   19.7645   19.1250    6.9731 H   0  0  0  0  0  0  0  0  0  0  0  0
   18.0054   19.4887    6.9731 H   0  0  0  0  0  0  0  0  0  0  0  0
   17.7621   17.4401    8.5237 H   0  0  0  0  0  0  0  0  0  0  0  0
   18.1563   17.1411    6.7754 H   0  0  0  0  0  0  0  0  0  0  0  0
   20.6879   16.1076    6.2178 H   0  0  0  0  0  0  0  0  0  0  0  0
   25.9019   14.7563    7.6394 H   0  0  0  0  0  0  0  0  0  0  0  0
   27.9394   16.1396    8.0516 H   0  0  0  0  0  0  0  0  0  0  0  0
   28.0835   17.5719   10.0929 H   0  0  0  0  0  0  0  0  0  0  0  0
   24.1743   18.3804   14.6458 H   0  0  0  0  0  0  0  0  0  0  0  0
   25.8628   16.7585   15.3272 H   0  0  0  0  0  0  0  0  0  0  0  0
   27.1682   17.8282   14.7143 H   0  0  0  0  0  0  0  0  0  0  0  0
   25.1559   18.4791   16.9250 H   0  0  0  0  0  0  0  0  0  0  0  0
   26.9199   18.1296   17.1230 H   0  0  0  0  0  0  0  0  0  0  0  0
   26.1452   21.5999   14.9912 H   0  0  0  0  0  0  0  0  0  0  0  0
   23.0318   15.6619   11.4102 H   0  0  0  0  0  0  0  0  0  0  0  0
   21.7255   15.6092   10.3684 H   0  0  0  0  0  0  0  0  0  0  0  0
  1  2  1  0
  2  3  1  0
  3  4  2  0
  4  5  1  0
  5  6  1  0
  6  7  2  0
  6  8  2  0
  6  9  1  0
  9 10  1  0
 10 11  2  0
 11 12  1  0
 12 13  2  0
 13 14  1  0
 14 15  1  0
 15 16  2  0
 15 17  1  0
 17 18  1  0
 18 19  1  0
 19 20  1  0
 20 21  1  0
 21 22  2  0
 21 23  1  0
 23 24  1  0
 24 25  2  0
 17 26  1  0
 26 27  2  0
 27 28  1  0
  5 29  1  0
 29 30  2  0
 30  3  1  0
 28 10  1  0
 28 14  2  0
 24 18  1  0
  1 31  1  0
  1 32  1  0
  1 33  1  0
  2 34  1  0
  2 35  1  0
  4 36  1  0
 11 37  1  0
 12 38  1  0
 13 39  1  0
 18 40  1  1
 19 41  1  0
 19 42  1  0
 20 43  1  0
 20 44  1  0
 23 45  1  0
 27 46  1  0
 29 47  1  0
M  END
>  <meeko>  (971) 
{"is_sidechain": [true], "free_energy": -10.35, "intermolecular_energy": 0.0, "internal_energy": -10.35, "cluster_size": 19, "cluster_id": 1, "rank_in_cluster": 1}

>  <_RMSD_MCS_to_ref>  (971) 
0.7264600623724761

$$$$
ligand
     RDKit          3D

 46 49  0  0  0  0  0  0  0  0999 V2000
   18.8250   19.0180    7.5350 C   0  0  0  0  0  0  0  0  0  0  0  0
   18.5200   17.5410    7.7330 C   0  0  0  0  0  0  0  0  0  0  0  0
   19.6930   16.6790    7.4220 C   0  0  0  0  0  0  0  0  0  0  0  0
   20.2860   15.7050    8.1990 C   0  0  0  0  0  0  0  0  0  0  0  0
   21.3340   15.2630    7.4430 N   0  0  0  0  0  0  0  0  0  0  0  0
   22.2800   13.9070    7.7670 S   0  0  0  0  0  6  0  0  0  0  0  0
   21.3910   12.9930    8.4610 O   0  0  0  0  0  0  0  0  0  0  0  0
   22.8820   13.5630    6.4930 O   0  0  0  0  0  0  0  0  0  0  0  0
   23.4430   14.4070    8.7940 O   0  0  0  0  0  0  0  0  0  0  0  0
   23.1650   14.9490   10.0250 C   0  0  0  0  0  0  0  0  0  0  0  0
   22.0010   14.6930   10.7810 C   0  0  0  0  0  0  0  0  0  0  0  0
   21.8090   15.2920   12.0350 C   0  0  0  0  0  0  0  0  0  0  0  0
   22.7980   16.1380   12.4930 C   0  0  0  0  0  0  0  0  0  0  0  0
   23.9380   16.3880   11.7540 C   0  0  0  0  0  0  0  0  0  0  0  0
   24.1540   15.8090   10.5190 C   0  0  0  0  0  0  0  0  0  0  0  0
   24.7690   17.3050   12.5280 C   0  0  0  0  0  0  0  0  0  0  0  0
   25.8610   17.7050   12.1710 O   0  0  0  0  0  0  0  0  0  0  0  0
   24.0770   17.5960   13.6730 N   0  0  0  0  0  0  0  0  0  0  0  0
   24.6550   18.3610   14.7670 C   0  0  1  0  0  0  0  0  0  0  0  0
   25.7790   17.6460   15.5120 C   0  0  0  0  0  0  0  0  0  0  0  0
   26.2690   18.5320   16.6480 C   0  0  0  0  0  0  0  0  0  0  0  0
   26.7120   19.8840   16.1380 C   0  0  0  0  0  0  0  0  0  0  0  0
   27.5660   20.5530   16.7120 O   0  0  0  0  0  0  0  0  0  0  0  0
   26.0680   20.3620   15.0230 N   0  0  0  0  0  0  0  0  0  0  0  0
   25.1500   19.7100   14.2330 C   0  0  0  0  0  0  0  0  0  0  0  0
   24.7330   20.2310   13.2010 O   0  0  0  0  0  0  0  0  0  0  0  0
   22.9050   16.8930   13.7400 C   0  0  0  0  0  0  0  0  0  0  0  0
   22.0860   16.8450   14.6360 O   0  0  0  0  0  0  0  0  0  0  0  0
   21.3080   15.8910    6.2390 C   0  0  0  0  0  0  0  0  0  0  0  0
   20.3350   16.7770    6.2030 N   0  0  0  0  0  0  0  0  0  0  0  0
   18.9258   19.5062    8.5155 H   0  0  0  0  0  0  0  0  0  0  0  0
   19.7645   19.1263    6.9731 H   0  0  0  0  0  0  0  0  0  0  0  0
   18.0053   19.4896    6.9731 H   0  0  0  0  0  0  0  0  0  0  0  0
   18.2274   17.3769    8.7806 H   0  0  0  0  0  0  0  0  0  0  0  0
   17.7076   17.2681    7.0434 H   0  0  0  0  0  0  0  0  0  0  0  0
   19.9835   15.3625    9.1996 H   0  0  0  0  0  0  0  0  0  0  0  0
   21.2333   14.0141   10.3813 H   0  0  0  0  0  0  0  0  0  0  0  0
   20.9051   15.0948   12.6300 H   0  0  0  0  0  0  0  0  0  0  0  0
   25.0690   16.0156    9.9445 H   0  0  0  0  0  0  0  0  0  0  0  0
   23.8539   18.4994   15.5080 H   0  0  0  0  0  0  0  0  0  0  0  0
   25.4033   16.6967   15.9216 H   0  0  0  0  0  0  0  0  0  0  0  0
   26.6087   17.4400   14.8197 H   0  0  0  0  0  0  0  0  0  0  0  0
   25.4521   18.6719   17.3712 H   0  0  0  0  0  0  0  0  0  0  0  0
   27.1306   18.0412   17.1243 H   0  0  0  0  0  0  0  0  0  0  0  0
   26.3008   21.3259   14.7446 H   0  0  0  0  0  0  0  0  0  0  0  0
   22.0024   15.6878    5.4104 H   0  0  0  0  0  0  0  0  0  0  0  0
  1  2  1  0
  2  3  1  0
  3  4  2  0
  4  5  1  0
  5  6  1  0
  6  7  2  0
  6  8  2  0
  6  9  1  0
  9 10  1  0
 10 11  2  0
 11 12  1  0
 12 13  2  0
 13 14  1  0
 14 15  2  0
 14 16  1  0
 16 17  2  0
 16 18  1  0
 18 19  1  0
 19 20  1  0
 20 21  1  0
 21 22  1  0
 22 23  2  0
 22 24  1  0
 24 25  1  0
 25 26  2  0
 18 27  1  0
 27 28  2  0
  5 29  1  0
 29 30  2  0
 30  3  1  0
 15 10  1  0
 25 19  1  0
 27 13  1  0
  1 31  1  0
  1 32  1  0
  1 33  1  0
  2 34  1  0
  2 35  1  0
  4 36  1  0
 11 37  1  0
 12 38  1  0
 15 39  1  0
 19 40  1  1
 20 41  1  0
 20 42  1  0
 21 43  1  0
 21 44  1  0
 24 45  1  0
 29 46  1  0
M  END
>  <meeko>  (972) 
{"is_sidechain": [true], "free_energy": -10.35, "intermolecular_energy": 0.0, "internal_energy": -10.35, "cluster_size": 20, "cluster_id": 1, "rank_in_cluster": 1}

>  <_RMSD_MCS_to_ref>  (972) 
0.3940415234746491

$$$$
ligand
     RDKit          3D

 54 58  0  0  0  0  0  0  0  0999 V2000
   18.8250   19.0180    7.5350 C   0  0  0  0  0  0  0  0  0  0  0  0
   18.5200   17.5410    7.7330 C   0  0  0  0  0  0  0  0  0  0  0  0
   19.7540   16.7420    7.9630 C   0  0  0  0  0  0  0  0  0  0  0  0
   20.6320   16.7910    9.0300 C   0  0  0  0  0  0  0  0  0  0  0  0
   21.6020   15.8870    8.7010 N   0  0  0  0  0  0  0  0  0  0  0  0
   22.8630   15.3910    9.6890 S   0  0  0  0  0  6  0  0  0  0  0  0
   23.8840   16.4200    9.6360 O   0  0  0  0  0  0  0  0  0  0  0  0
   23.1520   14.0410    9.2420 O   0  0  0  0  0  0  0  0  0  0  0  0
   22.2290   15.3180   11.3500 C   0  0  0  0  0  0  0  0  0  0  0  0
   21.1010   14.5200   11.6700 C   0  0  0  0  0  0  0  0  0  0  0  0
   20.4430   13.6300   10.7120 C   0  0  0  0  0  0  0  0  0  0  0  0
   20.9390   12.3790   10.3510 C   0  0  0  0  0  0  0  0  0  0  0  0
   20.3430   11.5900    9.4230 N   0  0  0  0  0  0  0  0  0  0  0  0
   19.2190   12.0960    8.8700 C   0  0  0  0  0  0  0  0  0  0  0  0
   18.7190   13.3360    9.2220 C   0  0  0  0  0  0  0  0  0  0  0  0
   19.3190   14.1280   10.1450 N   0  0  0  0  0  0  0  0  0  0  0  0
   20.6090   14.5390   13.0050 C   0  0  0  0  0  0  0  0  0  0  0  0
   21.1980   15.3210   13.9980 C   0  0  0  0  0  0  0  0  0  0  0  0
   22.2820   16.0910   13.6360 C   0  0  0  0  0  0  0  0  0  0  0  0
   22.8030   16.1170   12.3420 C   0  0  0  0  0  0  0  0  0  0  0  0
   23.9680   17.0580   12.3030 C   0  0  0  0  0  0  0  0  0  0  0  0
   24.0220   17.5710   13.6650 N   0  0  0  0  0  0  0  0  0  0  0  0
   25.1770   18.2820   14.2030 C   0  0  2  0  0  0  0  0  0  0  0  0
   25.4810   17.9000   15.6480 C   0  0  0  0  0  0  0  0  0  0  0  0
   26.7380   18.6220   16.1070 C   0  0  0  0  0  0  0  0  0  0  0  0
   26.6070   20.1170   15.9310 C   0  0  0  0  0  0  0  0  0  0  0  0
   27.1160   20.9170   16.7110 O   0  0  0  0  0  0  0  0  0  0  0  0
   25.9050   20.5490   14.8350 N   0  0  0  0  0  0  0  0  0  0  0  0
   24.9950   19.8080   14.1170 C   0  0  0  0  0  0  0  0  0  0  0  0
   24.1090   20.3640   13.4700 O   0  0  0  0  0  0  0  0  0  0  0  0
   23.0850   16.9740   14.4870 C   0  0  0  0  0  0  0  0  0  0  0  0
   22.9330   17.1160   15.6840 O   0  0  0  0  0  0  0  0  0  0  0  0
   21.2490   15.2550    7.5510 C   0  0  0  0  0  0  0  0  0  0  0  0
   20.1490   15.7810    7.0520 N   0  0  0  0  0  0  0  0  0  0  0  0
   18.9258   19.5062    8.5155 H   0  0  0  0  0  0  0  0  0  0  0  0
   19.7645   19.1263    6.9731 H   0  0  0  0  0  0  0  0  0  0  0  0
   18.0053   19.4896    6.9731 H   0  0  0  0  0  0  0  0  0  0  0  0
   17.8572   17.4290    8.6037 H   0  0  0  0  0  0  0  0  0  0  0  0
   18.0400   17.1678    6.8163 H   0  0  0  0  0  0  0  0  0  0  0  0
   20.5650   17.4137    9.9343 H   0  0  0  0  0  0  0  0  0  0  0  0
   21.8545   12.0153   10.8404 H   0  0  0  0  0  0  0  0  0  0  0  0
   18.6839   11.5017    8.1147 H   0  0  0  0  0  0  0  0  0  0  0  0
   17.7998   13.6937    8.7350 H   0  0  0  0  0  0  0  0  0  0  0  0
   19.7379   13.9182   13.2614 H   0  0  0  0  0  0  0  0  0  0  0  0
   20.8130   15.3231   15.0284 H   0  0  0  0  0  0  0  0  0  0  0  0
   24.8960   16.5274   12.0435 H   0  0  0  0  0  0  0  0  0  0  0  0
   23.8605   17.8491   11.5463 H   0  0  0  0  0  0  0  0  0  0  0  0
   26.0285   17.9780   13.5765 H   0  0  0  0  0  0  0  0  0  0  0  0
   24.6360   18.1899   16.2899 H   0  0  0  0  0  0  0  0  0  0  0  0
   25.6357   16.8131   15.7162 H   0  0  0  0  0  0  0  0  0  0  0  0
   26.9107   18.4001   17.1704 H   0  0  0  0  0  0  0  0  0  0  0  0
   27.5825   18.2728   15.4947 H   0  0  0  0  0  0  0  0  0  0  0  0
   26.0743   21.5153   14.5211 H   0  0  0  0  0  0  0  0  0  0  0  0
   21.8047   14.4200    7.0993 H   0  0  0  0  0  0  0  0  0  0  0  0
  1  2  1  0
  2  3  1  0
  3  4  2  0
  4  5  1  0
  5  6  1  0
  6  7  2  0
  6  8  2  0
  6  9  1  0
  9 10  1  0
 10 11  1  0
 11 12  2  0
 12 13  1  0
 13 14  2  0
 14 15  1  0
 15 16  2  0
 10 17  2  0
 17 18  1  0
 18 19  2  0
 19 20  1  0
 20 21  1  0
 21 22  1  0
 22 23  1  0
 23 24  1  0
 24 25  1  0
 25 26  1  0
 26 27  2  0
 26 28  1  0
 28 29  1  0
 29 30  2  0
 22 31  1  0
 31 32  2  0
  5 33  1  0
 33 34  2  0
 34  3  1  0
 20  9  2  0
 29 23  1  0
 16 11  1  0
 31 19  1  0
  1 35  1  0
  1 36  1  0
  1 37  1  0
  2 38  1  0
  2 39  1  0
  4 40  1  0
 12 41  1  0
 14 42  1  0
 15 43  1  0
 17 44  1  0
 18 45  1  0
 21 46  1  0
 21 47  1  0
 23 48  1  6
 24 49  1  0
 24 50  1  0
 25 51  1  0
 25 52  1  0
 28 53  1  0
 33 54  1  0
M  END
>  <meeko>  (973) 
{"is_sidechain": [true], "free_energy": -10.35, "intermolecular_energy": 0.0, "internal_energy": -10.35, "cluster_size": 16, "cluster_id": 1, "rank_in_cluster": 1}

>  <_RMSD_MCS_to_ref>  (973) 
1.5512594882868567

$$$$
ligand
     RDKit          3D

 47 50  0  0  0  0  0  0  0  0999 V2000
   18.7970   18.8170    7.7190 C   0  0  0  0  0  0  0  0  0  0  0  0
   18.5280   17.3290    7.8810 C   0  0  0  0  0  0  0  0  0  0  0  0
   19.7760   16.5220    7.8080 C   0  0  0  0  0  0  0  0  0  0  0  0
   20.6190   16.1320    8.8300 C   0  0  0  0  0  0  0  0  0  0  0  0
   21.6050   15.4280    8.2000 N   0  0  0  0  0  0  0  0  0  0  0  0
   22.8660   14.6040    8.9430 S   0  0  0  0  0  6  0  0  0  0  0  0
   23.9350   15.5800    9.0740 O   0  0  0  0  0  0  0  0  0  0  0  0
   23.0310   13.3730    8.1930 O   0  0  0  0  0  0  0  0  0  0  0  0
   22.2850   14.2020   10.5550 C   0  0  0  0  0  0  0  0  0  0  0  0
   21.1240   13.4880   10.6140 N   0  0  0  0  0  0  0  0  0  0  0  0
   20.6250   13.1450   11.8240 C   0  0  0  0  0  0  0  0  0  0  0  0
   21.2060   13.4670   13.0380 C   0  0  0  0  0  0  0  0  0  0  0  0
   22.3820   14.1940   12.9250 C   0  0  0  0  0  0  0  0  0  0  0  0
   23.1380   14.6310   13.9690 O   0  0  0  0  0  0  0  0  0  0  0  0
   24.2090   15.3060   13.4430 C   0  0  0  0  0  0  0  0  0  0  0  0
   25.1890   15.8900   14.3330 C   0  0  0  0  0  0  0  0  0  0  0  0
   25.9790   15.2300   15.0030 O   0  0  0  0  0  0  0  0  0  0  0  0
   25.1750   17.2650   14.3650 N   0  0  0  0  0  0  0  0  0  0  0  0
   26.1870   18.0360   15.0670 C   0  0  2  0  0  0  0  0  0  0  0  0
   26.1230   17.8300   16.5770 C   0  0  0  0  0  0  0  0  0  0  0  0
   27.1830   18.6880   17.2510 C   0  0  0  0  0  0  0  0  0  0  0  0
   27.0330   20.1430   16.8730 C   0  0  0  0  0  0  0  0  0  0  0  0
   27.2950   21.0560   17.6500 O   0  0  0  0  0  0  0  0  0  0  0  0
   26.6120   20.4050   15.5950 N   0  0  0  0  0  0  0  0  0  0  0  0
   25.9790   19.5210   14.7570 C   0  0  0  0  0  0  0  0  0  0  0  0
   25.2980   19.9180   13.8110 O   0  0  0  0  0  0  0  0  0  0  0  0
   24.1280   15.2980   12.0620 C   0  0  0  0  0  0  0  0  0  0  0  0
   22.9510   14.5810   11.7200 C   0  0  0  0  0  0  0  0  0  0  0  0
   21.3310   15.3690    6.8710 C   0  0  0  0  0  0  0  0  0  0  0  0
   20.2320   16.0410    6.5950 N   0  0  0  0  0  0  0  0  0  0  0  0
   18.8815   19.2845    8.7111 H   0  0  0  0  0  0  0  0  0  0  0  0
   19.7359   18.9616    7.1643 H   0  0  0  0  0  0  0  0  0  0  0  0
   17.9682   19.2812    7.1643 H   0  0  0  0  0  0  0  0  0  0  0  0
   18.0527   17.1591    8.8584 H   0  0  0  0  0  0  0  0  0  0  0  0
   17.8719   17.0123    7.0569 H   0  0  0  0  0  0  0  0  0  0  0  0
   20.5191   16.3407    9.9054 H   0  0  0  0  0  0  0  0  0  0  0  0
   19.6888   12.5678   11.8442 H   0  0  0  0  0  0  0  0  0  0  0  0
   20.7740   13.1728   14.0059 H   0  0  0  0  0  0  0  0  0  0  0  0
   24.4206   17.7658   13.8741 H   0  0  0  0  0  0  0  0  0  0  0  0
   27.1739   17.6926   14.7234 H   0  0  0  0  0  0  0  0  0  0  0  0
   25.1278   18.1204   16.9449 H   0  0  0  0  0  0  0  0  0  0  0  0
   26.3055   16.7707   16.8107 H   0  0  0  0  0  0  0  0  0  0  0  0
   27.0836   18.5891   18.3420 H   0  0  0  0  0  0  0  0  0  0  0  0
   28.1728   18.3428   16.9176 H   0  0  0  0  0  0  0  0  0  0  0  0
   26.7867   21.3522   15.2300 H   0  0  0  0  0  0  0  0  0  0  0  0
   24.8400   15.7594   11.3619 H   0  0  0  0  0  0  0  0  0  0  0  0
   21.9417   14.8345    6.1285 H   0  0  0  0  0  0  0  0  0  0  0  0
  1  2  1  0
  2  3  1  0
  3  4  2  0
  4  5  1  0
  5  6  1  0
  6  7  2  0
  6  8  2  0
  6  9  1  0
  9 10  2  0
 10 11  1  0
 11 12  2  0
 12 13  1  0
 13 14  1  0
 14 15  1  0
 15 16  1  0
 16 17  2  0
 16 18  1  0
 18 19  1  0
 19 20  1  0
 20 21  1  0
 21 22  1  0
 22 23  2  0
 22 24  1  0
 24 25  1  0
 25 26  2  0
 15 27  2  0
 27 28  1  0
  5 29  1  0
 29 30  2  0
 30  3  1  0
 28  9  1  0
 28 13  2  0
 25 19  1  0
  1 31  1  0
  1 32  1  0
  1 33  1  0
  2 34  1  0
  2 35  1  0
  4 36  1  0
 11 37  1  0
 12 38  1  0
 18 39  1  0
 19 40  1  6
 20 41  1  0
 20 42  1  0
 21 43  1  0
 21 44  1  0
 24 45  1  0
 27 46  1  0
 29 47  1  0
M  END
>  <meeko>  (974) 
{"is_sidechain": [true], "free_energy": -10.35, "intermolecular_energy": 0.0, "internal_energy": -10.35, "cluster_size": 15, "cluster_id": 1, "rank_in_cluster": 1}

>  <_RMSD_MCS_to_ref>  (974) 
0.692264721363471

$$$$
ligand
     RDKit          3D

 48 51  0  0  0  0  0  0  0  0999 V2000
   18.7970   18.8170    7.7190 C   0  0  0  0  0  0  0  0  0  0  0  0
   18.5280   17.3290    7.8810 C   0  0  0  0  0  0  0  0  0  0  0  0
   19.7740   16.5200    7.8040 C   0  0  0  0  0  0  0  0  0  0  0  0
   20.0760   15.3270    8.4300 C   0  0  0  0  0  0  0  0  0  0  0  0
   21.3360   15.0310    7.9970 N   0  0  0  0  0  0  0  0  0  0  0  0
   22.2930   13.7690    8.5600 S   0  0  0  0  0  6  0  0  0  0  0  0
   21.3560   12.7100    8.8870 O   0  0  0  0  0  0  0  0  0  0  0  0
   23.3510   13.5820    7.5890 O   0  0  0  0  0  0  0  0  0  0  0  0
   22.9910   14.4060   10.0720 C   0  0  0  0  0  0  0  0  0  0  0  0
   24.2750   14.9640    9.9960 C   0  0  0  0  0  0  0  0  0  0  0  0
   24.8880   15.4550   11.1380 C   0  0  0  0  0  0  0  0  0  0  0  0
   24.2410   15.4160   12.3820 C   0  0  0  0  0  0  0  0  0  0  0  0
   24.9870   15.9680   13.5420 C   0  0  0  0  0  0  0  0  0  0  0  0
   25.2760   15.2390   14.4850 O   0  0  0  0  0  0  0  0  0  0  0  0
   25.3790   17.2810   13.4730 N   0  0  0  0  0  0  0  0  0  0  0  0
   26.2250   17.8880   14.4880 C   0  0  2  0  0  0  0  0  0  0  0  0
   25.6550   17.7150   15.8920 C   0  0  0  0  0  0  0  0  0  0  0  0
   26.5670   18.3980   16.8990 C   0  0  0  0  0  0  0  0  0  0  0  0
   26.7760   19.8530   16.5500 C   0  0  0  0  0  0  0  0  0  0  0  0
   26.9140   20.7220   17.4060 O   0  0  0  0  0  0  0  0  0  0  0  0
   26.8330   20.1630   15.2150 N   0  0  0  0  0  0  0  0  0  0  0  0
   26.3590   19.3850   14.1890 C   0  0  0  0  0  0  0  0  0  0  0  0
   26.0710   19.8780   13.0980 O   0  0  0  0  0  0  0  0  0  0  0  0
   22.9430   14.8460   12.4610 C   0  0  0  0  0  0  0  0  0  0  0  0
   21.9550   14.6120   13.8670 S   0  0  0  0  0  0  0  0  0  0  0  0
   20.6750   13.9480   12.9780 C   0  0  0  0  0  0  0  0  0  0  0  0
   20.9740   13.8640   11.6420 C   0  0  0  0  0  0  0  0  0  0  0  0
   22.2920   14.3490   11.3120 C   0  0  0  0  0  0  0  0  0  0  0  0
   21.7650   16.0150    7.1680 C   0  0  0  0  0  0  0  0  0  0  0  0
   20.8380   16.9400    7.0300 N   0  0  0  0  0  0  0  0  0  0  0  0
   18.8815   19.2845    8.7111 H   0  0  0  0  0  0  0  0  0  0  0  0
   19.7359   18.9616    7.1643 H   0  0  0  0  0  0  0  0  0  0  0  0
   17.9682   19.2812    7.1643 H   0  0  0  0  0  0  0  0  0  0  0  0
   18.0555   17.1591    8.8597 H   0  0  0  0  0  0  0  0  0  0  0  0
   17.8698   17.0137    7.0580 H   0  0  0  0  0  0  0  0  0  0  0  0
   19.4452   14.7475    9.1201 H   0  0  0  0  0  0  0  0  0  0  0  0
   24.7966   15.0122    9.0287 H   0  0  0  0  0  0  0  0  0  0  0  0
   25.8991   15.8825   11.0676 H   0  0  0  0  0  0  0  0  0  0  0  0
   25.0642   17.8546   12.6775 H   0  0  0  0  0  0  0  0  0  0  0  0
   27.2030   17.3855   14.4571 H   0  0  0  0  0  0  0  0  0  0  0  0
   24.6534   18.1674   15.9391 H   0  0  0  0  0  0  0  0  0  0  0  0
   25.5857   16.6431   16.1293 H   0  0  0  0  0  0  0  0  0  0  0  0
   26.1119   18.3307   17.8982 H   0  0  0  0  0  0  0  0  0  0  0  0
   27.5439   17.8926   16.8821 H   0  0  0  0  0  0  0  0  0  0  0  0
   27.2707   21.0598   14.9600 H   0  0  0  0  0  0  0  0  0  0  0  0
   19.7206   13.6238   13.4184 H   0  0  0  0  0  0  0  0  0  0  0  0
   20.2747   13.4645   10.8928 H   0  0  0  0  0  0  0  0  0  0  0  0
   22.7501   16.0373    6.6790 H   0  0  0  0  0  0  0  0  0  0  0  0
  1  2  1  0
  2  3  1  0
  3  4  2  0
  4  5  1  0
  5  6  1  0
  6  7  2  0
  6  8  2  0
  6  9  1  0
  9 10  2  0
 10 11  1  0
 11 12  2  0
 12 13  1  0
 13 14  2  0
 13 15  1  0
 15 16  1  0
 16 17  1  0
 17 18  1  0
 18 19  1  0
 19 20  2  0
 19 21  1  0
 21 22  1  0
 22 23  2  0
 12 24  1  0
 24 25  1  0
 25 26  1  0
 26 27  2  0
 27 28  1  0
  5 29  1  0
 29 30  2  0
 30  3  1  0
 28  9  1  0
 22 16  1  0
 28 24  2  0
  1 31  1  0
  1 32  1  0
  1 33  1  0
  2 34  1  0
  2 35  1  0
  4 36  1  0
 10 37  1  0
 11 38  1  0
 15 39  1  0
 16 40  1  1
 17 41  1  0
 17 42  1  0
 18 43  1  0
 18 44  1  0
 21 45  1  0
 26 46  1  0
 27 47  1  0
 29 48  1  0
M  END
>  <meeko>  (975) 
{"is_sidechain": [true], "free_energy": -10.35, "intermolecular_energy": 0.0, "internal_energy": -10.35, "cluster_size": 19, "cluster_id": 1, "rank_in_cluster": 1}

>  <_RMSD_MCS_to_ref>  (975) 
0.8500675136586374

$$$$
ligand
     RDKit          3D

 47 50  0  0  0  0  0  0  0  0999 V2000
   18.9090   19.1540    7.5370 C   0  0  0  0  0  0  0  0  0  0  0  0
   18.7730   17.6460    7.6780 C   0  0  0  0  0  0  0  0  0  0  0  0
   20.0940   16.9610    7.6830 C   0  0  0  0  0  0  0  0  0  0  0  0
   21.0010   16.8290    8.7170 C   0  0  0  0  0  0  0  0  0  0  0  0
   22.0350   16.1300    8.1680 N   0  0  0  0  0  0  0  0  0  0  0  0
   23.3440   15.4870    8.9990 S   0  0  0  0  0  6  0  0  0  0  0  0
   24.3750   16.5020    9.0060 O   0  0  0  0  0  0  0  0  0  0  0  0
   23.5500   14.1600    8.4470 O   0  0  0  0  0  0  0  0  0  0  0  0
   22.7650   15.2720   10.6550 C   0  0  0  0  0  0  0  0  0  0  0  0
   23.4410   15.8780   11.7230 C   0  0  0  0  0  0  0  0  0  0  0  0
   22.9960   15.7190   13.0470 C   0  0  0  0  0  0  0  0  0  0  0  0
   23.7560   16.4180   14.1200 C   0  0  0  0  0  0  0  0  0  0  0  0
   24.1060   15.8020   15.1200 O   0  0  0  0  0  0  0  0  0  0  0  0
   24.0030   17.7600   13.9380 N   0  0  0  0  0  0  0  0  0  0  0  0
   24.6090   18.5610   14.9930 C   0  0  1  0  0  0  0  0  0  0  0  0
   25.7340   17.8210   15.7070 C   0  0  0  0  0  0  0  0  0  0  0  0
   26.3480   18.7280   16.7630 C   0  0  0  0  0  0  0  0  0  0  0  0
   26.8240   20.0300   16.1610 C   0  0  0  0  0  0  0  0  0  0  0  0
   27.8100   20.6280   16.5800 O   0  0  0  0  0  0  0  0  0  0  0  0
   26.0760   20.5390   15.1280 N   0  0  0  0  0  0  0  0  0  0  0  0
   25.1730   19.8410   14.3670 C   0  0  0  0  0  0  0  0  0  0  0  0
   24.8330   20.2390   13.2530 O   0  0  0  0  0  0  0  0  0  0  0  0
   21.8540   14.9520   13.3350 C   0  0  0  0  0  0  0  0  0  0  0  0
   21.1890   14.3270   12.2710 C   0  0  0  0  0  0  0  0  0  0  0  0
   20.0800   13.5280   12.2560 N   0  0  0  0  0  0  0  0  0  0  0  0
   19.8400   13.1740   10.9990 N   0  0  0  0  0  0  0  0  0  0  0  0
   20.7840   13.7400   10.2300 N   0  0  0  0  0  0  0  0  0  0  0  0
   21.6540   14.4910   10.9760 C   0  0  0  0  0  0  0  0  0  0  0  0
   21.7340   15.8260    6.8800 C   0  0  0  0  0  0  0  0  0  0  0  0
   20.5620   16.3250    6.5500 N   0  0  0  0  0  0  0  0  0  0  0  0
   18.9504   19.6134    8.5356 H   0  0  0  0  0  0  0  0  0  0  0  0
   19.8320   19.3891    6.9867 H   0  0  0  0  0  0  0  0  0  0  0  0
   18.0430   19.5504    6.9867 H   0  0  0  0  0  0  0  0  0  0  0  0
   18.2550   17.4237    8.6226 H   0  0  0  0  0  0  0  0  0  0  0  0
   18.2036   17.2757    6.8127 H   0  0  0  0  0  0  0  0  0  0  0  0
   20.9097   17.2025    9.7476 H   0  0  0  0  0  0  0  0  0  0  0  0
   24.3341   16.4878   11.5219 H   0  0  0  0  0  0  0  0  0  0  0  0
   23.7556   18.2044   13.0423 H   0  0  0  0  0  0  0  0  0  0  0  0
   23.8332   18.7860   15.7397 H   0  0  0  0  0  0  0  0  0  0  0  0
   25.3309   16.9180   16.1888 H   0  0  0  0  0  0  0  0  0  0  0  0
   26.5052   17.5341   14.9769 H   0  0  0  0  0  0  0  0  0  0  0  0
   25.5923   18.9444   17.5324 H   0  0  0  0  0  0  0  0  0  0  0  0
   27.2145   18.2118   17.2019 H   0  0  0  0  0  0  0  0  0  0  0  0
   26.2047   21.5361   14.9041 H   0  0  0  0  0  0  0  0  0  0  0  0
   21.4916   14.8450   14.3681 H   0  0  0  0  0  0  0  0  0  0  0  0
   20.8463   13.6243    9.2084 H   0  0  0  0  0  0  0  0  0  0  0  0
   22.3796   15.2438    6.2061 H   0  0  0  0  0  0  0  0  0  0  0  0
  1  2  1  0
  2  3  1  0
  3  4  2  0
  4  5  1  0
  5  6  1  0
  6  7  2  0
  6  8  2  0
  6  9  1  0
  9 10  2  0
 10 11  1  0
 11 12  1  0
 12 13  2  0
 12 14  1  0
 14 15  1  0
 15 16  1  0
 16 17  1  0
 17 18  1  0
 18 19  2  0
 18 20  1  0
 20 21  1  0
 21 22  2  0
 11 23  2  0
 23 24  1  0
 24 25  1  0
 25 26  2  0
 26 27  1  0
 27 28  1  0
  5 29  1  0
 29 30  2  0
 30  3  1  0
 28  9  1  0
 21 15  1  0
 28 24  2  0
  1 31  1  0
  1 32  1  0
  1 33  1  0
  2 34  1  0
  2 35  1  0
  4 36  1  0
 10 37  1  0
 14 38  1  0
 15 39  1  1
 16 40  1  0
 16 41  1  0
 17 42  1  0
 17 43  1  0
 20 44  1  0
 23 45  1  0
 27 46  1  0
 29 47  1  0
M  END
>  <meeko>  (976) 
{"is_sidechain": [true], "free_energy": -10.35, "intermolecular_energy": 0.0, "internal_energy": -10.35, "cluster_size": 20, "cluster_id": 1, "rank_in_cluster": 1}

>  <_RMSD_MCS_to_ref>  (976) 
0.4343933189582406

$$$$
ligand
     RDKit          3D

 46 49  0  0  0  0  0  0  0  0999 V2000
   18.9090   19.1540    7.5370 C   0  0  0  0  0  0  0  0  0  0  0  0
   18.7730   17.6460    7.6780 C   0  0  0  0  0  0  0  0  0  0  0  0
   19.9580   16.9220    7.1410 C   0  0  0  0  0  0  0  0  0  0  0  0
   21.2300   16.8270    7.6690 C   0  0  0  0  0  0  0  0  0  0  0  0
   21.8990   16.0250    6.7890 N   0  0  0  0  0  0  0  0  0  0  0  0
   23.5610   15.7460    6.7780 S   0  0  0  0  0  6  0  0  0  0  0  0
   24.1570   17.0520    6.9930 O   0  0  0  0  0  0  0  0  0  0  0  0
   23.8000   14.9930    5.5610 O   0  0  0  0  0  0  0  0  0  0  0  0
   23.8660   14.7970    8.0680 O   0  0  0  0  0  0  0  0  0  0  0  0
   23.5200   15.1510    9.3450 C   0  0  0  0  0  0  0  0  0  0  0  0
   22.2860   14.9130    9.9500 C   0  0  0  0  0  0  0  0  0  0  0  0
   22.0580   15.3320   11.2690 C   0  0  0  0  0  0  0  0  0  0  0  0
   23.0530   15.9890   12.0000 C   0  0  0  0  0  0  0  0  0  0  0  0
   22.7780   16.3920   13.3100 N   0  0  0  0  0  0  0  0  0  0  0  0
   23.6480   16.9990   13.9690 N   0  0  0  0  0  0  0  0  0  0  0  0
   24.9030   17.2250   13.4720 N   0  0  0  0  0  0  0  0  0  0  0  0
   25.8000   18.0350   14.2920 C   0  0  2  0  0  0  0  0  0  0  0  0
   25.6820   17.7450   15.7880 C   0  0  0  0  0  0  0  0  0  0  0  0
   26.6740   18.6100   16.5500 C   0  0  0  0  0  0  0  0  0  0  0  0
   26.4620   20.0760   16.2530 C   0  0  0  0  0  0  0  0  0  0  0  0
   26.7190   20.9550   17.0690 O   0  0  0  0  0  0  0  0  0  0  0  0
   26.0050   20.3870   14.9970 N   0  0  0  0  0  0  0  0  0  0  0  0
   25.5330   19.5230   14.0330 C   0  0  0  0  0  0  0  0  0  0  0  0
   24.9840   19.9660   13.0270 O   0  0  0  0  0  0  0  0  0  0  0  0
   25.2820   16.8980   12.1820 C   0  0  0  0  0  0  0  0  0  0  0  0
   26.3880   17.1280   11.7010 O   0  0  0  0  0  0  0  0  0  0  0  0
   24.2700   16.2130   11.3840 C   0  0  0  0  0  0  0  0  0  0  0  0
   24.5180   15.8060   10.0680 C   0  0  0  0  0  0  0  0  0  0  0  0
   21.0800   15.7290    5.7470 C   0  0  0  0  0  0  0  0  0  0  0  0
   19.8810   16.2380    5.9440 N   0  0  0  0  0  0  0  0  0  0  0  0
   18.9504   19.6134    8.5356 H   0  0  0  0  0  0  0  0  0  0  0  0
   19.8320   19.3891    6.9867 H   0  0  0  0  0  0  0  0  0  0  0  0
   18.0430   19.5504    6.9867 H   0  0  0  0  0  0  0  0  0  0  0  0
   18.6597   17.3986    8.7438 H   0  0  0  0  0  0  0  0  0  0  0  0
   17.8931   17.3305    7.0982 H   0  0  0  0  0  0  0  0  0  0  0  0
   21.6164   17.2912    8.5884 H   0  0  0  0  0  0  0  0  0  0  0  0
   21.4910   14.3963    9.3923 H   0  0  0  0  0  0  0  0  0  0  0  0
   21.0806   15.1407   11.7361 H   0  0  0  0  0  0  0  0  0  0  0  0
   26.8255   17.7674   13.9976 H   0  0  0  0  0  0  0  0  0  0  0  0
   24.6605   17.9730   16.1266 H   0  0  0  0  0  0  0  0  0  0  0  0
   25.9009   16.6833   15.9749 H   0  0  0  0  0  0  0  0  0  0  0  0
   26.5434   18.4400   17.6289 H   0  0  0  0  0  0  0  0  0  0  0  0
   27.6909   18.3343   16.2340 H   0  0  0  0  0  0  0  0  0  0  0  0
   26.0161   21.3856   14.7447 H   0  0  0  0  0  0  0  0  0  0  0  0
   25.4964   16.0018    9.6050 H   0  0  0  0  0  0  0  0  0  0  0  0
   21.3762   15.1460    4.8625 H   0  0  0  0  0  0  0  0  0  0  0  0
  1  2  1  0
  2  3  1  0
  3  4  2  0
  4  5  1  0
  5  6  1  0
  6  7  2  0
  6  8  2  0
  6  9  1  0
  9 10  1  0
 10 11  2  0
 11 12  1  0
 12 13  2  0
 13 14  1  0
 14 15  2  0
 15 16  1  0
 16 17  1  0
 17 18  1  0
 18 19  1  0
 19 20  1  0
 20 21  2  0
 20 22  1  0
 22 23  1  0
 23 24  2  0
 16 25  1  0
 25 26  2  0
 25 27  1  0
 27 28  2  0
  5 29  1  0
 29 30  2  0
 30  3  1  0
 28 10  1  0
 27 13  1  0
 23 17  1  0
  1 31  1  0
  1 32  1  0
  1 33  1  0
  2 34  1  0
  2 35  1  0
  4 36  1  0
 11 37  1  0
 12 38  1  0
 17 39  1  6
 18 40  1  0
 18 41  1  0
 19 42  1  0
 19 43  1  0
 22 44  1  0
 28 45  1  0
 29 46  1  0
M  END
>  <meeko>  (977) 
{"is_sidechain": [true], "free_energy": -10.35, "intermolecular_energy": 0.0, "internal_energy": -10.35, "cluster_size": 20, "cluster_id": 1, "rank_in_cluster": 1}

>  <_RMSD_MCS_to_ref>  (977) 
0.5737248663098212

$$$$
ligand
     RDKit          3D

 48 51  0  0  0  0  0  0  0  0999 V2000
   18.9090   19.1540    7.5370 C   0  0  0  0  0  0  0  0  0  0  0  0
   18.7730   17.6460    7.6780 C   0  0  0  0  0  0  0  0  0  0  0  0
   20.0650   16.9420    7.4520 C   0  0  0  0  0  0  0  0  0  0  0  0
   21.1520   16.8310    8.2950 C   0  0  0  0  0  0  0  0  0  0  0  0
   22.0540   16.0940    7.5840 N   0  0  0  0  0  0  0  0  0  0  0  0
   23.4800   15.4350    8.1800 S   0  0  0  0  0  6  0  0  0  0  0  0
   23.4150   14.0210    7.8660 O   0  0  0  0  0  0  0  0  0  0  0  0
   24.5510   16.2890    7.7100 O   0  0  0  0  0  0  0  0  0  0  0  0
   23.3380   15.6370    9.9350 C   0  0  0  0  0  0  0  0  0  0  0  0
   22.2200   15.1280   10.6010 C   0  0  0  0  0  0  0  0  0  0  0  0
   22.1640   15.3130   11.9670 C   0  0  0  0  0  0  0  0  0  0  0  0
   23.1600   15.9610   12.6690 C   0  0  0  0  0  0  0  0  0  0  0  0
   24.2820   16.4650   12.0300 C   0  0  0  0  0  0  0  0  0  0  0  0
   25.3870   17.1810   12.7250 C   0  0  0  0  0  0  0  0  0  0  0  0
   26.3710   17.5490   12.0930 O   0  0  0  0  0  0  0  0  0  0  0  0
   25.2420   17.4110   14.0710 N   0  0  0  0  0  0  0  0  0  0  0  0
   26.1860   18.2220   14.8220 C   0  0  2  0  0  0  0  0  0  0  0  0
   26.0940   17.9700   16.3240 C   0  0  0  0  0  0  0  0  0  0  0  0
   27.0860   18.8660   17.0500 C   0  0  0  0  0  0  0  0  0  0  0  0
   26.8620   20.3200   16.7090 C   0  0  0  0  0  0  0  0  0  0  0  0
   27.0490   21.2230   17.5190 O   0  0  0  0  0  0  0  0  0  0  0  0
   26.4630   20.5960   15.4260 N   0  0  0  0  0  0  0  0  0  0  0  0
   25.8980   19.7030   14.5490 C   0  0  0  0  0  0  0  0  0  0  0  0
   25.2150   20.0930   13.6010 O   0  0  0  0  0  0  0  0  0  0  0  0
   24.3690   16.2900   10.6380 C   0  0  0  0  0  0  0  0  0  0  0  0
   22.8730   16.0190   14.0010 O   0  0  0  0  0  0  0  0  0  0  0  0
   21.5960   15.3490   14.0550 C   0  0  0  0  0  0  0  0  0  0  0  0
   21.1470   14.8920   12.7660 O   0  0  0  0  0  0  0  0  0  0  0  0
   21.5060   15.7500    6.3900 C   0  0  0  0  0  0  0  0  0  0  0  0
   20.2960   16.2580    6.2740 N   0  0  0  0  0  0  0  0  0  0  0  0
   18.9504   19.6134    8.5356 H   0  0  0  0  0  0  0  0  0  0  0  0
   19.8320   19.3891    6.9867 H   0  0  0  0  0  0  0  0  0  0  0  0
   18.0430   19.5504    6.9867 H   0  0  0  0  0  0  0  0  0  0  0  0
   18.4167   17.4157    8.6929 H   0  0  0  0  0  0  0  0  0  0  0  0
   18.0606   17.2981    6.9154 H   0  0  0  0  0  0  0  0  0  0  0  0
   21.2655   17.2427    9.3087 H   0  0  0  0  0  0  0  0  0  0  0  0
   21.4194   14.6027   10.0597 H   0  0  0  0  0  0  0  0  0  0  0  0
   24.4388   16.9956   14.5641 H   0  0  0  0  0  0  0  0  0  0  0  0
   27.1998   17.9477   14.4948 H   0  0  0  0  0  0  0  0  0  0  0  0
   25.0748   18.1942   16.6717 H   0  0  0  0  0  0  0  0  0  0  0  0
   26.3296   16.9163   16.5342 H   0  0  0  0  0  0  0  0  0  0  0  0
   26.9652   18.7294   18.1348 H   0  0  0  0  0  0  0  0  0  0  0  0
   28.1021   18.5873   16.7340 H   0  0  0  0  0  0  0  0  0  0  0  0
   26.5995   21.5601   15.0900 H   0  0  0  0  0  0  0  0  0  0  0  0
   25.2483   16.6656   10.0941 H   0  0  0  0  0  0  0  0  0  0  0  0
   21.6837   14.4803   14.7241 H   0  0  0  0  0  0  0  0  0  0  0  0
   20.8573   16.0766   14.4224 H   0  0  0  0  0  0  0  0  0  0  0  0
   22.0029   15.1334    5.6265 H   0  0  0  0  0  0  0  0  0  0  0  0
  1  2  1  0
  2  3  1  0
  3  4  2  0
  4  5  1  0
  5  6  1  0
  6  7  2  0
  6  8  2  0
  6  9  1  0
  9 10  2  0
 10 11  1  0
 11 12  2  0
 12 13  1  0
 13 14  1  0
 14 15  2  0
 14 16  1  0
 16 17  1  0
 17 18  1  0
 18 19  1  0
 19 20  1  0
 20 21  2  0
 20 22  1  0
 22 23  1  0
 23 24  2  0
 13 25  2  0
 12 26  1  0
 26 27  1  0
 27 28  1  0
  5 29  1  0
 29 30  2  0
 30  3  1  0
 25  9  1  0
 28 11  1  0
 23 17  1  0
  1 31  1  0
  1 32  1  0
  1 33  1  0
  2 34  1  0
  2 35  1  0
  4 36  1  0
 10 37  1  0
 16 38  1  0
 17 39  1  6
 18 40  1  0
 18 41  1  0
 19 42  1  0
 19 43  1  0
 22 44  1  0
 25 45  1  0
 27 46  1  0
 27 47  1  0
 29 48  1  0
M  END
>  <meeko>  (978) 
{"is_sidechain": [true], "free_energy": -10.35, "intermolecular_energy": 0.0, "internal_energy": -10.35, "cluster_size": 20, "cluster_id": 1, "rank_in_cluster": 1}

>  <_RMSD_MCS_to_ref>  (978) 
0.8004731239849479

$$$$
ligand
     RDKit          3D

 41 43  0  0  0  0  0  0  0  0999 V2000
   18.9090   19.1540    7.5370 C   0  0  0  0  0  0  0  0  0  0  0  0
   18.7730   17.6460    7.6780 C   0  0  0  0  0  0  0  0  0  0  0  0
   20.0910   16.9570    7.6330 C   0  0  0  0  0  0  0  0  0  0  0  0
   20.8590   16.4780    8.6760 C   0  0  0  0  0  0  0  0  0  0  0  0
   21.9450   15.9220    8.0650 N   0  0  0  0  0  0  0  0  0  0  0  0
   23.3260   15.3660    8.8340 S   0  0  0  0  0  6  0  0  0  0  0  0
   24.4220   16.1820    8.3470 O   0  0  0  0  0  0  0  0  0  0  0  0
   23.3070   13.9220    8.7230 O   0  0  0  0  0  0  0  0  0  0  0  0
   23.2000   15.7160   10.5590 C   0  0  0  0  0  0  0  0  0  0  0  0
   24.0480   16.3690   11.4340 C   0  0  0  0  0  0  0  0  0  0  0  0
   23.4040   16.3350   12.6920 C   0  0  0  0  0  0  0  0  0  0  0  0
   23.8900   16.8900   13.9570 C   0  0  0  0  0  0  0  0  0  0  0  0
   23.7190   16.3230   15.0320 O   0  0  0  0  0  0  0  0  0  0  0  0
   24.5430   18.0950   13.8430 N   0  0  0  0  0  0  0  0  0  0  0  0
   24.9570   18.8660   15.0010 C   0  0  1  0  0  0  0  0  0  0  0  0
   25.9110   18.0830   15.8990 C   0  0  0  0  0  0  0  0  0  0  0  0
   26.3290   18.9520   17.0750 C   0  0  0  0  0  0  0  0  0  0  0  0
   26.9390   20.2530   16.6080 C   0  0  0  0  0  0  0  0  0  0  0  0
   27.8350   20.8190   17.2260 O   0  0  0  0  0  0  0  0  0  0  0  0
   26.4160   20.7990   15.4630 N   0  0  0  0  0  0  0  0  0  0  0  0
   25.6550   20.1450   14.5260 C   0  0  0  0  0  0  0  0  0  0  0  0
   25.5380   20.5860   13.3850 O   0  0  0  0  0  0  0  0  0  0  0  0
   22.2260   15.6980   12.5970 N   0  0  0  0  0  0  0  0  0  0  0  0
   22.1050   15.3160   11.2770 O   0  0  0  0  0  0  0  0  0  0  0  0
   21.8530   16.1200    6.7250 C   0  0  0  0  0  0  0  0  0  0  0  0
   20.7250   16.7310    6.4260 N   0  0  0  0  0  0  0  0  0  0  0  0
   18.9504   19.6134    8.5356 H   0  0  0  0  0  0  0  0  0  0  0  0
   19.8320   19.3891    6.9867 H   0  0  0  0  0  0  0  0  0  0  0  0
   18.0430   19.5504    6.9867 H   0  0  0  0  0  0  0  0  0  0  0  0
   18.2888   17.4222    8.6400 H   0  0  0  0  0  0  0  0  0  0  0  0
   18.1713   17.2803    6.8328 H   0  0  0  0  0  0  0  0  0  0  0  0
   20.6443   16.5323    9.7535 H   0  0  0  0  0  0  0  0  0  0  0  0
   25.0228   16.8217   11.1997 H   0  0  0  0  0  0  0  0  0  0  0  0
   24.7454   18.4634   12.9027 H   0  0  0  0  0  0  0  0  0  0  0  0
   24.0577   19.1031   15.5884 H   0  0  0  0  0  0  0  0  0  0  0  0
   25.4054   17.1800   16.2719 H   0  0  0  0  0  0  0  0  0  0  0  0
   26.8019   17.7931   15.3226 H   0  0  0  0  0  0  0  0  0  0  0  0
   25.4440   19.1719   17.6902 H   0  0  0  0  0  0  0  0  0  0  0  0
   27.0837   18.4052   17.6593 H   0  0  0  0  0  0  0  0  0  0  0  0
   26.6132   21.7950   15.2899 H   0  0  0  0  0  0  0  0  0  0  0  0
   22.6136   15.8133    5.9919 H   0  0  0  0  0  0  0  0  0  0  0  0
  1  2  1  0
  2  3  1  0
  3  4  2  0
  4  5  1  0
  5  6  1  0
  6  7  2  0
  6  8  2  0
  6  9  1  0
  9 10  2  0
 10 11  1  0
 11 12  1  0
 12 13  2  0
 12 14  1  0
 14 15  1  0
 15 16  1  0
 16 17  1  0
 17 18  1  0
 18 19  2  0
 18 20  1  0
 20 21  1  0
 21 22  2  0
 11 23  2  0
 23 24  1  0
  5 25  1  0
 25 26  2  0
 26  3  1  0
 24  9  1  0
 21 15  1  0
  1 27  1  0
  1 28  1  0
  1 29  1  0
  2 30  1  0
  2 31  1  0
  4 32  1  0
 10 33  1  0
 14 34  1  0
 15 35  1  1
 16 36  1  0
 16 37  1  0
 17 38  1  0
 17 39  1  0
 20 40  1  0
 25 41  1  0
M  END
>  <meeko>  (979) 
{"is_sidechain": [true], "free_energy": -10.35, "intermolecular_energy": 0.0, "internal_energy": -10.35, "cluster_size": 18, "cluster_id": 1, "rank_in_cluster": 1}

>  <_RMSD_MCS_to_ref>  (979) 
0.616990005321534

$$$$
ligand
     RDKit          3D

 49 52  0  0  0  0  0  0  0  0999 V2000
   18.9090   19.1540    7.5370 C   0  0  0  0  0  0  0  0  0  0  0  0
   18.7730   17.6460    7.6780 C   0  0  0  0  0  0  0  0  0  0  0  0
   20.0950   16.9630    7.6850 C   0  0  0  0  0  0  0  0  0  0  0  0
   20.9950   16.8200    8.7220 C   0  0  0  0  0  0  0  0  0  0  0  0
   22.0270   16.1130    8.1740 N   0  0  0  0  0  0  0  0  0  0  0  0
   23.3320   15.4710    9.0100 S   0  0  0  0  0  6  0  0  0  0  0  0
   23.5390   14.1520    8.4480 O   0  0  0  0  0  0  0  0  0  0  0  0
   24.3530   16.5000    8.9820 O   0  0  0  0  0  0  0  0  0  0  0  0
   22.8630   15.2530   10.7060 C   0  0  0  0  0  0  0  0  0  0  0  0
   23.5430   15.9110   11.7330 C   0  0  0  0  0  0  0  0  0  0  0  0
   23.1520   15.7060   13.0580 C   0  0  0  0  0  0  0  0  0  0  0  0
   23.8940   16.4260   14.1310 C   0  0  0  0  0  0  0  0  0  0  0  0
   24.2740   15.8140   15.1210 O   0  0  0  0  0  0  0  0  0  0  0  0
   24.0840   17.7770   13.9630 N   0  0  0  0  0  0  0  0  0  0  0  0
   24.6750   18.5880   15.0220 C   0  0  1  0  0  0  0  0  0  0  0  0
   25.8130   17.8660   15.7340 C   0  0  0  0  0  0  0  0  0  0  0  0
   26.4090   18.7810   16.7930 C   0  0  0  0  0  0  0  0  0  0  0  0
   26.8630   20.0900   16.1930 C   0  0  0  0  0  0  0  0  0  0  0  0
   27.8390   20.7040   16.6130 O   0  0  0  0  0  0  0  0  0  0  0  0
   26.1070   20.5890   15.1630 N   0  0  0  0  0  0  0  0  0  0  0  0
   25.2150   19.8790   14.3990 C   0  0  0  0  0  0  0  0  0  0  0  0
   24.8680   20.2750   13.2860 O   0  0  0  0  0  0  0  0  0  0  0  0
   22.0700   14.8660   13.3390 C   0  0  0  0  0  0  0  0  0  0  0  0
   21.3830   14.2020   12.3340 C   0  0  0  0  0  0  0  0  0  0  0  0
   20.3670   13.4130   12.7010 N   0  0  0  0  0  0  0  0  0  0  0  0
   19.7070   12.7700   11.7280 C   0  0  0  0  0  0  0  0  0  0  0  0
   19.9750   12.8480   10.4230 N   0  0  0  0  0  0  0  0  0  0  0  0
   21.0020   13.6540   10.0870 C   0  0  0  0  0  0  0  0  0  0  0  0
   21.7730   14.3840   11.0010 C   0  0  0  0  0  0  0  0  0  0  0  0
   21.7400   15.8340    6.8780 C   0  0  0  0  0  0  0  0  0  0  0  0
   20.5700   16.3390    6.5470 N   0  0  0  0  0  0  0  0  0  0  0  0
   18.9504   19.6134    8.5356 H   0  0  0  0  0  0  0  0  0  0  0  0
   19.8320   19.3891    6.9867 H   0  0  0  0  0  0  0  0  0  0  0  0
   18.0430   19.5504    6.9867 H   0  0  0  0  0  0  0  0  0  0  0  0
   18.2538   17.4234    8.6218 H   0  0  0  0  0  0  0  0  0  0  0  0
   18.2045   17.2748    6.8126 H   0  0  0  0  0  0  0  0  0  0  0  0
   20.9022   17.1906    9.7535 H   0  0  0  0  0  0  0  0  0  0  0  0
   24.3801   16.5856   11.5002 H   0  0  0  0  0  0  0  0  0  0  0  0
   23.8053   18.2229   13.0773 H   0  0  0  0  0  0  0  0  0  0  0  0
   23.8956   18.7977   15.7693 H   0  0  0  0  0  0  0  0  0  0  0  0
   25.4264   16.9541   16.2126 H   0  0  0  0  0  0  0  0  0  0  0  0
   26.5897   17.5952   15.0037 H   0  0  0  0  0  0  0  0  0  0  0  0
   25.6482   18.9835   17.5612 H   0  0  0  0  0  0  0  0  0  0  0  0
   27.2828   18.2792   17.2342 H   0  0  0  0  0  0  0  0  0  0  0  0
   26.2191   21.5889   14.9426 H   0  0  0  0  0  0  0  0  0  0  0  0
   21.7557   14.7284   14.3841 H   0  0  0  0  0  0  0  0  0  0  0  0
   18.8718   12.1216   12.0313 H   0  0  0  0  0  0  0  0  0  0  0  0
   21.2524   13.7449    9.0197 H   0  0  0  0  0  0  0  0  0  0  0  0
   22.3929   15.2658    6.1991 H   0  0  0  0  0  0  0  0  0  0  0  0
  1  2  1  0
  2  3  1  0
  3  4  2  0
  4  5  1  0
  5  6  1  0
  6  7  2  0
  6  8  2  0
  6  9  1  0
  9 10  2  0
 10 11  1  0
 11 12  1  0
 12 13  2  0
 12 14  1  0
 14 15  1  0
 15 16  1  0
 16 17  1  0
 17 18  1  0
 18 19  2  0
 18 20  1  0
 20 21  1  0
 21 22  2  0
 11 23  2  0
 23 24  1  0
 24 25  2  0
 25 26  1  0
 26 27  2  0
 27 28  1  0
 28 29  2  0
  5 30  1  0
 30 31  2  0
 31  3  1  0
 29  9  1  0
 21 15  1  0
 29 24  1  0
  1 32  1  0
  1 33  1  0
  1 34  1  0
  2 35  1  0
  2 36  1  0
  4 37  1  0
 10 38  1  0
 14 39  1  0
 15 40  1  1
 16 41  1  0
 16 42  1  0
 17 43  1  0
 17 44  1  0
 20 45  1  0
 23 46  1  0
 26 47  1  0
 28 48  1  0
 30 49  1  0
M  END
>  <meeko>  (980) 
{"is_sidechain": [true], "free_energy": -10.35, "intermolecular_energy": 0.0, "internal_energy": -10.35, "cluster_size": 19, "cluster_id": 1, "rank_in_cluster": 1}

>  <_RMSD_MCS_to_ref>  (980) 
0.4311714018551991

$$$$
ligand
     RDKit          3D

 51 54  0  0  0  0  0  0  0  0999 V2000
   18.9090   19.1540    7.5370 C   0  0  0  0  0  0  0  0  0  0  0  0
   18.7730   17.6460    7.6780 C   0  0  0  0  0  0  0  0  0  0  0  0
   20.0130   16.9300    7.2730 C   0  0  0  0  0  0  0  0  0  0  0  0
   21.0930   16.5550    8.0490 C   0  0  0  0  0  0  0  0  0  0  0  0
   21.9230   15.9110    7.1770 N   0  0  0  0  0  0  0  0  0  0  0  0
   23.4980   15.4170    7.4950 S   0  0  0  0  0  6  0  0  0  0  0  0
   23.5650   14.0200    7.1180 O   0  0  0  0  0  0  0  0  0  0  0  0
   24.3500   16.4280    6.9020 O   0  0  0  0  0  0  0  0  0  0  0  0
   23.6240   15.5300    9.2590 C   0  0  0  0  0  0  0  0  0  0  0  0
   24.5100   16.4480    9.8280 C   0  0  0  0  0  0  0  0  0  0  0  0
   24.6090   16.5430   11.2190 C   0  0  0  0  0  0  0  0  0  0  0  0
   23.8190   15.7350   12.0510 C   0  0  0  0  0  0  0  0  0  0  0  0
   23.8860   15.7830   13.5250 C   0  0  0  0  0  0  0  0  0  0  0  0
   24.7490   16.7400   14.2760 C   0  0  0  0  0  0  0  0  0  0  0  0
   25.9460   16.5420   14.4410 O   0  0  0  0  0  0  0  0  0  0  0  0
   24.0830   17.8180   14.8030 N   0  0  0  0  0  0  0  0  0  0  0  0
   24.7480   18.7610   15.6920 C   0  0  1  0  0  0  0  0  0  0  0  0
   25.7450   18.0740   16.6180 C   0  0  0  0  0  0  0  0  0  0  0  0
   26.4290   19.1170   17.4900 C   0  0  0  0  0  0  0  0  0  0  0  0
   27.0850   20.1890   16.6510 C   0  0  0  0  0  0  0  0  0  0  0  0
   28.1210   20.7510   16.9920 O   0  0  0  0  0  0  0  0  0  0  0  0
   26.4460   20.5360   15.4870 N   0  0  0  0  0  0  0  0  0  0  0  0
   25.4890   19.7940   14.8390 C   0  0  0  0  0  0  0  0  0  0  0  0
   25.2440   19.9710   13.6460 O   0  0  0  0  0  0  0  0  0  0  0  0
   23.0820   14.9950   14.2570 C   0  0  0  0  0  0  0  0  0  0  0  0
   22.1510   14.0400   13.6240 C   0  0  0  0  0  0  0  0  0  0  0  0
   21.4400   13.3140   14.3080 O   0  0  0  0  0  0  0  0  0  0  0  0
   22.1280   14.0120   12.2600 N   0  0  0  0  0  0  0  0  0  0  0  0
   22.9270   14.8290   11.4520 C   0  0  0  0  0  0  0  0  0  0  0  0
   22.8200   14.7220   10.0650 C   0  0  0  0  0  0  0  0  0  0  0  0
   21.3800   15.9490    5.9330 C   0  0  0  0  0  0  0  0  0  0  0  0
   20.2130   16.5570    5.9580 N   0  0  0  0  0  0  0  0  0  0  0  0
   18.9504   19.6134    8.5356 H   0  0  0  0  0  0  0  0  0  0  0  0
   19.8320   19.3891    6.9867 H   0  0  0  0  0  0  0  0  0  0  0  0
   18.0430   19.5504    6.9867 H   0  0  0  0  0  0  0  0  0  0  0  0
   18.5529   17.4068    8.7289 H   0  0  0  0  0  0  0  0  0  0  0  0
   17.9603   17.3164    7.0140 H   0  0  0  0  0  0  0  0  0  0  0  0
   21.2484   16.7342    9.1231 H   0  0  0  0  0  0  0  0  0  0  0  0
   25.1266   17.0928    9.1846 H   0  0  0  0  0  0  0  0  0  0  0  0
   25.3140   17.2591   11.6665 H   0  0  0  0  0  0  0  0  0  0  0  0
   23.0915   17.9634   14.5648 H   0  0  0  0  0  0  0  0  0  0  0  0
   23.9818   19.2369   16.3216 H   0  0  0  0  0  0  0  0  0  0  0  0
   25.2149   17.3523   17.2569 H   0  0  0  0  0  0  0  0  0  0  0  0
   26.5001   17.5461   16.0171 H   0  0  0  0  0  0  0  0  0  0  0  0
   25.6790   19.5838   18.1454 H   0  0  0  0  0  0  0  0  0  0  0  0
   27.2074   18.6163   18.0844 H   0  0  0  0  0  0  0  0  0  0  0  0
   26.7083   21.4359   15.0600 H   0  0  0  0  0  0  0  0  0  0  0  0
   23.1179   15.0627   15.3543 H   0  0  0  0  0  0  0  0  0  0  0  0
   21.4859   13.3519   11.7986 H   0  0  0  0  0  0  0  0  0  0  0  0
   22.1124   14.0113    9.6131 H   0  0  0  0  0  0  0  0  0  0  0  0
   21.8497   15.5303    5.0307 H   0  0  0  0  0  0  0  0  0  0  0  0
  1  2  1  0
  2  3  1  0
  3  4  2  0
  4  5  1  0
  5  6  1  0
  6  7  2  0
  6  8  2  0
  6  9  1  0
  9 10  2  0
 10 11  1  0
 11 12  2  0
 12 13  1  0
 13 14  1  0
 14 15  2  0
 14 16  1  0
 16 17  1  0
 17 18  1  0
 18 19  1  0
 19 20  1  0
 20 21  2  0
 20 22  1  0
 22 23  1  0
 23 24  2  0
 13 25  2  0
 25 26  1  0
 26 27  2  0
 26 28  1  0
 28 29  1  0
 29 30  2  0
  5 31  1  0
 31 32  2  0
 32  3  1  0
 30  9  1  0
 29 12  1  0
 23 17  1  0
  1 33  1  0
  1 34  1  0
  1 35  1  0
  2 36  1  0
  2 37  1  0
  4 38  1  0
 10 39  1  0
 11 40  1  0
 16 41  1  0
 17 42  1  1
 18 43  1  0
 18 44  1  0
 19 45  1  0
 19 46  1  0
 22 47  1  0
 25 48  1  0
 28 49  1  0
 30 50  1  0
 31 51  1  0
M  END
>  <meeko>  (981) 
{"is_sidechain": [true], "free_energy": -10.35, "intermolecular_energy": 0.0, "internal_energy": -10.35, "cluster_size": 19, "cluster_id": 1, "rank_in_cluster": 1}

>  <_RMSD_MCS_to_ref>  (981) 
0.8770056378888844

$$$$
ligand
     RDKit          3D

 40 42  0  0  0  0  0  0  0  0999 V2000
   18.9090   19.1540    7.5370 C   0  0  0  0  0  0  0  0  0  0  0  0
   18.7730   17.6460    7.6780 C   0  0  0  0  0  0  0  0  0  0  0  0
   20.0940   16.9610    7.6800 C   0  0  0  0  0  0  0  0  0  0  0  0
   21.0030   16.8300    8.7120 C   0  0  0  0  0  0  0  0  0  0  0  0
   22.0400   16.1350    8.1580 N   0  0  0  0  0  0  0  0  0  0  0  0
   23.3770   15.5380    8.9700 S   0  0  0  0  0  6  0  0  0  0  0  0
   24.4260   16.5300    8.8090 O   0  0  0  0  0  0  0  0  0  0  0  0
   23.5190   14.1550    8.5570 O   0  0  0  0  0  0  0  0  0  0  0  0
   23.0310   15.4870   10.6900 C   0  0  0  0  0  0  0  0  0  0  0  0
   22.0280   14.7330   11.1670 N   0  0  0  0  0  0  0  0  0  0  0  0
   22.0220   14.9390   12.8260 S   0  0  0  0  0  0  0  0  0  0  0  0
   23.3500   16.0110   12.8070 C   0  0  0  0  0  0  0  0  0  0  0  0
   23.8880   16.5970   14.0200 C   0  0  0  0  0  0  0  0  0  0  0  0
   23.9100   16.0430   15.1170 O   0  0  0  0  0  0  0  0  0  0  0  0
   24.3840   17.8740   13.8500 N   0  0  0  0  0  0  0  0  0  0  0  0
   24.8380   18.6910   14.9640 C   0  0  1  0  0  0  0  0  0  0  0  0
   25.8860   17.9740   15.8080 C   0  0  0  0  0  0  0  0  0  0  0  0
   26.3410   18.8880   16.9360 C   0  0  0  0  0  0  0  0  0  0  0  0
   26.8530   20.2050   16.4040 C   0  0  0  0  0  0  0  0  0  0  0  0
   27.7590   20.8270   16.9490 O   0  0  0  0  0  0  0  0  0  0  0  0
   26.2290   20.7000   15.2860 N   0  0  0  0  0  0  0  0  0  0  0  0
   25.4390   19.9890   14.4180 C   0  0  0  0  0  0  0  0  0  0  0  0
   25.2240   20.3960   13.2760 O   0  0  0  0  0  0  0  0  0  0  0  0
   23.8120   16.2320   11.5910 N   0  0  0  0  0  0  0  0  0  0  0  0
   21.7310   15.8220    6.8730 C   0  0  0  0  0  0  0  0  0  0  0  0
   20.5600   16.3270    6.5440 N   0  0  0  0  0  0  0  0  0  0  0  0
   18.9504   19.6134    8.5356 H   0  0  0  0  0  0  0  0  0  0  0  0
   19.8320   19.3891    6.9867 H   0  0  0  0  0  0  0  0  0  0  0  0
   18.0430   19.5504    6.9867 H   0  0  0  0  0  0  0  0  0  0  0  0
   18.2570   17.4236    8.6237 H   0  0  0  0  0  0  0  0  0  0  0  0
   18.2016   17.2759    6.8140 H   0  0  0  0  0  0  0  0  0  0  0  0
   20.9123   17.2006    9.7437 H   0  0  0  0  0  0  0  0  0  0  0  0
   24.4344   18.2630   12.8976 H   0  0  0  0  0  0  0  0  0  0  0  0
   23.9703   18.8993   15.6073 H   0  0  0  0  0  0  0  0  0  0  0  0
   25.4506   17.0571   16.2320 H   0  0  0  0  0  0  0  0  0  0  0  0
   26.7485   17.7128   15.1773 H   0  0  0  0  0  0  0  0  0  0  0  0
   25.4907   19.0792   17.6071 H   0  0  0  0  0  0  0  0  0  0  0  0
   27.1599   18.3905   17.4763 H   0  0  0  0  0  0  0  0  0  0  0  0
   26.3668   21.6996   15.0791 H   0  0  0  0  0  0  0  0  0  0  0  0
   22.3694   15.2296    6.2011 H   0  0  0  0  0  0  0  0  0  0  0  0
  1  2  1  0
  2  3  1  0
  3  4  2  0
  4  5  1  0
  5  6  1  0
  6  7  2  0
  6  8  2  0
  6  9  1  0
  9 10  2  0
 10 11  1  0
 11 12  1  0
 12 13  1  0
 13 14  2  0
 13 15  1  0
 15 16  1  0
 16 17  1  0
 17 18  1  0
 18 19  1  0
 19 20  2  0
 19 21  1  0
 21 22  1  0
 22 23  2  0
 12 24  2  0
  5 25  1  0
 25 26  2  0
 26  3  1  0
 24  9  1  0
 22 16  1  0
  1 27  1  0
  1 28  1  0
  1 29  1  0
  2 30  1  0
  2 31  1  0
  4 32  1  0
 15 33  1  0
 16 34  1  1
 17 35  1  0
 17 36  1  0
 18 37  1  0
 18 38  1  0
 21 39  1  0
 25 40  1  0
M  END
>  <meeko>  (982) 
{"is_sidechain": [true], "free_energy": -10.35, "intermolecular_energy": 0.0, "internal_energy": -10.35, "cluster_size": 20, "cluster_id": 1, "rank_in_cluster": 1}

>  <_RMSD_MCS_to_ref>  (982) 
0.4347570202615097

$$$$
ligand
     RDKit          3D

 45 48  0  0  0  0  0  0  0  0999 V2000
   18.9090   19.1540    7.5370 C   0  0  0  0  0  0  0  0  0  0  0  0
   18.7730   17.6460    7.6780 C   0  0  0  0  0  0  0  0  0  0  0  0
   19.9920   16.9260    7.2210 C   0  0  0  0  0  0  0  0  0  0  0  0
   21.1990   16.7610    7.8710 C   0  0  0  0  0  0  0  0  0  0  0  0
   21.9620   16.0520    6.9870 N   0  0  0  0  0  0  0  0  0  0  0  0
   23.4550   15.3440    7.3210 S   0  0  0  0  0  6  0  0  0  0  0  0
   24.4120   16.4280    7.1920 O   0  0  0  0  0  0  0  0  0  0  0  0
   23.5110   14.1780    6.4580 O   0  0  0  0  0  0  0  0  0  0  0  0
   23.3830   14.8650    8.8770 O   0  0  0  0  0  0  0  0  0  0  0  0
   23.8400   15.6430    9.9130 C   0  0  0  0  0  0  0  0  0  0  0  0
   22.8530   16.0310   10.8250 C   0  0  0  0  0  0  0  0  0  0  0  0
   23.1600   16.8270   11.9360 C   0  0  0  0  0  0  0  0  0  0  0  0
   24.4910   17.2390   12.1260 C   0  0  0  0  0  0  0  0  0  0  0  0
   25.1980   18.0240   13.0860 C   0  0  0  0  0  0  0  0  0  0  0  0
   24.6310   18.6800   14.3130 C   0  0  1  0  0  0  0  0  0  0  0  0
   25.0800   18.1000   15.6570 C   0  0  0  0  0  0  0  0  0  0  0  0
   26.5040   18.4960   16.0250 C   0  0  0  0  0  0  0  0  0  0  0  0
   26.7120   19.9850   15.9190 C   0  0  0  0  0  0  0  0  0  0  0  0
   27.5180   20.5880   16.6220 O   0  0  0  0  0  0  0  0  0  0  0  0
   25.9730   20.6480   14.9730 N   0  0  0  0  0  0  0  0  0  0  0  0
   24.8910   20.1760   14.2730 C   0  0  0  0  0  0  0  0  0  0  0  0
   24.1760   20.9550   13.6430 O   0  0  0  0  0  0  0  0  0  0  0  0
   26.5000   18.1070   12.7820 N   0  0  0  0  0  0  0  0  0  0  0  0
   26.6230   17.3930   11.6520 N   0  0  0  0  0  0  0  0  0  0  0  0
   25.4520   16.8430   11.2050 C   0  0  0  0  0  0  0  0  0  0  0  0
   25.1690   16.0460   10.0880 C   0  0  0  0  0  0  0  0  0  0  0  0
   21.2090   15.7410    5.9010 C   0  0  0  0  0  0  0  0  0  0  0  0
   20.0130   16.2820    5.9990 N   0  0  0  0  0  0  0  0  0  0  0  0
   18.9504   19.6134    8.5356 H   0  0  0  0  0  0  0  0  0  0  0  0
   19.8320   19.3891    6.9867 H   0  0  0  0  0  0  0  0  0  0  0  0
   18.0430   19.5504    6.9867 H   0  0  0  0  0  0  0  0  0  0  0  0
   18.5945   17.4039    8.7361 H   0  0  0  0  0  0  0  0  0  0  0  0
   17.9331   17.3224    7.0457 H   0  0  0  0  0  0  0  0  0  0  0  0
   21.4817   17.1188    8.8721 H   0  0  0  0  0  0  0  0  0  0  0  0
   21.8146   15.7044   10.6666 H   0  0  0  0  0  0  0  0  0  0  0  0
   22.3746   17.1242   12.6465 H   0  0  0  0  0  0  0  0  0  0  0  0
   23.5535   18.4631   14.2685 H   0  0  0  0  0  0  0  0  0  0  0  0
   24.4002   18.4640   16.4415 H   0  0  0  0  0  0  0  0  0  0  0  0
   25.0533   17.0038   15.5700 H   0  0  0  0  0  0  0  0  0  0  0  0
   26.7062   18.1803   17.0591 H   0  0  0  0  0  0  0  0  0  0  0  0
   27.1906   18.0023   15.3215 H   0  0  0  0  0  0  0  0  0  0  0  0
   26.2642   21.6135   14.7632 H   0  0  0  0  0  0  0  0  0  0  0  0
   27.5213   17.2696   11.1633 H   0  0  0  0  0  0  0  0  0  0  0  0
   25.9567   15.7499    9.3796 H   0  0  0  0  0  0  0  0  0  0  0  0
   21.5505   15.1234    5.0573 H   0  0  0  0  0  0  0  0  0  0  0  0
  1  2  1  0
  2  3  1  0
  3  4  2  0
  4  5  1  0
  5  6  1  0
  6  7  2  0
  6  8  2  0
  6  9  1  0
  9 10  1  0
 10 11  2  0
 11 12  1  0
 12 13  2  0
 13 14  1  0
 14 15  1  0
 15 16  1  0
 16 17  1  0
 17 18  1  0
 18 19  2  0
 18 20  1  0
 20 21  1  0
 21 22  2  0
 14 23  2  0
 23 24  1  0
 24 25  1  0
 25 26  2  0
  5 27  1  0
 27 28  2  0
 28  3  1  0
 26 10  1  0
 25 13  1  0
 21 15  1  0
  1 29  1  0
  1 30  1  0
  1 31  1  0
  2 32  1  0
  2 33  1  0
  4 34  1  0
 11 35  1  0
 12 36  1  0
 15 37  1  6
 16 38  1  0
 16 39  1  0
 17 40  1  0
 17 41  1  0
 20 42  1  0
 24 43  1  0
 26 44  1  0
 27 45  1  0
M  END
>  <meeko>  (983) 
{"is_sidechain": [true], "free_energy": -10.35, "intermolecular_energy": 0.0, "internal_energy": -10.35, "cluster_size": 19, "cluster_id": 1, "rank_in_cluster": 1}

>  <_RMSD_MCS_to_ref>  (983) 
0.6810242286438871

$$$$
ligand
     RDKit          3D

 44 47  0  0  0  0  0  0  0  0999 V2000
   18.9090   19.1540    7.5370 C   0  0  0  0  0  0  0  0  0  0  0  0
   18.7730   17.6460    7.6780 C   0  0  0  0  0  0  0  0  0  0  0  0
   20.0120   16.9290    7.2710 C   0  0  0  0  0  0  0  0  0  0  0  0
   21.1420   16.6540    8.0160 C   0  0  0  0  0  0  0  0  0  0  0  0
   21.9420   15.9490    7.1620 N   0  0  0  0  0  0  0  0  0  0  0  0
   23.5550   15.5420    7.4350 S   0  0  0  0  0  6  0  0  0  0  0  0
   23.8360   14.4890    6.4780 O   0  0  0  0  0  0  0  0  0  0  0  0
   24.2650   16.8090    7.4010 O   0  0  0  0  0  0  0  0  0  0  0  0
   23.6130   14.9320    8.9440 O   0  0  0  0  0  0  0  0  0  0  0  0
   23.8350   15.7110   10.0540 C   0  0  0  0  0  0  0  0  0  0  0  0
   22.8610   16.0820   10.9860 C   0  0  0  0  0  0  0  0  0  0  0  0
   23.1760   16.8860   12.0920 C   0  0  0  0  0  0  0  0  0  0  0  0
   24.5050   17.2990   12.2180 C   0  0  0  0  0  0  0  0  0  0  0  0
   25.4900   16.9460   11.3030 C   0  0  0  0  0  0  0  0  0  0  0  0
   25.1590   16.1440   10.2030 C   0  0  0  0  0  0  0  0  0  0  0  0
   26.6860   17.4880   11.6820 N   0  0  0  0  0  0  0  0  0  0  0  0
   26.4930   18.1730   12.8000 N   0  0  0  0  0  0  0  0  0  0  0  0
   25.1900   18.0670   13.1270 N   0  0  0  0  0  0  0  0  0  0  0  0
   24.6890   18.6900   14.3360 C   0  0  1  0  0  0  0  0  0  0  0  0
   25.2150   18.0610   15.6280 C   0  0  0  0  0  0  0  0  0  0  0  0
   26.6390   18.4930   15.9530 C   0  0  0  0  0  0  0  0  0  0  0  0
   26.7910   19.9930   15.9120 C   0  0  0  0  0  0  0  0  0  0  0  0
   27.6150   20.5880   16.6020 O   0  0  0  0  0  0  0  0  0  0  0  0
   25.9760   20.6730   15.0440 N   0  0  0  0  0  0  0  0  0  0  0  0
   24.9290   20.1850   14.3020 C   0  0  0  0  0  0  0  0  0  0  0  0
   24.2200   20.9450   13.6450 O   0  0  0  0  0  0  0  0  0  0  0  0
   21.3460   15.8870    5.9440 C   0  0  0  0  0  0  0  0  0  0  0  0
   20.1580   16.4530    5.9830 N   0  0  0  0  0  0  0  0  0  0  0  0
   18.9504   19.6134    8.5356 H   0  0  0  0  0  0  0  0  0  0  0  0
   19.8320   19.3891    6.9867 H   0  0  0  0  0  0  0  0  0  0  0  0
   18.0430   19.5504    6.9867 H   0  0  0  0  0  0  0  0  0  0  0  0
   18.5545   17.4068    8.7292 H   0  0  0  0  0  0  0  0  0  0  0  0
   17.9593   17.3170    7.0149 H   0  0  0  0  0  0  0  0  0  0  0  0
   21.3501   16.9377    9.0582 H   0  0  0  0  0  0  0  0  0  0  0  0
   21.8257   15.7362   10.8493 H   0  0  0  0  0  0  0  0  0  0  0  0
   22.4112   17.1780   12.8267 H   0  0  0  0  0  0  0  0  0  0  0  0
   25.9263   15.8589    9.4682 H   0  0  0  0  0  0  0  0  0  0  0  0
   23.6051   18.5031   14.3517 H   0  0  0  0  0  0  0  0  0  0  0  0
   24.5581   18.3600   16.4581 H   0  0  0  0  0  0  0  0  0  0  0  0
   25.2218   16.9699   15.4883 H   0  0  0  0  0  0  0  0  0  0  0  0
   26.8985   18.1360   16.9606 H   0  0  0  0  0  0  0  0  0  0  0  0
   27.3095   18.0600   15.1960 H   0  0  0  0  0  0  0  0  0  0  0  0
   26.1745   21.6778   14.9347 H   0  0  0  0  0  0  0  0  0  0  0  0
   21.7930   15.4282    5.0498 H   0  0  0  0  0  0  0  0  0  0  0  0
  1  2  1  0
  2  3  1  0
  3  4  2  0
  4  5  1  0
  5  6  1  0
  6  7  2  0
  6  8  2  0
  6  9  1  0
  9 10  1  0
 10 11  2  0
 11 12  1  0
 12 13  2  0
 13 14  1  0
 14 15  2  0
 14 16  1  0
 16 17  2  0
 17 18  1  0
 18 19  1  0
 19 20  1  0
 20 21  1  0
 21 22  1  0
 22 23  2  0
 22 24  1  0
 24 25  1  0
 25 26  2  0
  5 27  1  0
 27 28  2  0
 28  3  1  0
 15 10  1  0
 25 19  1  0
 18 13  1  0
  1 29  1  0
  1 30  1  0
  1 31  1  0
  2 32  1  0
  2 33  1  0
  4 34  1  0
 11 35  1  0
 12 36  1  0
 15 37  1  0
 19 38  1  1
 20 39  1  0
 20 40  1  0
 21 41  1  0
 21 42  1  0
 24 43  1  0
 27 44  1  0
M  END
>  <meeko>  (984) 
{"is_sidechain": [true], "free_energy": -10.35, "intermolecular_energy": 0.0, "internal_energy": -10.35, "cluster_size": 20, "cluster_id": 1, "rank_in_cluster": 1}

>  <_RMSD_MCS_to_ref>  (984) 
0.6981872560026038

$$$$
ligand
     RDKit          3D

 45 47  0  0  0  0  0  0  0  0999 V2000
   18.9090   19.1540    7.5370 C   0  0  0  0  0  0  0  0  0  0  0  0
   18.7730   17.6460    7.6780 C   0  0  0  0  0  0  0  0  0  0  0  0
   20.0890   16.9780    7.8700 C   0  0  0  0  0  0  0  0  0  0  0  0
   20.4560   16.0390    8.8140 C   0  0  0  0  0  0  0  0  0  0  0  0
   21.7610   15.7620    8.5180 N   0  0  0  0  0  0  0  0  0  0  0  0
   22.7690   14.7450    9.4090 S   0  0  0  0  0  6  0  0  0  0  0  0
   22.0310   14.5510   10.6490 O   0  0  0  0  0  0  0  0  0  0  0  0
   23.0310   13.6100    8.5420 O   0  0  0  0  0  0  0  0  0  0  0  0
   24.2340   15.5690    9.7440 C   0  0  0  0  0  0  0  0  0  0  0  0
   25.3070   15.3960    8.9580 C   0  0  0  0  0  0  0  0  0  0  0  0
   26.4930   16.0430    9.1850 N   0  0  0  0  0  0  0  0  0  0  0  0
   26.6420   16.9030   10.2440 C   0  0  0  0  0  0  0  0  0  0  0  0
   25.6560   17.1910   11.1120 C   0  0  0  0  0  0  0  0  0  0  0  0
   25.9420   18.1210   12.2380 C   0  0  0  0  0  0  0  0  0  0  0  0
   27.0220   18.6980   12.3390 O   0  0  0  0  0  0  0  0  0  0  0  0
   24.9280   18.2760   13.1520 N   0  0  0  0  0  0  0  0  0  0  0  0
   25.1960   18.8280   14.4700 C   0  0  1  0  0  0  0  0  0  0  0  0
   26.2400   17.9980   15.2050 C   0  0  0  0  0  0  0  0  0  0  0  0
   26.5020   18.6080   16.5730 C   0  0  0  0  0  0  0  0  0  0  0  0
   26.9120   20.0580   16.4600 C   0  0  0  0  0  0  0  0  0  0  0  0
   27.6970   20.5820   17.2440 O   0  0  0  0  0  0  0  0  0  0  0  0
   26.3370   20.7830   15.4460 N   0  0  0  0  0  0  0  0  0  0  0  0
   25.7110   20.2710   14.3340 C   0  0  0  0  0  0  0  0  0  0  0  0
   25.5800   20.9530   13.3190 O   0  0  0  0  0  0  0  0  0  0  0  0
   24.3390   16.5160   10.8780 C   0  0  0  0  0  0  0  0  0  0  0  0
   23.3770   16.7340   11.6090 O   0  0  0  0  0  0  0  0  0  0  0  0
   22.1540   16.5280    7.4680 C   0  0  0  0  0  0  0  0  0  0  0  0
   21.1530   17.2710    7.0400 N   0  0  0  0  0  0  0  0  0  0  0  0
   18.9504   19.6134    8.5356 H   0  0  0  0  0  0  0  0  0  0  0  0
   19.8320   19.3891    6.9867 H   0  0  0  0  0  0  0  0  0  0  0  0
   18.0430   19.5504    6.9867 H   0  0  0  0  0  0  0  0  0  0  0  0
   18.1348   17.4276    8.5470 H   0  0  0  0  0  0  0  0  0  0  0  0
   18.3303   17.2587    6.7485 H   0  0  0  0  0  0  0  0  0  0  0  0
   19.8396   15.6123    9.6190 H   0  0  0  0  0  0  0  0  0  0  0  0
   25.2320   14.7105    8.1010 H   0  0  0  0  0  0  0  0  0  0  0  0
   27.2872   15.8811    8.5494 H   0  0  0  0  0  0  0  0  0  0  0  0
   27.6209   17.3827   10.3908 H   0  0  0  0  0  0  0  0  0  0  0  0
   23.9684   17.9984   12.9010 H   0  0  0  0  0  0  0  0  0  0  0  0
   24.2582   18.8130   15.0447 H   0  0  0  0  0  0  0  0  0  0  0  0
   25.8707   16.9691   15.3271 H   0  0  0  0  0  0  0  0  0  0  0  0
   27.1740   17.9861   14.6241 H   0  0  0  0  0  0  0  0  0  0  0  0
   25.5847   18.5413   17.1764 H   0  0  0  0  0  0  0  0  0  0  0  0
   27.3231   18.0518   17.0489 H   0  0  0  0  0  0  0  0  0  0  0  0
   26.3785   21.8091   15.5258 H   0  0  0  0  0  0  0  0  0  0  0  0
   23.1654   16.5284    7.0355 H   0  0  0  0  0  0  0  0  0  0  0  0
  1  2  1  0
  2  3  1  0
  3  4  2  0
  4  5  1  0
  5  6  1  0
  6  7  2  0
  6  8  2  0
  6  9  1  0
  9 10  2  0
 10 11  1  0
 11 12  1  0
 12 13  2  0
 13 14  1  0
 14 15  2  0
 14 16  1  0
 16 17  1  0
 17 18  1  0
 18 19  1  0
 19 20  1  0
 20 21  2  0
 20 22  1  0
 22 23  1  0
 23 24  2  0
 13 25  1  0
 25 26  2  0
  5 27  1  0
 27 28  2  0
 28  3  1  0
 25  9  1  0
 23 17  1  0
  1 29  1  0
  1 30  1  0
  1 31  1  0
  2 32  1  0
  2 33  1  0
  4 34  1  0
 10 35  1  0
 11 36  1  0
 12 37  1  0
 16 38  1  0
 17 39  1  1
 18 40  1  0
 18 41  1  0
 19 42  1  0
 19 43  1  0
 22 44  1  0
 27 45  1  0
M  END
>  <meeko>  (985) 
{"is_sidechain": [true], "free_energy": -10.35, "intermolecular_energy": 0.0, "internal_energy": -10.35, "cluster_size": 20, "cluster_id": 1, "rank_in_cluster": 1}

>  <_RMSD_MCS_to_ref>  (985) 
0.6959810022950016

$$$$
ligand
     RDKit          3D

 46 49  0  0  0  0  0  0  0  0999 V2000
   18.8250   19.0170    7.5350 C   0  0  0  0  0  0  0  0  0  0  0  0
   18.5200   17.5420    7.7330 C   0  0  0  0  0  0  0  0  0  0  0  0
   19.7340   16.7620    8.0990 C   0  0  0  0  0  0  0  0  0  0  0  0
   20.0540   16.1620    9.3010 C   0  0  0  0  0  0  0  0  0  0  0  0
   21.2660   15.5790    9.0710 N   0  0  0  0  0  0  0  0  0  0  0  0
   22.1880   14.7800   10.2220 S   0  0  0  0  0  6  0  0  0  0  0  0
   22.3320   13.4100    9.7630 O   0  0  0  0  0  0  0  0  0  0  0  0
   21.5320   15.0960   11.4790 O   0  0  0  0  0  0  0  0  0  0  0  0
   23.7910   15.4880   10.2830 C   0  0  0  0  0  0  0  0  0  0  0  0
   24.1340   16.2760   11.2760 N   0  0  0  0  0  0  0  0  0  0  0  0
   25.4240   16.8010   11.2630 C   0  0  0  0  0  0  0  0  0  0  0  0
   25.8540   17.7060   12.3950 C   0  0  0  0  0  0  0  0  0  0  0  0
   26.9670   18.2120   12.4620 O   0  0  0  0  0  0  0  0  0  0  0  0
   24.8720   17.8880   13.3340 N   0  0  0  0  0  0  0  0  0  0  0  0
   25.1100   18.5990   14.5790 C   0  0  1  0  0  0  0  0  0  0  0  0
   26.1060   17.8650   15.4700 C   0  0  0  0  0  0  0  0  0  0  0  0
   26.3340   18.6630   16.7430 C   0  0  0  0  0  0  0  0  0  0  0  0
   26.7890   20.0700   16.4340 C   0  0  0  0  0  0  0  0  0  0  0  0
   27.5640   20.6860   17.1590 O   0  0  0  0  0  0  0  0  0  0  0  0
   26.2650   20.6510   15.3060 N   0  0  0  0  0  0  0  0  0  0  0  0
   25.6490   19.9980   14.2670 C   0  0  0  0  0  0  0  0  0  0  0  0
   25.5320   20.5320   13.1650 O   0  0  0  0  0  0  0  0  0  0  0  0
   26.3380   16.5570   10.3020 C   0  0  0  0  0  0  0  0  0  0  0  0
   25.9660   15.7160    9.2350 C   0  0  0  0  0  0  0  0  0  0  0  0
   26.5740   15.2890    8.1530 N   0  0  0  0  0  0  0  0  0  0  0  0
   25.6230   14.5110    7.5520 C   0  0  0  0  0  0  0  0  0  0  0  0
   24.4550   14.4340    8.2000 N   0  0  0  0  0  0  0  0  0  0  0  0
   24.6950   15.2030    9.2750 N   0  0  0  0  0  0  0  0  0  0  0  0
   21.6540   15.8380    7.7960 C   0  0  0  0  0  0  0  0  0  0  0  0
   20.7400   16.5560    7.1760 N   0  0  0  0  0  0  0  0  0  0  0  0
   18.9260   19.5054    8.5155 H   0  0  0  0  0  0  0  0  0  0  0  0
   19.7645   19.1250    6.9731 H   0  0  0  0  0  0  0  0  0  0  0  0
   18.0054   19.4887    6.9731 H   0  0  0  0  0  0  0  0  0  0  0  0
   17.7765   17.4386    8.5371 H   0  0  0  0  0  0  0  0  0  0  0  0
   18.1373   17.1451    6.7812 H   0  0  0  0  0  0  0  0  0  0  0  0
   19.4664   16.1556   10.2309 H   0  0  0  0  0  0  0  0  0  0  0  0
   23.9326   17.5075   13.1508 H   0  0  0  0  0  0  0  0  0  0  0  0
   24.1542   18.6638   15.1197 H   0  0  0  0  0  0  0  0  0  0  0  0
   25.7062   16.8728   15.7263 H   0  0  0  0  0  0  0  0  0  0  0  0
   27.0600   17.7499   14.9346 H   0  0  0  0  0  0  0  0  0  0  0  0
   25.3934   18.7072   17.3116 H   0  0  0  0  0  0  0  0  0  0  0  0
   27.1199   18.1646   17.3295 H   0  0  0  0  0  0  0  0  0  0  0  0
   26.3413   21.6755   15.2319 H   0  0  0  0  0  0  0  0  0  0  0  0
   27.3432   17.0011   10.3499 H   0  0  0  0  0  0  0  0  0  0  0  0
   25.8056   13.9857    6.6029 H   0  0  0  0  0  0  0  0  0  0  0  0
   22.5974   15.4968    7.3448 H   0  0  0  0  0  0  0  0  0  0  0  0
  1  2  1  0
  2  3  1  0
  3  4  2  0
  4  5  1  0
  5  6  1  0
  6  7  2  0
  6  8  2  0
  6  9  1  0
  9 10  2  0
 10 11  1  0
 11 12  1  0
 12 13  2  0
 12 14  1  0
 14 15  1  0
 15 16  1  0
 16 17  1  0
 17 18  1  0
 18 19  2  0
 18 20  1  0
 20 21  1  0
 21 22  2  0
 11 23  2  0
 23 24  1  0
 24 25  2  0
 25 26  1  0
 26 27  2  0
 27 28  1  0
  5 29  1  0
 29 30  2  0
 30  3  1  0
 28  9  1  0
 21 15  1  0
 28 24  1  0
  1 31  1  0
  1 32  1  0
  1 33  1  0
  2 34  1  0
  2 35  1  0
  4 36  1  0
 14 37  1  0
 15 38  1  1
 16 39  1  0
 16 40  1  0
 17 41  1  0
 17 42  1  0
 20 43  1  0
 23 44  1  0
 26 45  1  0
 29 46  1  0
M  END
>  <meeko>  (986) 
{"is_sidechain": [true], "free_energy": -10.34, "intermolecular_energy": 0.0, "internal_energy": -10.34, "cluster_size": 8, "cluster_id": 1, "rank_in_cluster": 1}

>  <_RMSD_MCS_to_ref>  (986) 
0.5267264733975101

$$$$
ligand
     RDKit          3D

 48 51  0  0  0  0  0  0  0  0999 V2000
   18.7980   18.8170    7.7190 C   0  0  0  0  0  0  0  0  0  0  0  0
   18.5270   17.3290    7.8810 C   0  0  0  0  0  0  0  0  0  0  0  0
   19.7840   16.5330    7.9220 C   0  0  0  0  0  0  0  0  0  0  0  0
   20.3500   15.8630    8.9870 C   0  0  0  0  0  0  0  0  0  0  0  0
   21.4650   15.2780    8.4610 N   0  0  0  0  0  0  0  0  0  0  0  0
   22.4800   14.1850    9.2310 S   0  0  0  0  0  6  0  0  0  0  0  0
   23.7970   14.7890    9.2520 O   0  0  0  0  0  0  0  0  0  0  0  0
   22.2140   12.9190    8.5750 O   0  0  0  0  0  0  0  0  0  0  0  0
   21.8920   14.0880   10.8920 C   0  0  0  0  0  0  0  0  0  0  0  0
   20.6150   13.5610   11.1180 C   0  0  0  0  0  0  0  0  0  0  0  0
   20.1360   13.5140   12.4170 C   0  0  0  0  0  0  0  0  0  0  0  0
   20.8010   13.9430   13.5090 N   0  0  0  0  0  0  0  0  0  0  0  0
   22.0260   14.4240   13.2390 C   0  0  0  0  0  0  0  0  0  0  0  0
   22.8830   14.9090   14.1850 N   0  0  0  0  0  0  0  0  0  0  0  0
   24.0550   15.3380   13.6010 C   0  0  0  0  0  0  0  0  0  0  0  0
   25.1140   15.9280   14.3880 C   0  0  0  0  0  0  0  0  0  0  0  0
   25.9630   15.2510   14.9580 O   0  0  0  0  0  0  0  0  0  0  0  0
   25.0990   17.2970   14.4610 N   0  0  0  0  0  0  0  0  0  0  0  0
   26.1500   18.0490   15.1260 C   0  0  2  0  0  0  0  0  0  0  0  0
   26.1540   17.8330   16.6370 C   0  0  0  0  0  0  0  0  0  0  0  0
   27.2450   18.6860   17.2660 C   0  0  0  0  0  0  0  0  0  0  0  0
   27.0820   20.1430   16.9030 C   0  0  0  0  0  0  0  0  0  0  0  0
   27.3640   21.0520   17.6770 O   0  0  0  0  0  0  0  0  0  0  0  0
   26.6220   20.4130   15.6390 N   0  0  0  0  0  0  0  0  0  0  0  0
   25.9250   19.5380   14.8430 C   0  0  0  0  0  0  0  0  0  0  0  0
   25.1700   19.9410   13.9590 O   0  0  0  0  0  0  0  0  0  0  0  0
   23.9340   15.0750   12.2440 C   0  0  0  0  0  0  0  0  0  0  0  0
   22.6420   14.5270   11.9990 C   0  0  0  0  0  0  0  0  0  0  0  0
   21.5730   15.6180    7.1520 C   0  0  0  0  0  0  0  0  0  0  0  0
   20.5540   16.3690    6.7870 N   0  0  0  0  0  0  0  0  0  0  0  0
   18.8831   19.2843    8.7111 H   0  0  0  0  0  0  0  0  0  0  0  0
   19.7370   18.9604    7.1644 H   0  0  0  0  0  0  0  0  0  0  0  0
   17.9698   19.2823    7.1644 H   0  0  0  0  0  0  0  0  0  0  0  0
   17.9749   17.1689    8.8188 H   0  0  0  0  0  0  0  0  0  0  0  0
   17.9419   16.9943    7.0117 H   0  0  0  0  0  0  0  0  0  0  0  0
   19.9856   15.8120   10.0236 H   0  0  0  0  0  0  0  0  0  0  0  0
   20.0042   13.1917   10.2810 H   0  0  0  0  0  0  0  0  0  0  0  0
   19.1316   13.0925   12.5702 H   0  0  0  0  0  0  0  0  0  0  0  0
   22.6815   14.9486   15.1943 H   0  0  0  0  0  0  0  0  0  0  0  0
   24.3166   17.8098   14.0301 H   0  0  0  0  0  0  0  0  0  0  0  0
   27.1182   17.6998   14.7379 H   0  0  0  0  0  0  0  0  0  0  0  0
   25.1771   18.1222   17.0517 H   0  0  0  0  0  0  0  0  0  0  0  0
   26.3447   16.7721   16.8562 H   0  0  0  0  0  0  0  0  0  0  0  0
   27.1950   18.5818   18.3599 H   0  0  0  0  0  0  0  0  0  0  0  0
   28.2176   18.3407   16.8855 H   0  0  0  0  0  0  0  0  0  0  0  0
   26.8155   21.3492   15.2556 H   0  0  0  0  0  0  0  0  0  0  0  0
   24.7073   15.2591   11.4836 H   0  0  0  0  0  0  0  0  0  0  0  0
   22.3951   15.3101    6.4892 H   0  0  0  0  0  0  0  0  0  0  0  0
  1  2  1  0
  2  3  1  0
  3  4  2  0
  4  5  1  0
  5  6  1  0
  6  7  2  0
  6  8  2  0
  6  9  1  0
  9 10  2  0
 10 11  1  0
 11 12  2  0
 12 13  1  0
 13 14  1  0
 14 15  1  0
 15 16  1  0
 16 17  2  0
 16 18  1  0
 18 19  1  0
 19 20  1  0
 20 21  1  0
 21 22  1  0
 22 23  2  0
 22 24  1  0
 24 25  1  0
 25 26  2  0
 15 27  2  0
 27 28  1  0
  5 29  1  0
 29 30  2  0
 30  3  1  0
 28  9  1  0
 28 13  2  0
 25 19  1  0
  1 31  1  0
  1 32  1  0
  1 33  1  0
  2 34  1  0
  2 35  1  0
  4 36  1  0
 10 37  1  0
 11 38  1  0
 14 39  1  0
 18 40  1  0
 19 41  1  6
 20 42  1  0
 20 43  1  0
 21 44  1  0
 21 45  1  0
 24 46  1  0
 27 47  1  0
 29 48  1  0
M  END
>  <meeko>  (987) 
{"is_sidechain": [true], "free_energy": -10.34, "intermolecular_energy": 0.0, "internal_energy": -10.34, "cluster_size": 10, "cluster_id": 1, "rank_in_cluster": 1}

>  <_RMSD_MCS_to_ref>  (987) 
0.7073953004587397

$$$$
ligand
     RDKit          3D

 48 51  0  0  0  0  0  0  0  0999 V2000
   18.7970   18.8170    7.7190 C   0  0  0  0  0  0  0  0  0  0  0  0
   18.5280   17.3290    7.8810 C   0  0  0  0  0  0  0  0  0  0  0  0
   19.7860   16.5370    7.9720 C   0  0  0  0  0  0  0  0  0  0  0  0
   20.1690   15.6210    8.9300 C   0  0  0  0  0  0  0  0  0  0  0  0
   21.3940   15.1860    8.5080 N   0  0  0  0  0  0  0  0  0  0  0  0
   22.4430   14.1990    9.3720 S   0  0  0  0  0  6  0  0  0  0  0  0
   22.4110   12.9270    8.6790 O   0  0  0  0  0  0  0  0  0  0  0  0
   23.6530   14.9850    9.5210 O   0  0  0  0  0  0  0  0  0  0  0  0
   21.7490   13.9560   10.9910 C   0  0  0  0  0  0  0  0  0  0  0  0
   20.7210   13.0220   11.2060 C   0  0  0  0  0  0  0  0  0  0  0  0
   20.1790   12.8390   12.4720 C   0  0  0  0  0  0  0  0  0  0  0  0
   20.6500   13.5810   13.5540 C   0  0  0  0  0  0  0  0  0  0  0  0
   21.6840   14.5300   13.3790 C   0  0  0  0  0  0  0  0  0  0  0  0
   22.3090   15.3920   14.3390 C   0  0  0  0  0  0  0  0  0  0  0  0
   23.2920   16.1960   13.8010 C   0  0  0  0  0  0  0  0  0  0  0  0
   24.1000   17.1720   14.5180 C   0  0  0  0  0  0  0  0  0  0  0  0
   23.6100   18.0410   15.2370 O   0  0  0  0  0  0  0  0  0  0  0  0
   25.4630   17.0710   14.3570 N   0  0  0  0  0  0  0  0  0  0  0  0
   26.3950   17.8870   15.1190 C   0  0  2  0  0  0  0  0  0  0  0  0
   26.1600   17.7750   16.6220 C   0  0  0  0  0  0  0  0  0  0  0  0
   27.1450   18.6710   17.3570 C   0  0  0  0  0  0  0  0  0  0  0  0
   27.0510   20.1000   16.8780 C   0  0  0  0  0  0  0  0  0  0  0  0
   27.2420   21.0580   17.6220 O   0  0  0  0  0  0  0  0  0  0  0  0
   26.7690   20.2850   15.5480 N   0  0  0  0  0  0  0  0  0  0  0  0
   26.2320   19.3500   14.6970 C   0  0  0  0  0  0  0  0  0  0  0  0
   25.6710   19.6870   13.6550 O   0  0  0  0  0  0  0  0  0  0  0  0
   23.4630   15.9090   12.1300 S   0  0  0  0  0  0  0  0  0  0  0  0
   22.2220   14.7060   12.0980 C   0  0  0  0  0  0  0  0  0  0  0  0
   21.7290   15.8400    7.3650 C   0  0  0  0  0  0  0  0  0  0  0  0
   20.7740   16.6770    7.0160 N   0  0  0  0  0  0  0  0  0  0  0  0
   18.8815   19.2845    8.7111 H   0  0  0  0  0  0  0  0  0  0  0  0
   19.7359   18.9616    7.1643 H   0  0  0  0  0  0  0  0  0  0  0  0
   17.9682   19.2812    7.1643 H   0  0  0  0  0  0  0  0  0  0  0  0
   17.9435   17.1725    8.7997 H   0  0  0  0  0  0  0  0  0  0  0  0
   17.9767   16.9866    6.9929 H   0  0  0  0  0  0  0  0  0  0  0  0
   19.6149   15.3114    9.8284 H   0  0  0  0  0  0  0  0  0  0  0  0
   20.3409   12.4286   10.3614 H   0  0  0  0  0  0  0  0  0  0  0  0
   19.3738   12.1046   12.6214 H   0  0  0  0  0  0  0  0  0  0  0  0
   20.2139   13.4272   14.5521 H   0  0  0  0  0  0  0  0  0  0  0  0
   22.0311   15.4104   15.4031 H   0  0  0  0  0  0  0  0  0  0  0  0
   25.8353   16.3954   13.6745 H   0  0  0  0  0  0  0  0  0  0  0  0
   27.4123   17.5249   14.9093 H   0  0  0  0  0  0  0  0  0  0  0  0
   25.1324   18.0894   16.8569 H   0  0  0  0  0  0  0  0  0  0  0  0
   26.3057   16.7319   16.9393 H   0  0  0  0  0  0  0  0  0  0  0  0
   26.9236   18.6390   18.4340 H   0  0  0  0  0  0  0  0  0  0  0  0
   28.1628   18.3045   17.1575 H   0  0  0  0  0  0  0  0  0  0  0  0
   26.9797   21.2116   15.1506 H   0  0  0  0  0  0  0  0  0  0  0  0
   22.6665   15.6912    6.8091 H   0  0  0  0  0  0  0  0  0  0  0  0
  1  2  1  0
  2  3  1  0
  3  4  2  0
  4  5  1  0
  5  6  1  0
  6  7  2  0
  6  8  2  0
  6  9  1  0
  9 10  2  0
 10 11  1  0
 11 12  2  0
 12 13  1  0
 13 14  1  0
 14 15  2  0
 15 16  1  0
 16 17  2  0
 16 18  1  0
 18 19  1  0
 19 20  1  0
 20 21  1  0
 21 22  1  0
 22 23  2  0
 22 24  1  0
 24 25  1  0
 25 26  2  0
 15 27  1  0
 27 28  1  0
  5 29  1  0
 29 30  2  0
 30  3  1  0
 28  9  1  0
 28 13  2  0
 25 19  1  0
  1 31  1  0
  1 32  1  0
  1 33  1  0
  2 34  1  0
  2 35  1  0
  4 36  1  0
 10 37  1  0
 11 38  1  0
 12 39  1  0
 14 40  1  0
 18 41  1  0
 19 42  1  1
 20 43  1  0
 20 44  1  0
 21 45  1  0
 21 46  1  0
 24 47  1  0
 29 48  1  0
M  END
>  <meeko>  (988) 
{"is_sidechain": [true], "free_energy": -10.34, "intermolecular_energy": 0.0, "internal_energy": -10.34, "cluster_size": 18, "cluster_id": 1, "rank_in_cluster": 1}

>  <_RMSD_MCS_to_ref>  (988) 
0.8473868328245623

$$$$
ligand
     RDKit          3D

 46 49  0  0  0  0  0  0  0  0999 V2000
   18.7970   18.8170    7.7190 C   0  0  0  0  0  0  0  0  0  0  0  0
   18.5280   17.3290    7.8810 C   0  0  0  0  0  0  0  0  0  0  0  0
   19.5880   16.4960    7.2500 C   0  0  0  0  0  0  0  0  0  0  0  0
   20.5540   15.7160    7.8530 C   0  0  0  0  0  0  0  0  0  0  0  0
   21.2390   15.1630    6.8090 N   0  0  0  0  0  0  0  0  0  0  0  0
   22.6500   14.2630    6.9200 S   0  0  0  0  0  6  0  0  0  0  0  0
   22.2680   12.8900    6.6460 O   0  0  0  0  0  0  0  0  0  0  0  0
   23.6380   14.9790    6.1350 O   0  0  0  0  0  0  0  0  0  0  0  0
   23.1970   14.3180    8.5940 C   0  0  0  0  0  0  0  0  0  0  0  0
   23.0230   13.3680    9.4930 N   0  0  0  0  0  0  0  0  0  0  0  0
   23.5830   13.7840   10.6850 C   0  0  0  0  0  0  0  0  0  0  0  0
   23.6260   13.0850   11.9040 C   0  0  0  0  0  0  0  0  0  0  0  0
   24.2490   13.7010   12.9910 C   0  0  0  0  0  0  0  0  0  0  0  0
   24.7970   14.9690   12.8220 C   0  0  0  0  0  0  0  0  0  0  0  0
   25.4720   15.6320   13.9890 C   0  0  0  0  0  0  0  0  0  0  0  0
   25.7760   15.0050   14.9970 O   0  0  0  0  0  0  0  0  0  0  0  0
   25.7240   16.9750   13.8240 N   0  0  0  0  0  0  0  0  0  0  0  0
   26.5040   17.7450   14.7760 C   0  0  2  0  0  0  0  0  0  0  0  0
   25.9280   17.6640   16.1850 C   0  0  0  0  0  0  0  0  0  0  0  0
   26.7740   18.5050   17.1290 C   0  0  0  0  0  0  0  0  0  0  0  0
   26.8790   19.9330   16.6470 C   0  0  0  0  0  0  0  0  0  0  0  0
   26.9570   20.8830   17.4190 O   0  0  0  0  0  0  0  0  0  0  0  0
   26.9170   20.1210   15.2890 N   0  0  0  0  0  0  0  0  0  0  0  0
   26.5370   19.2120   14.3320 C   0  0  0  0  0  0  0  0  0  0  0  0
   26.2630   19.5750   13.1890 O   0  0  0  0  0  0  0  0  0  0  0  0
   24.7850   15.6900   11.6670 N   0  0  0  0  0  0  0  0  0  0  0  0
   24.1710   15.0480   10.6540 C   0  0  0  0  0  0  0  0  0  0  0  0
   24.0170   15.7300    9.1010 S   0  0  0  0  0  0  0  0  0  0  0  0
   20.7360   15.6440    5.6430 C   0  0  0  0  0  0  0  0  0  0  0  0
   19.7150   16.4420    5.8750 N   0  0  0  0  0  0  0  0  0  0  0  0
   18.8815   19.2845    8.7111 H   0  0  0  0  0  0  0  0  0  0  0  0
   19.7359   18.9616    7.1643 H   0  0  0  0  0  0  0  0  0  0  0  0
   17.9682   19.2812    7.1643 H   0  0  0  0  0  0  0  0  0  0  0  0
   18.4823   17.0917    8.9541 H   0  0  0  0  0  0  0  0  0  0  0  0
   17.5754   17.1007    7.3806 H   0  0  0  0  0  0  0  0  0  0  0  0
   20.7316   15.5725    8.9290 H   0  0  0  0  0  0  0  0  0  0  0  0
   23.1822   12.0830   11.9985 H   0  0  0  0  0  0  0  0  0  0  0  0
   24.3058   13.1926   13.9648 H   0  0  0  0  0  0  0  0  0  0  0  0
   25.3448   17.4519   12.9935 H   0  0  0  0  0  0  0  0  0  0  0  0
   27.5187   17.3210   14.7999 H   0  0  0  0  0  0  0  0  0  0  0  0
   24.8957   18.0438   16.1813 H   0  0  0  0  0  0  0  0  0  0  0  0
   25.9330   16.6172   16.5230 H   0  0  0  0  0  0  0  0  0  0  0  0
   26.3124   18.4968   18.1274 H   0  0  0  0  0  0  0  0  0  0  0  0
   27.7859   18.0752   17.1646 H   0  0  0  0  0  0  0  0  0  0  0  0
   27.2638   21.0314   14.9546 H   0  0  0  0  0  0  0  0  0  0  0  0
   21.1271   15.4008    4.6440 H   0  0  0  0  0  0  0  0  0  0  0  0
  1  2  1  0
  2  3  1  0
  3  4  2  0
  4  5  1  0
  5  6  1  0
  6  7  2  0
  6  8  2  0
  6  9  1  0
  9 10  2  0
 10 11  1  0
 11 12  2  0
 12 13  1  0
 13 14  2  0
 14 15  1  0
 15 16  2  0
 15 17  1  0
 17 18  1  0
 18 19  1  0
 19 20  1  0
 20 21  1  0
 21 22  2  0
 21 23  1  0
 23 24  1  0
 24 25  2  0
 14 26  1  0
 26 27  2  0
 27 28  1  0
  5 29  1  0
 29 30  2  0
 30  3  1  0
 28  9  1  0
 27 11  1  0
 24 18  1  0
  1 31  1  0
  1 32  1  0
  1 33  1  0
  2 34  1  0
  2 35  1  0
  4 36  1  0
 12 37  1  0
 13 38  1  0
 17 39  1  0
 18 40  1  1
 19 41  1  0
 19 42  1  0
 20 43  1  0
 20 44  1  0
 23 45  1  0
 29 46  1  0
M  END
>  <meeko>  (989) 
{"is_sidechain": [true], "free_energy": -10.34, "intermolecular_energy": 0.0, "internal_energy": -10.34, "cluster_size": 15, "cluster_id": 1, "rank_in_cluster": 1}

>  <_RMSD_MCS_to_ref>  (989) 
0.9859918300315116

$$$$
ligand
     RDKit          3D

 51 54  0  0  0  0  0  0  0  0999 V2000
   18.7970   18.8170    7.7190 C   0  0  0  0  0  0  0  0  0  0  0  0
   18.5280   17.3290    7.8810 C   0  0  0  0  0  0  0  0  0  0  0  0
   19.6460   16.4950    7.3630 C   0  0  0  0  0  0  0  0  0  0  0  0
   20.9350   16.3740    7.8420 C   0  0  0  0  0  0  0  0  0  0  0  0
   21.5340   15.5050    6.9750 N   0  0  0  0  0  0  0  0  0  0  0  0
   23.0480   14.8030    7.1740 S   0  0  0  0  0  6  0  0  0  0  0  0
   24.0090   15.8730    7.0030 O   0  0  0  0  0  0  0  0  0  0  0  0
   23.0460   13.6160    6.3420 O   0  0  0  0  0  0  0  0  0  0  0  0
   23.0530   14.3050    8.8760 C   0  0  0  0  0  0  0  0  0  0  0  0
   22.2600   13.2270    9.2840 C   0  0  0  0  0  0  0  0  0  0  0  0
   22.2700   12.8330   10.6240 C   0  0  0  0  0  0  0  0  0  0  0  0
   23.0780   13.5140   11.5360 C   0  0  0  0  0  0  0  0  0  0  0  0
   23.0950   13.1260   12.8780 N   0  0  0  0  0  0  0  0  0  0  0  0
   23.8620   13.7360   13.8370 C   0  0  0  0  0  0  0  0  0  0  0  0
   23.8380   13.3400   15.0000 O   0  0  0  0  0  0  0  0  0  0  0  0
   24.7190   14.8830   13.4100 C   0  0  0  0  0  0  0  0  0  0  0  0
   25.6020   15.6450   14.3450 C   0  0  0  0  0  0  0  0  0  0  0  0
   26.2700   15.0810   15.2090 O   0  0  0  0  0  0  0  0  0  0  0  0
   25.6300   17.0030   14.1770 N   0  0  0  0  0  0  0  0  0  0  0  0
   26.4820   17.8680   14.9760 C   0  0  2  0  0  0  0  0  0  0  0  0
   26.1660   17.7440   16.4640 C   0  0  0  0  0  0  0  0  0  0  0  0
   27.0770   18.6680   17.2570 C   0  0  0  0  0  0  0  0  0  0  0  0
   26.9620   20.0960   16.7770 C   0  0  0  0  0  0  0  0  0  0  0  0
   27.0940   21.0550   17.5320 O   0  0  0  0  0  0  0  0  0  0  0  0
   26.7350   20.2770   15.4370 N   0  0  0  0  0  0  0  0  0  0  0  0
   26.3030   19.3270   14.5420 C   0  0  0  0  0  0  0  0  0  0  0  0
   25.8320   19.6580   13.4550 O   0  0  0  0  0  0  0  0  0  0  0  0
   24.7160   15.2650   12.1190 C   0  0  0  0  0  0  0  0  0  0  0  0
   23.8830   14.5860   11.1260 C   0  0  0  0  0  0  0  0  0  0  0  0
   23.8740   14.9810    9.7860 C   0  0  0  0  0  0  0  0  0  0  0  0
   20.6230   15.0930    6.0560 C   0  0  0  0  0  0  0  0  0  0  0  0
   19.4640   15.6840    6.2590 N   0  0  0  0  0  0  0  0  0  0  0  0
   18.8815   19.2845    8.7111 H   0  0  0  0  0  0  0  0  0  0  0  0
   19.7359   18.9616    7.1643 H   0  0  0  0  0  0  0  0  0  0  0  0
   17.9682   19.2812    7.1643 H   0  0  0  0  0  0  0  0  0  0  0  0
   18.3877   17.1089    8.9496 H   0  0  0  0  0  0  0  0  0  0  0  0
   17.6270   17.0839    7.2995 H   0  0  0  0  0  0  0  0  0  0  0  0
   21.3783   16.8651    8.7208 H   0  0  0  0  0  0  0  0  0  0  0  0
   21.6330   12.6934    8.5545 H   0  0  0  0  0  0  0  0  0  0  0  0
   21.6453   11.9916   10.9584 H   0  0  0  0  0  0  0  0  0  0  0  0
   22.4975   12.3370   13.1632 H   0  0  0  0  0  0  0  0  0  0  0  0
   25.0258   17.4271   13.4587 H   0  0  0  0  0  0  0  0  0  0  0  0
   27.5232   17.5527   14.8135 H   0  0  0  0  0  0  0  0  0  0  0  0
   25.1170   18.0243   16.6402 H   0  0  0  0  0  0  0  0  0  0  0  0
   26.3284   16.7051   16.7869 H   0  0  0  0  0  0  0  0  0  0  0  0
   26.7958   18.6233   18.3195 H   0  0  0  0  0  0  0  0  0  0  0  0
   28.1163   18.3366   17.1155 H   0  0  0  0  0  0  0  0  0  0  0  0
   26.9056   21.2213   15.0626 H   0  0  0  0  0  0  0  0  0  0  0  0
   25.3529   16.1048   11.8042 H   0  0  0  0  0  0  0  0  0  0  0  0
   24.5064   15.8157    9.4491 H   0  0  0  0  0  0  0  0  0  0  0  0
   20.8250   14.3673    5.2544 H   0  0  0  0  0  0  0  0  0  0  0  0
  1  2  1  0
  2  3  1  0
  3  4  2  0
  4  5  1  0
  5  6  1  0
  6  7  2  0
  6  8  2  0
  6  9  1  0
  9 10  2  0
 10 11  1  0
 11 12  2  0
 12 13  1  0
 13 14  1  0
 14 15  2  0
 14 16  1  0
 16 17  1  0
 17 18  2  0
 17 19  1  0
 19 20  1  0
 20 21  1  0
 21 22  1  0
 22 23  1  0
 23 24  2  0
 23 25  1  0
 25 26  1  0
 26 27  2  0
 16 28  2  0
 28 29  1  0
 29 30  2  0
  5 31  1  0
 31 32  2  0
 32  3  1  0
 30  9  1  0
 29 12  1  0
 26 20  1  0
  1 33  1  0
  1 34  1  0
  1 35  1  0
  2 36  1  0
  2 37  1  0
  4 38  1  0
 10 39  1  0
 11 40  1  0
 13 41  1  0
 19 42  1  0
 20 43  1  1
 21 44  1  0
 21 45  1  0
 22 46  1  0
 22 47  1  0
 25 48  1  0
 28 49  1  0
 30 50  1  0
 31 51  1  0
M  END
>  <meeko>  (990) 
{"is_sidechain": [true], "free_energy": -10.34, "intermolecular_energy": 0.0, "internal_energy": -10.34, "cluster_size": 14, "cluster_id": 1, "rank_in_cluster": 1}

>  <_RMSD_MCS_to_ref>  (990) 
0.8738272776190443

$$$$
ligand
     RDKit          3D

 52 56  0  0  0  0  0  0  0  0999 V2000
   18.9090   19.1540    7.5370 C   0  0  0  0  0  0  0  0  0  0  0  0
   18.7730   17.6460    7.6780 C   0  0  0  0  0  0  0  0  0  0  0  0
   20.0870   16.9520    7.5930 C   0  0  0  0  0  0  0  0  0  0  0  0
   20.6480   16.0450    8.4700 C   0  0  0  0  0  0  0  0  0  0  0  0
   21.8530   15.7380    7.9050 N   0  0  0  0  0  0  0  0  0  0  0  0
   22.9820   14.6720    8.5350 S   0  0  0  0  0  6  0  0  0  0  0  0
   22.2100   13.8220    9.4220 O   0  0  0  0  0  0  0  0  0  0  0  0
   23.7320   14.1270    7.4210 O   0  0  0  0  0  0  0  0  0  0  0  0
   24.0920   15.6510    9.5250 C   0  0  0  0  0  0  0  0  0  0  0  0
   23.6270   16.0250   10.7990 C   0  0  0  0  0  0  0  0  0  0  0  0
   24.4670   16.7800   11.5920 C   0  0  0  0  0  0  0  0  0  0  0  0
   25.7350   17.1710   11.1820 C   0  0  0  0  0  0  0  0  0  0  0  0
   26.2060   16.8050    9.9330 C   0  0  0  0  0  0  0  0  0  0  0  0
   25.3850   16.0320    9.0790 C   0  0  0  0  0  0  0  0  0  0  0  0
   25.9470   15.6640    7.7810 C   0  0  0  0  0  0  0  0  0  0  0  0
   26.7770   14.6170    7.4250 C   0  0  0  0  0  0  0  0  0  0  0  0
   27.1240   14.5530    6.0890 N   0  0  0  0  0  0  0  0  0  0  0  0
   26.5730   15.5580    5.4470 C   0  0  0  0  0  0  0  0  0  0  0  0
   25.6460   16.6430    6.3980 S   0  0  0  0  0  0  0  0  0  0  0  0
   26.3840   17.9920   12.2460 C   0  0  0  0  0  0  0  0  0  0  0  0
   25.4130   17.9370   13.3290 N   0  0  0  0  0  0  0  0  0  0  0  0
   25.5280   18.8090   14.4940 C   0  0  2  0  0  0  0  0  0  0  0  0
   26.3510   20.0720   14.2440 C   0  0  0  0  0  0  0  0  0  0  0  0
   26.3510   20.9290   15.5000 C   0  0  0  0  0  0  0  0  0  0  0  0
   26.8740   20.1580   16.6900 C   0  0  0  0  0  0  0  0  0  0  0  0
   27.3550   20.7180   17.6720 O   0  0  0  0  0  0  0  0  0  0  0  0
   26.7120   18.7960   16.6630 N   0  0  0  0  0  0  0  0  0  0  0  0
   26.0780   18.0390   15.7050 C   0  0  0  0  0  0  0  0  0  0  0  0
   25.8890   16.8360   15.8850 O   0  0  0  0  0  0  0  0  0  0  0  0
   24.2360   17.3150   12.9380 C   0  0  0  0  0  0  0  0  0  0  0  0
   23.1870   17.2240   13.5410 O   0  0  0  0  0  0  0  0  0  0  0  0
   21.9790   16.4040    6.7290 C   0  0  0  0  0  0  0  0  0  0  0  0
   20.9300   17.1730    6.5220 N   0  0  0  0  0  0  0  0  0  0  0  0
   18.9504   19.6134    8.5356 H   0  0  0  0  0  0  0  0  0  0  0  0
   19.8320   19.3891    6.9867 H   0  0  0  0  0  0  0  0  0  0  0  0
   18.0430   19.5504    6.9867 H   0  0  0  0  0  0  0  0  0  0  0  0
   18.3162   17.4213    8.6531 H   0  0  0  0  0  0  0  0  0  0  0  0
   18.1464   17.2848    6.8493 H   0  0  0  0  0  0  0  0  0  0  0  0
   20.2224   15.6586    9.4079 H   0  0  0  0  0  0  0  0  0  0  0  0
   22.6286   15.7260   11.1508 H   0  0  0  0  0  0  0  0  0  0  0  0
   27.2106   17.1127    9.6072 H   0  0  0  0  0  0  0  0  0  0  0  0
   27.1382   13.8815    8.1589 H   0  0  0  0  0  0  0  0  0  0  0  0
   26.6989   15.6955    4.3629 H   0  0  0  0  0  0  0  0  0  0  0  0
   27.3458   17.5552   12.5529 H   0  0  0  0  0  0  0  0  0  0  0  0
   26.6208   19.0166   11.9234 H   0  0  0  0  0  0  0  0  0  0  0  0
   24.5048   19.1492   14.7114 H   0  0  0  0  0  0  0  0  0  0  0  0
   27.3842   19.7929   13.9897 H   0  0  0  0  0  0  0  0  0  0  0  0
   25.9109   20.6395   13.4108 H   0  0  0  0  0  0  0  0  0  0  0  0
   26.9902   21.8086   15.3337 H   0  0  0  0  0  0  0  0  0  0  0  0
   25.3159   21.2350   15.7119 H   0  0  0  0  0  0  0  0  0  0  0  0
   27.1140   18.2769   17.4566 H   0  0  0  0  0  0  0  0  0  0  0  0
   22.8361   16.3142    6.0454 H   0  0  0  0  0  0  0  0  0  0  0  0
  1  2  1  0
  2  3  1  0
  3  4  2  0
  4  5  1  0
  5  6  1  0
  6  7  2  0
  6  8  2  0
  6  9  1  0
  9 10  2  0
 10 11  1  0
 11 12  2  0
 12 13  1  0
 13 14  2  0
 14 15  1  0
 15 16  2  0
 16 17  1  0
 17 18  2  0
 18 19  1  0
 12 20  1  0
 20 21  1  0
 21 22  1  0
 22 23  1  0
 23 24  1  0
 24 25  1  0
 25 26  2  0
 25 27  1  0
 27 28  1  0
 28 29  2  0
 21 30  1  0
 30 31  2  0
  5 32  1  0
 32 33  2  0
 33  3  1  0
 14  9  1  0
 19 15  1  0
 28 22  1  0
 30 11  1  0
  1 34  1  0
  1 35  1  0
  1 36  1  0
  2 37  1  0
  2 38  1  0
  4 39  1  0
 10 40  1  0
 13 41  1  0
 16 42  1  0
 18 43  1  0
 20 44  1  0
 20 45  1  0
 22 46  1  1
 23 47  1  0
 23 48  1  0
 24 49  1  0
 24 50  1  0
 27 51  1  0
 32 52  1  0
M  END
>  <meeko>  (991) 
{"is_sidechain": [true], "free_energy": -10.34, "intermolecular_energy": 0.0, "internal_energy": -10.34, "cluster_size": 15, "cluster_id": 2, "rank_in_cluster": 1}

>  <_RMSD_MCS_to_ref>  (991) 
1.7569526807009406

$$$$
ligand
     RDKit          3D

 48 51  0  0  0  0  0  0  0  0999 V2000
   18.9090   19.1540    7.5370 C   0  0  0  0  0  0  0  0  0  0  0  0
   18.7730   17.6460    7.6780 C   0  0  0  0  0  0  0  0  0  0  0  0
   20.0930   16.9590    7.6540 C   0  0  0  0  0  0  0  0  0  0  0  0
   21.0230   16.8290    8.6660 C   0  0  0  0  0  0  0  0  0  0  0  0
   22.0420   16.1220    8.0960 N   0  0  0  0  0  0  0  0  0  0  0  0
   23.3560   15.4550    8.9050 S   0  0  0  0  0  6  0  0  0  0  0  0
   23.5350   14.1360    8.3300 O   0  0  0  0  0  0  0  0  0  0  0  0
   24.4010   16.4580    8.8820 O   0  0  0  0  0  0  0  0  0  0  0  0
   22.7750   15.2680   10.5670 C   0  0  0  0  0  0  0  0  0  0  0  0
   23.4570   15.9330   11.6060 C   0  0  0  0  0  0  0  0  0  0  0  0
   23.0390   15.7930   12.9350 C   0  0  0  0  0  0  0  0  0  0  0  0
   23.7500   16.4700   14.0570 C   0  0  0  0  0  0  0  0  0  0  0  0
   23.9800   15.8630   15.0960 O   0  0  0  0  0  0  0  0  0  0  0  0
   24.0920   17.7890   13.8650 N   0  0  0  0  0  0  0  0  0  0  0  0
   24.6540   18.5810   14.9530 C   0  0  1  0  0  0  0  0  0  0  0  0
   25.7730   17.8450   15.6840 C   0  0  0  0  0  0  0  0  0  0  0  0
   26.3400   18.7390   16.7750 C   0  0  0  0  0  0  0  0  0  0  0  0
   26.8100   20.0610   16.2130 C   0  0  0  0  0  0  0  0  0  0  0  0
   27.7700   20.6700   16.6750 O   0  0  0  0  0  0  0  0  0  0  0  0
   26.0850   20.5770   15.1680 N   0  0  0  0  0  0  0  0  0  0  0  0
   25.2100   19.8830   14.3700 C   0  0  0  0  0  0  0  0  0  0  0  0
   24.8860   20.3030   13.2590 O   0  0  0  0  0  0  0  0  0  0  0  0
   21.9460   14.9720   13.2590 C   0  0  0  0  0  0  0  0  0  0  0  0
   21.2750   14.3400   12.2070 C   0  0  0  0  0  0  0  0  0  0  0  0
   20.1870   13.5070   12.1990 N   0  0  0  0  0  0  0  0  0  0  0  0
   19.8220   13.1030   10.9710 N   0  0  0  0  0  0  0  0  0  0  0  0
   20.7000   13.7040   10.1660 C   0  0  0  0  0  0  0  0  0  0  0  0
   21.6520   14.4760   10.8730 C   0  0  0  0  0  0  0  0  0  0  0  0
   21.7110   15.8180    6.8150 C   0  0  0  0  0  0  0  0  0  0  0  0
   20.5320   16.3190    6.5110 N   0  0  0  0  0  0  0  0  0  0  0  0
   18.9504   19.6134    8.5356 H   0  0  0  0  0  0  0  0  0  0  0  0
   19.8320   19.3891    6.9867 H   0  0  0  0  0  0  0  0  0  0  0  0
   18.0430   19.5504    6.9867 H   0  0  0  0  0  0  0  0  0  0  0  0
   18.2745   17.4228    8.6328 H   0  0  0  0  0  0  0  0  0  0  0  0
   18.1847   17.2782    6.8244 H   0  0  0  0  0  0  0  0  0  0  0  0
   20.9577   17.2085    9.6964 H   0  0  0  0  0  0  0  0  0  0  0  0
   24.3246   16.5670   11.3709 H   0  0  0  0  0  0  0  0  0  0  0  0
   23.9493   18.2222   12.9415 H   0  0  0  0  0  0  0  0  0  0  0  0
   23.8539   18.7779   15.6817 H   0  0  0  0  0  0  0  0  0  0  0  0
   25.3730   16.9249   16.1350 H   0  0  0  0  0  0  0  0  0  0  0  0
   26.5695   17.5876   14.9704 H   0  0  0  0  0  0  0  0  0  0  0  0
   25.5589   18.9265   17.5265 H   0  0  0  0  0  0  0  0  0  0  0  0
   27.2023   18.2285   17.2288 H   0  0  0  0  0  0  0  0  0  0  0  0
   26.2092   21.5788   14.9635 H   0  0  0  0  0  0  0  0  0  0  0  0
   21.6292   14.8312   14.3029 H   0  0  0  0  0  0  0  0  0  0  0  0
   19.6943   13.2173   13.0559 H   0  0  0  0  0  0  0  0  0  0  0  0
   20.6854   13.6095    9.0702 H   0  0  0  0  0  0  0  0  0  0  0  0
   22.3402   15.2344    6.1269 H   0  0  0  0  0  0  0  0  0  0  0  0
  1  2  1  0
  2  3  1  0
  3  4  2  0
  4  5  1  0
  5  6  1  0
  6  7  2  0
  6  8  2  0
  6  9  1  0
  9 10  2  0
 10 11  1  0
 11 12  1  0
 12 13  2  0
 12 14  1  0
 14 15  1  0
 15 16  1  0
 16 17  1  0
 17 18  1  0
 18 19  2  0
 18 20  1  0
 20 21  1  0
 21 22  2  0
 11 23  2  0
 23 24  1  0
 24 25  1  0
 25 26  1  0
 26 27  2  0
 27 28  1  0
  5 29  1  0
 29 30  2  0
 30  3  1  0
 28  9  1  0
 21 15  1  0
 28 24  2  0
  1 31  1  0
  1 32  1  0
  1 33  1  0
  2 34  1  0
  2 35  1  0
  4 36  1  0
 10 37  1  0
 14 38  1  0
 15 39  1  1
 16 40  1  0
 16 41  1  0
 17 42  1  0
 17 43  1  0
 20 44  1  0
 23 45  1  0
 25 46  1  0
 27 47  1  0
 29 48  1  0
M  END
>  <meeko>  (992) 
{"is_sidechain": [true], "free_energy": -10.34, "intermolecular_energy": 0.0, "internal_energy": -10.34, "cluster_size": 20, "cluster_id": 1, "rank_in_cluster": 1}

>  <_RMSD_MCS_to_ref>  (992) 
0.3939287865704778

$$$$
ligand
     RDKit          3D

 47 50  0  0  0  0  0  0  0  0999 V2000
   18.9090   19.1540    7.5370 C   0  0  0  0  0  0  0  0  0  0  0  0
   18.7730   17.6460    7.6780 C   0  0  0  0  0  0  0  0  0  0  0  0
   19.8770   16.9160    6.9970 C   0  0  0  0  0  0  0  0  0  0  0  0
   21.0160   16.3580    7.5410 C   0  0  0  0  0  0  0  0  0  0  0  0
   21.6830   15.8440    6.4670 N   0  0  0  0  0  0  0  0  0  0  0  0
   23.0360   14.8480    6.5320 S   0  0  0  0  0  6  0  0  0  0  0  0
   22.5940   13.5510    6.0590 O   0  0  0  0  0  0  0  0  0  0  0  0
   24.1080   15.5860    5.8930 O   0  0  0  0  0  0  0  0  0  0  0  0
   23.3870   14.7330    8.2680 C   0  0  0  0  0  0  0  0  0  0  0  0
   23.3170   13.4840    8.9060 C   0  0  0  0  0  0  0  0  0  0  0  0
   23.5940   13.3610   10.2740 C   0  0  0  0  0  0  0  0  0  0  0  0
   23.9420   14.5360   10.9290 C   0  0  0  0  0  0  0  0  0  0  0  0
   24.2550   14.6840   12.2470 O   0  0  0  0  0  0  0  0  0  0  0  0
   24.5210   16.0240   12.3730 C   0  0  0  0  0  0  0  0  0  0  0  0
   24.8980   16.5680   13.6700 C   0  0  0  0  0  0  0  0  0  0  0  0
   25.0270   15.9050   14.6980 O   0  0  0  0  0  0  0  0  0  0  0  0
   25.0940   17.9360   13.6650 N   0  0  0  0  0  0  0  0  0  0  0  0
   25.3180   18.6940   14.8820 C   0  0  1  0  0  0  0  0  0  0  0  0
   26.3370   18.0220   15.7960 C   0  0  0  0  0  0  0  0  0  0  0  0
   26.5480   18.8760   17.0370 C   0  0  0  0  0  0  0  0  0  0  0  0
   26.9620   20.2820   16.6720 C   0  0  0  0  0  0  0  0  0  0  0  0
   27.7230   20.9470   17.3690 O   0  0  0  0  0  0  0  0  0  0  0  0
   26.4160   20.8060   15.5270 N   0  0  0  0  0  0  0  0  0  0  0  0
   25.8230   20.0930   14.5130 C   0  0  0  0  0  0  0  0  0  0  0  0
   25.6990   20.5730   13.3880 O   0  0  0  0  0  0  0  0  0  0  0  0
   24.4010   16.7230   11.2520 N   0  0  0  0  0  0  0  0  0  0  0  0
   24.0310   15.7810   10.3260 C   0  0  0  0  0  0  0  0  0  0  0  0
   23.7560   15.9020    8.9590 C   0  0  0  0  0  0  0  0  0  0  0  0
   20.9460   16.0460    5.3460 C   0  0  0  0  0  0  0  0  0  0  0  0
   19.8420   16.7040    5.6320 N   0  0  0  0  0  0  0  0  0  0  0  0
   18.9504   19.6134    8.5356 H   0  0  0  0  0  0  0  0  0  0  0  0
   19.8320   19.3891    6.9867 H   0  0  0  0  0  0  0  0  0  0  0  0
   18.0430   19.5504    6.9867 H   0  0  0  0  0  0  0  0  0  0  0  0
   18.7841   17.3877    8.7472 H   0  0  0  0  0  0  0  0  0  0  0  0
   17.8268   17.3464    7.2036 H   0  0  0  0  0  0  0  0  0  0  0  0
   21.3174   16.3332    8.5986 H   0  0  0  0  0  0  0  0  0  0  0  0
   23.0414   12.5916    8.3249 H   0  0  0  0  0  0  0  0  0  0  0  0
   23.5394   12.3947   10.7967 H   0  0  0  0  0  0  0  0  0  0  0  0
   25.0806   18.4359   12.7645 H   0  0  0  0  0  0  0  0  0  0  0  0
   24.3633   18.7507   15.4254 H   0  0  0  0  0  0  0  0  0  0  0  0
   25.9652   17.0302   16.0926 H   0  0  0  0  0  0  0  0  0  0  0  0
   27.2918   17.9115   15.2610 H   0  0  0  0  0  0  0  0  0  0  0  0
   25.6089   18.9160   17.6084 H   0  0  0  0  0  0  0  0  0  0  0  0
   27.3502   18.4229   17.6379 H   0  0  0  0  0  0  0  0  0  0  0  0
   26.4543   21.8294   15.4175 H   0  0  0  0  0  0  0  0  0  0  0  0
   23.8255   16.8722    8.4453 H   0  0  0  0  0  0  0  0  0  0  0  0
   21.2309   15.7074    4.3389 H   0  0  0  0  0  0  0  0  0  0  0  0
  1  2  1  0
  2  3  1  0
  3  4  2  0
  4  5  1  0
  5  6  1  0
  6  7  2  0
  6  8  2  0
  6  9  1  0
  9 10  2  0
 10 11  1  0
 11 12  2  0
 12 13  1  0
 13 14  1  0
 14 15  1  0
 15 16  2  0
 15 17  1  0
 17 18  1  0
 18 19  1  0
 19 20  1  0
 20 21  1  0
 21 22  2  0
 21 23  1  0
 23 24  1  0
 24 25  2  0
 14 26  2  0
 26 27  1  0
 27 28  2  0
  5 29  1  0
 29 30  2  0
 30  3  1  0
 28  9  1  0
 27 12  1  0
 24 18  1  0
  1 31  1  0
  1 32  1  0
  1 33  1  0
  2 34  1  0
  2 35  1  0
  4 36  1  0
 10 37  1  0
 11 38  1  0
 17 39  1  0
 18 40  1  1
 19 41  1  0
 19 42  1  0
 20 43  1  0
 20 44  1  0
 23 45  1  0
 28 46  1  0
 29 47  1  0
M  END
>  <meeko>  (993) 
{"is_sidechain": [true], "free_energy": -10.34, "intermolecular_energy": 0.0, "internal_energy": -10.34, "cluster_size": 19, "cluster_id": 1, "rank_in_cluster": 1}

>  <_RMSD_MCS_to_ref>  (993) 
0.6665997466412829

$$$$
ligand
     RDKit          3D

 47 50  0  0  0  0  0  0  0  0999 V2000
   18.9090   19.1540    7.5370 C   0  0  0  0  0  0  0  0  0  0  0  0
   18.7730   17.6460    7.6780 C   0  0  0  0  0  0  0  0  0  0  0  0
   19.9020   16.9180    7.0390 C   0  0  0  0  0  0  0  0  0  0  0  0
   21.0480   16.4110    7.6190 C   0  0  0  0  0  0  0  0  0  0  0  0
   21.7390   15.8640    6.5760 N   0  0  0  0  0  0  0  0  0  0  0  0
   23.1480   14.9680    6.6830 S   0  0  0  0  0  6  0  0  0  0  0  0
   24.1630   15.7030    5.9520 O   0  0  0  0  0  0  0  0  0  0  0  0
   22.7920   13.5950    6.3800 O   0  0  0  0  0  0  0  0  0  0  0  0
   23.7000   14.9410    8.3290 C   0  0  0  0  0  0  0  0  0  0  0  0
   23.7610   16.0850    9.1480 C   0  0  0  0  0  0  0  0  0  0  0  0
   24.2550   15.6360   10.3490 C   0  0  0  0  0  0  0  0  0  0  0  0
   24.5290   16.2910   11.5190 N   0  0  0  0  0  0  0  0  0  0  0  0
   25.0000   15.5560   12.4920 C   0  0  0  0  0  0  0  0  0  0  0  0
   25.3220   16.2440   13.8240 C   0  0  0  0  0  0  0  0  0  0  0  0
   25.5730   15.5880   14.8220 O   0  0  0  0  0  0  0  0  0  0  0  0
   25.2850   17.6150   13.7630 N   0  0  0  0  0  0  0  0  0  0  0  0
   25.3860   18.4480   14.9470 C   0  0  1  0  0  0  0  0  0  0  0  0
   26.3740   17.8800   15.9620 C   0  0  0  0  0  0  0  0  0  0  0  0
   26.4550   18.8060   17.1660 C   0  0  0  0  0  0  0  0  0  0  0  0
   26.8200   20.2130   16.7540 C   0  0  0  0  0  0  0  0  0  0  0  0
   27.4900   20.9540   17.4660 O   0  0  0  0  0  0  0  0  0  0  0  0
   26.3350   20.6440   15.5450 N   0  0  0  0  0  0  0  0  0  0  0  0
   25.8400   19.8530   14.5370 C   0  0  0  0  0  0  0  0  0  0  0  0
   25.7520   20.2760   13.3850 O   0  0  0  0  0  0  0  0  0  0  0  0
   25.2590   14.0830   12.4230 C   0  0  0  0  0  0  0  0  0  0  0  0
   24.9690   13.5050   11.2490 C   0  0  0  0  0  0  0  0  0  0  0  0
   24.4650   14.2610   10.1970 N   0  0  0  0  0  0  0  0  0  0  0  0
   24.1240   13.8330    8.9570 N   0  0  0  0  0  0  0  0  0  0  0  0
   21.0020   15.9890    5.4410 C   0  0  0  0  0  0  0  0  0  0  0  0
   19.8890   16.6490    5.6840 N   0  0  0  0  0  0  0  0  0  0  0  0
   18.9504   19.6134    8.5356 H   0  0  0  0  0  0  0  0  0  0  0  0
   19.8320   19.3891    6.9867 H   0  0  0  0  0  0  0  0  0  0  0  0
   18.0430   19.5504    6.9867 H   0  0  0  0  0  0  0  0  0  0  0  0
   18.7473   17.3911    8.7477 H   0  0  0  0  0  0  0  0  0  0  0  0
   17.8451   17.3417    7.1716 H   0  0  0  0  0  0  0  0  0  0  0  0
   21.3382   16.4409    8.6796 H   0  0  0  0  0  0  0  0  0  0  0  0
   23.4754   17.1139    8.8838 H   0  0  0  0  0  0  0  0  0  0  0  0
   25.1819   18.0686   12.8440 H   0  0  0  0  0  0  0  0  0  0  0  0
   24.3942   18.4813   15.4217 H   0  0  0  0  0  0  0  0  0  0  0  0
   26.0344   16.8854   16.2869 H   0  0  0  0  0  0  0  0  0  0  0  0
   27.3677   17.7954   15.4978 H   0  0  0  0  0  0  0  0  0  0  0  0
   25.4781   18.8228   17.6713 H   0  0  0  0  0  0  0  0  0  0  0  0
   27.2367   18.4287   17.8417 H   0  0  0  0  0  0  0  0  0  0  0  0
   26.3429   21.6601   15.3768 H   0  0  0  0  0  0  0  0  0  0  0  0
   25.6592   13.5151   13.2758 H   0  0  0  0  0  0  0  0  0  0  0  0
   25.1309   12.4250   11.1171 H   0  0  0  0  0  0  0  0  0  0  0  0
   21.2945   15.5940    4.4569 H   0  0  0  0  0  0  0  0  0  0  0  0
  1  2  1  0
  2  3  1  0
  3  4  2  0
  4  5  1  0
  5  6  1  0
  6  7  2  0
  6  8  2  0
  6  9  1  0
  9 10  1  0
 10 11  2  0
 11 12  1  0
 12 13  2  0
 13 14  1  0
 14 15  2  0
 14 16  1  0
 16 17  1  0
 17 18  1  0
 18 19  1  0
 19 20  1  0
 20 21  2  0
 20 22  1  0
 22 23  1  0
 23 24  2  0
 13 25  1  0
 25 26  2  0
 26 27  1  0
 27 28  1  0
  5 29  1  0
 29 30  2  0
 30  3  1  0
 28  9  2  0
 27 11  1  0
 23 17  1  0
  1 31  1  0
  1 32  1  0
  1 33  1  0
  2 34  1  0
  2 35  1  0
  4 36  1  0
 10 37  1  0
 16 38  1  0
 17 39  1  1
 18 40  1  0
 18 41  1  0
 19 42  1  0
 19 43  1  0
 22 44  1  0
 25 45  1  0
 26 46  1  0
 29 47  1  0
M  END
>  <meeko>  (994) 
{"is_sidechain": [true], "free_energy": -10.34, "intermolecular_energy": 0.0, "internal_energy": -10.34, "cluster_size": 5, "cluster_id": 1, "rank_in_cluster": 1}

>  <_RMSD_MCS_to_ref>  (994) 
0.6370400301393935

$$$$
ligand
     RDKit          3D

 46 49  0  0  0  0  0  0  0  0999 V2000
   18.9090   19.1540    7.5370 C   0  0  0  0  0  0  0  0  0  0  0  0
   18.7730   17.6460    7.6780 C   0  0  0  0  0  0  0  0  0  0  0  0
   20.0930   16.9600    7.6640 C   0  0  0  0  0  0  0  0  0  0  0  0
   20.9020   16.6180    8.7290 C   0  0  0  0  0  0  0  0  0  0  0  0
   21.9900   16.0350    8.1510 N   0  0  0  0  0  0  0  0  0  0  0  0
   23.4350   15.6400    8.9060 S   0  0  0  0  0  6  0  0  0  0  0  0
   23.8450   14.3570    8.3640 O   0  0  0  0  0  0  0  0  0  0  0  0
   24.2580   16.8280    8.7600 O   0  0  0  0  0  0  0  0  0  0  0  0
   23.1120   15.4220   10.6310 C   0  0  0  0  0  0  0  0  0  0  0  0
   23.9670   15.8760   11.5220 N   0  0  0  0  0  0  0  0  0  0  0  0
   23.6710   15.6790   12.8740 C   0  0  0  0  0  0  0  0  0  0  0  0
   24.6360   16.1840   13.9190 C   0  0  0  0  0  0  0  0  0  0  0  0
   25.1550   15.4490   14.7520 O   0  0  0  0  0  0  0  0  0  0  0  0
   24.8740   17.5290   13.8260 N   0  0  0  0  0  0  0  0  0  0  0  0
   25.8740   18.2000   14.6380 C   0  0  2  0  0  0  0  0  0  0  0  0
   25.6760   17.9240   16.1260 C   0  0  0  0  0  0  0  0  0  0  0  0
   26.7340   18.6680   16.9260 C   0  0  0  0  0  0  0  0  0  0  0  0
   26.7120   20.1470   16.6220 C   0  0  0  0  0  0  0  0  0  0  0  0
   26.9910   20.9950   17.4640 O   0  0  0  0  0  0  0  0  0  0  0  0
   26.3980   20.5070   15.3360 N   0  0  0  0  0  0  0  0  0  0  0  0
   25.7960   19.7100   14.3920 C   0  0  0  0  0  0  0  0  0  0  0  0
   25.2520   20.2010   13.4040 O   0  0  0  0  0  0  0  0  0  0  0  0
   22.5590   15.0580   13.3130 C   0  0  0  0  0  0  0  0  0  0  0  0
   21.6690   14.5910   12.3730 N   0  0  0  0  0  0  0  0  0  0  0  0
   20.4730   13.9440   12.4420 C   0  0  0  0  0  0  0  0  0  0  0  0
   20.0180   13.7350   11.2240 N   0  0  0  0  0  0  0  0  0  0  0  0
   20.9350   14.2500   10.3300 N   0  0  0  0  0  0  0  0  0  0  0  0
   21.9140   14.7550   11.0390 C   0  0  0  0  0  0  0  0  0  0  0  0
   21.8370   16.0450    6.8010 C   0  0  0  0  0  0  0  0  0  0  0  0
   20.6910   16.6010    6.4710 N   0  0  0  0  0  0  0  0  0  0  0  0
   18.9504   19.6134    8.5356 H   0  0  0  0  0  0  0  0  0  0  0  0
   19.8320   19.3891    6.9867 H   0  0  0  0  0  0  0  0  0  0  0  0
   18.0430   19.5504    6.9867 H   0  0  0  0  0  0  0  0  0  0  0  0
   18.2678   17.4231    8.6294 H   0  0  0  0  0  0  0  0  0  0  0  0
   18.1912   17.2773    6.8204 H   0  0  0  0  0  0  0  0  0  0  0  0
   20.7118   16.7793    9.8004 H   0  0  0  0  0  0  0  0  0  0  0  0
   24.3240   18.0852   13.1559 H   0  0  0  0  0  0  0  0  0  0  0  0
   26.8611   17.8106   14.3481 H   0  0  0  0  0  0  0  0  0  0  0  0
   24.6766   18.2666   16.4324 H   0  0  0  0  0  0  0  0  0  0  0  0
   25.7675   16.8439   16.3134 H   0  0  0  0  0  0  0  0  0  0  0  0
   26.5421   18.5198   17.9989 H   0  0  0  0  0  0  0  0  0  0  0  0
   27.7218   18.2711   16.6490 H   0  0  0  0  0  0  0  0  0  0  0  0
   26.6365   21.4674   15.0503 H   0  0  0  0  0  0  0  0  0  0  0  0
   22.3685   14.9284   14.3886 H   0  0  0  0  0  0  0  0  0  0  0  0
   19.9658   13.6428   13.3705 H   0  0  0  0  0  0  0  0  0  0  0  0
   22.5688   15.6443    6.0841 H   0  0  0  0  0  0  0  0  0  0  0  0
  1  2  1  0
  2  3  1  0
  3  4  2  0
  4  5  1  0
  5  6  1  0
  6  7  2  0
  6  8  2  0
  6  9  1  0
  9 10  2  0
 10 11  1  0
 11 12  1  0
 12 13  2  0
 12 14  1  0
 14 15  1  0
 15 16  1  0
 16 17  1  0
 17 18  1  0
 18 19  2  0
 18 20  1  0
 20 21  1  0
 21 22  2  0
 11 23  2  0
 23 24  1  0
 24 25  1  0
 25 26  2  0
 26 27  1  0
 27 28  2  0
  5 29  1  0
 29 30  2  0
 30  3  1  0
 28  9  1  0
 21 15  1  0
 28 24  1  0
  1 31  1  0
  1 32  1  0
  1 33  1  0
  2 34  1  0
  2 35  1  0
  4 36  1  0
 14 37  1  0
 15 38  1  6
 16 39  1  0
 16 40  1  0
 17 41  1  0
 17 42  1  0
 20 43  1  0
 23 44  1  0
 25 45  1  0
 29 46  1  0
M  END
>  <meeko>  (995) 
{"is_sidechain": [true], "free_energy": -10.34, "intermolecular_energy": 0.0, "internal_energy": -10.34, "cluster_size": 20, "cluster_id": 1, "rank_in_cluster": 1}

>  <_RMSD_MCS_to_ref>  (995) 
0.5916527697898487

$$$$
ligand
     RDKit          3D

 42 44  0  0  0  0  0  0  0  0999 V2000
   18.9090   19.1540    7.5370 C   0  0  0  0  0  0  0  0  0  0  0  0
   18.7730   17.6460    7.6780 C   0  0  0  0  0  0  0  0  0  0  0  0
   20.0890   16.9540    7.6190 C   0  0  0  0  0  0  0  0  0  0  0  0
   20.9060   16.5470    8.6560 C   0  0  0  0  0  0  0  0  0  0  0  0
   21.9860   15.9910    8.0330 N   0  0  0  0  0  0  0  0  0  0  0  0
   23.1960   15.1100    8.7830 S   0  0  0  0  0  6  0  0  0  0  0  0
   22.8710   13.7120    8.6070 O   0  0  0  0  0  0  0  0  0  0  0  0
   24.4550   15.6940    8.3650 O   0  0  0  0  0  0  0  0  0  0  0  0
   23.1290   15.3920   10.5100 C   0  0  0  0  0  0  0  0  0  0  0  0
   22.1300   15.3150   11.4570 C   0  0  0  0  0  0  0  0  0  0  0  0
   22.5970   15.6590   12.7010 N   0  0  0  0  0  0  0  0  0  0  0  0
   23.8800   15.9310   12.5340 C   0  0  0  0  0  0  0  0  0  0  0  0
   24.7850   16.3420   13.5880 C   0  0  0  0  0  0  0  0  0  0  0  0
   25.3370   15.5510   14.3460 O   0  0  0  0  0  0  0  0  0  0  0  0
   24.9760   17.7010   13.6540 N   0  0  0  0  0  0  0  0  0  0  0  0
   25.9460   18.3160   14.5400 C   0  0  2  0  0  0  0  0  0  0  0  0
   25.6790   17.9740   16.0020 C   0  0  0  0  0  0  0  0  0  0  0  0
   26.7120   18.6590   16.8820 C   0  0  0  0  0  0  0  0  0  0  0  0
   26.7290   20.1520   16.6490 C   0  0  0  0  0  0  0  0  0  0  0  0
   26.9860   20.9540   17.5420 O   0  0  0  0  0  0  0  0  0  0  0  0
   26.4760   20.5760   15.3700 N   0  0  0  0  0  0  0  0  0  0  0  0
   25.9020   19.8370   14.3640 C   0  0  0  0  0  0  0  0  0  0  0  0
   25.4090   20.3860   13.3790 O   0  0  0  0  0  0  0  0  0  0  0  0
   24.2400   15.7790   11.2210 N   0  0  0  0  0  0  0  0  0  0  0  0
   21.7870   16.0140    6.6900 C   0  0  0  0  0  0  0  0  0  0  0  0
   20.6470   16.6090    6.4030 N   0  0  0  0  0  0  0  0  0  0  0  0
   18.9504   19.6134    8.5356 H   0  0  0  0  0  0  0  0  0  0  0  0
   19.8320   19.3891    6.9867 H   0  0  0  0  0  0  0  0  0  0  0  0
   18.0430   19.5504    6.9867 H   0  0  0  0  0  0  0  0  0  0  0  0
   18.2983   17.4222    8.6447 H   0  0  0  0  0  0  0  0  0  0  0  0
   18.1628   17.2824    6.8381 H   0  0  0  0  0  0  0  0  0  0  0  0
   20.7272   16.6479    9.7367 H   0  0  0  0  0  0  0  0  0  0  0  0
   21.0930   15.0166   11.2433 H   0  0  0  0  0  0  0  0  0  0  0  0
   24.4062   18.3090   13.0486 H   0  0  0  0  0  0  0  0  0  0  0  0
   26.9389   17.9237   14.2749 H   0  0  0  0  0  0  0  0  0  0  0  0
   24.6728   18.3200   16.2812 H   0  0  0  0  0  0  0  0  0  0  0  0
   25.7451   16.8848   16.1407 H   0  0  0  0  0  0  0  0  0  0  0  0
   26.4698   18.4638   17.9371 H   0  0  0  0  0  0  0  0  0  0  0  0
   27.7043   18.2570   16.6295 H   0  0  0  0  0  0  0  0  0  0  0  0
   26.7426   21.5441   15.1407 H   0  0  0  0  0  0  0  0  0  0  0  0
   25.1822   15.9291   10.8328 H   0  0  0  0  0  0  0  0  0  0  0  0
   22.4803   15.5947    5.9460 H   0  0  0  0  0  0  0  0  0  0  0  0
  1  2  1  0
  2  3  1  0
  3  4  2  0
  4  5  1  0
  5  6  1  0
  6  7  2  0
  6  8  2  0
  6  9  1  0
  9 10  2  0
 10 11  1  0
 11 12  2  0
 12 13  1  0
 13 14  2  0
 13 15  1  0
 15 16  1  0
 16 17  1  0
 17 18  1  0
 18 19  1  0
 19 20  2  0
 19 21  1  0
 21 22  1  0
 22 23  2  0
 12 24  1  0
  5 25  1  0
 25 26  2  0
 26  3  1  0
 24  9  1  0
 22 16  1  0
  1 27  1  0
  1 28  1  0
  1 29  1  0
  2 30  1  0
  2 31  1  0
  4 32  1  0
 10 33  1  0
 15 34  1  0
 16 35  1  6
 17 36  1  0
 17 37  1  0
 18 38  1  0
 18 39  1  0
 21 40  1  0
 24 41  1  0
 25 42  1  0
M  END
>  <meeko>  (996) 
{"is_sidechain": [true], "free_energy": -10.34, "intermolecular_energy": 0.0, "internal_energy": -10.34, "cluster_size": 20, "cluster_id": 1, "rank_in_cluster": 1}

>  <_RMSD_MCS_to_ref>  (996) 
0.6481473597878806

$$$$
ligand
     RDKit          3D

 50 53  0  0  0  0  0  0  0  0999 V2000
   18.9090   19.1540    7.5370 C   0  0  0  0  0  0  0  0  0  0  0  0
   18.7730   17.6460    7.6780 C   0  0  0  0  0  0  0  0  0  0  0  0
   20.0780   16.9480    7.5150 C   0  0  0  0  0  0  0  0  0  0  0  0
   21.0680   16.7300    8.4530 C   0  0  0  0  0  0  0  0  0  0  0  0
   22.0280   16.0370    7.7700 N   0  0  0  0  0  0  0  0  0  0  0  0
   23.5580   15.6460    8.3410 S   0  0  0  0  0  6  0  0  0  0  0  0
   23.8810   14.3640    7.7440 O   0  0  0  0  0  0  0  0  0  0  0  0
   24.3710   16.8310    8.1410 O   0  0  0  0  0  0  0  0  0  0  0  0
   23.3580   15.4020   10.0850 C   0  0  0  0  0  0  0  0  0  0  0  0
   24.0040   16.2320   10.9780 C   0  0  0  0  0  0  0  0  0  0  0  0
   23.8310   15.9950   12.3520 C   0  0  0  0  0  0  0  0  0  0  0  0
   24.5580   16.9580   13.2200 C   0  0  0  0  0  0  0  0  0  0  0  0
   25.7400   17.1870   12.9810 O   0  0  0  0  0  0  0  0  0  0  0  0
   23.9060   17.4810   14.3010 N   0  0  0  0  0  0  0  0  0  0  0  0
   24.5410   18.4370   15.1960 C   0  0  1  0  0  0  0  0  0  0  0  0
   25.7080   17.8160   15.9590 C   0  0  0  0  0  0  0  0  0  0  0  0
   26.3380   18.8620   16.8630 C   0  0  0  0  0  0  0  0  0  0  0  0
   26.7640   20.0800   16.0780 C   0  0  0  0  0  0  0  0  0  0  0  0
   27.7550   20.7410   16.3730 O   0  0  0  0  0  0  0  0  0  0  0  0
   25.9670   20.4390   15.0200 N   0  0  0  0  0  0  0  0  0  0  0  0
   25.0580   19.6300   14.3820 C   0  0  0  0  0  0  0  0  0  0  0  0
   24.6910   19.8810   13.2350 O   0  0  0  0  0  0  0  0  0  0  0  0
   23.0000   14.9420   12.7630 C   0  0  0  0  0  0  0  0  0  0  0  0
   22.6770   14.5740   14.1600 C   0  0  0  0  0  0  0  0  0  0  0  0
   23.2060   15.1080   15.1250 O   0  0  0  0  0  0  0  0  0  0  0  0
   21.7660   13.5630   14.3430 N   0  0  0  0  0  0  0  0  0  0  0  0
   21.2140   12.7940   13.3630 C   0  0  0  0  0  0  0  0  0  0  0  0
   20.4710   11.8540   13.6190 O   0  0  0  0  0  0  0  0  0  0  0  0
   21.5430   13.1300   12.0930 N   0  0  0  0  0  0  0  0  0  0  0  0
   22.3920   14.1770   11.7670 C   0  0  0  0  0  0  0  0  0  0  0  0
   22.5590   14.3740   10.4440 N   0  0  0  0  0  0  0  0  0  0  0  0
   21.6350   15.8870    6.4790 C   0  0  0  0  0  0  0  0  0  0  0  0
   20.4460   16.4240    6.2930 N   0  0  0  0  0  0  0  0  0  0  0  0
   18.9504   19.6134    8.5356 H   0  0  0  0  0  0  0  0  0  0  0  0
   19.8320   19.3891    6.9867 H   0  0  0  0  0  0  0  0  0  0  0  0
   18.0430   19.5504    6.9867 H   0  0  0  0  0  0  0  0  0  0  0  0
   18.3711   17.4180    8.6762 H   0  0  0  0  0  0  0  0  0  0  0  0
   18.0979   17.2913    6.8852 H   0  0  0  0  0  0  0  0  0  0  0  0
   21.0810   17.0424    9.5076 H   0  0  0  0  0  0  0  0  0  0  0  0
   24.6381   17.0579   10.6234 H   0  0  0  0  0  0  0  0  0  0  0  0
   22.9359   17.1899   14.4881 H   0  0  0  0  0  0  0  0  0  0  0  0
   23.7867   18.7613   15.9281 H   0  0  0  0  0  0  0  0  0  0  0  0
   25.3419   16.9771   16.5691 H   0  0  0  0  0  0  0  0  0  0  0  0
   26.4594   17.4499   15.2439 H   0  0  0  0  0  0  0  0  0  0  0  0
   25.6052   19.1651   17.6253 H   0  0  0  0  0  0  0  0  0  0  0  0
   27.2298   18.4227   17.3338 H   0  0  0  0  0  0  0  0  0  0  0  0
   26.0588   21.4041   14.6721 H   0  0  0  0  0  0  0  0  0  0  0  0
   21.4727   13.3679   15.3109 H   0  0  0  0  0  0  0  0  0  0  0  0
   21.1392   12.5757   11.3245 H   0  0  0  0  0  0  0  0  0  0  0  0
   22.2264   15.3872    5.6977 H   0  0  0  0  0  0  0  0  0  0  0  0
  1  2  1  0
  2  3  1  0
  3  4  2  0
  4  5  1  0
  5  6  1  0
  6  7  2  0
  6  8  2  0
  6  9  1  0
  9 10  2  0
 10 11  1  0
 11 12  1  0
 12 13  2  0
 12 14  1  0
 14 15  1  0
 15 16  1  0
 16 17  1  0
 17 18  1  0
 18 19  2  0
 18 20  1  0
 20 21  1  0
 21 22  2  0
 11 23  2  0
 23 24  1  0
 24 25  2  0
 24 26  1  0
 26 27  1  0
 27 28  2  0
 27 29  1  0
 29 30  1  0
 30 31  2  0
  5 32  1  0
 32 33  2  0
 33  3  1  0
 31  9  1  0
 21 15  1  0
 30 23  1  0
  1 34  1  0
  1 35  1  0
  1 36  1  0
  2 37  1  0
  2 38  1  0
  4 39  1  0
 10 40  1  0
 14 41  1  0
 15 42  1  1
 16 43  1  0
 16 44  1  0
 17 45  1  0
 17 46  1  0
 20 47  1  0
 26 48  1  0
 29 49  1  0
 32 50  1  0
M  END
>  <meeko>  (997) 
{"is_sidechain": [true], "free_energy": -10.34, "intermolecular_energy": 0.0, "internal_energy": -10.34, "cluster_size": 20, "cluster_id": 1, "rank_in_cluster": 1}

>  <_RMSD_MCS_to_ref>  (997) 
0.5598052240635925

$$$$
ligand
     RDKit          3D

 54 57  0  0  0  0  0  0  0  0999 V2000
   18.9090   19.1540    7.5370 C   0  0  0  0  0  0  0  0  0  0  0  0
   18.7730   17.6460    7.6780 C   0  0  0  0  0  0  0  0  0  0  0  0
   20.0950   16.9630    7.6930 C   0  0  0  0  0  0  0  0  0  0  0  0
   20.8950   16.6420    8.7730 C   0  0  0  0  0  0  0  0  0  0  0  0
   21.9810   16.0320    8.2130 N   0  0  0  0  0  0  0  0  0  0  0  0
   23.3400   15.4990    9.0420 S   0  0  0  0  0  6  0  0  0  0  0  0
   23.6400   14.2100    8.4460 O   0  0  0  0  0  0  0  0  0  0  0  0
   24.2970   16.5890    9.0360 O   0  0  0  0  0  0  0  0  0  0  0  0
   22.8080   15.2290   10.7160 C   0  0  0  0  0  0  0  0  0  0  0  0
   23.4950   15.8980   11.7350 C   0  0  0  0  0  0  0  0  0  0  0  0
   23.1170   15.7080   13.0610 C   0  0  0  0  0  0  0  0  0  0  0  0
   23.8610   16.4340   14.1240 C   0  0  0  0  0  0  0  0  0  0  0  0
   24.2450   15.8350   15.1220 O   0  0  0  0  0  0  0  0  0  0  0  0
   24.0550   17.7830   13.9360 N   0  0  0  0  0  0  0  0  0  0  0  0
   24.6500   18.6070   14.9810 C   0  0  1  0  0  0  0  0  0  0  0  0
   25.7780   17.8830   15.7090 C   0  0  0  0  0  0  0  0  0  0  0  0
   26.3800   18.8060   16.7580 C   0  0  0  0  0  0  0  0  0  0  0  0
   26.8500   20.1030   16.1420 C   0  0  0  0  0  0  0  0  0  0  0  0
   27.8260   20.7160   16.5630 O   0  0  0  0  0  0  0  0  0  0  0  0
   26.1090   20.5910   15.0960 N   0  0  0  0  0  0  0  0  0  0  0  0
   25.2040   19.8850   14.3440 C   0  0  0  0  0  0  0  0  0  0  0  0
   24.8540   20.2780   13.2310 O   0  0  0  0  0  0  0  0  0  0  0  0
   22.0400   14.8630   13.3500 C   0  0  0  0  0  0  0  0  0  0  0  0
   21.3270   14.1880   12.3310 C   0  0  0  0  0  0  0  0  0  0  0  0
   21.7100   14.3940   10.9970 C   0  0  0  0  0  0  0  0  0  0  0  0
   21.1330   13.8000    9.9180 O   0  0  0  0  0  0  0  0  0  0  0  0
   19.7090   13.8670    9.9030 C   0  0  0  0  0  0  0  0  0  0  0  0
   19.1760   12.6480   10.6130 C   0  0  0  0  0  0  0  0  0  0  0  0
   19.2680   12.7470   12.0520 N   0  0  0  0  0  0  0  0  0  0  0  0
   20.2470   13.2840   12.8360 C   0  0  0  0  0  0  0  0  0  0  0  0
   20.1970   13.0280   14.0400 O   0  0  0  0  0  0  0  0  0  0  0  0
   21.8240   15.9870    6.8650 C   0  0  0  0  0  0  0  0  0  0  0  0
   20.6880   16.5550    6.5140 N   0  0  0  0  0  0  0  0  0  0  0  0
   18.9504   19.6134    8.5356 H   0  0  0  0  0  0  0  0  0  0  0  0
   19.8320   19.3891    6.9867 H   0  0  0  0  0  0  0  0  0  0  0  0
   18.0430   19.5504    6.9867 H   0  0  0  0  0  0  0  0  0  0  0  0
   18.2484   17.4238    8.6190 H   0  0  0  0  0  0  0  0  0  0  0  0
   18.2099   17.2743    6.8093 H   0  0  0  0  0  0  0  0  0  0  0  0
   20.7016   16.8337    9.8388 H   0  0  0  0  0  0  0  0  0  0  0  0
   24.3298   16.5709   11.4893 H   0  0  0  0  0  0  0  0  0  0  0  0
   23.7759   18.2168   13.0445 H   0  0  0  0  0  0  0  0  0  0  0  0
   23.8687   18.8387   15.7199 H   0  0  0  0  0  0  0  0  0  0  0  0
   25.3795   16.9822   16.1987 H   0  0  0  0  0  0  0  0  0  0  0  0
   26.5549   17.5943   14.9858 H   0  0  0  0  0  0  0  0  0  0  0  0
   25.6187   19.0266   17.5207 H   0  0  0  0  0  0  0  0  0  0  0  0
   27.2471   18.3010   17.2088 H   0  0  0  0  0  0  0  0  0  0  0  0
   26.2449   21.5823   14.8516 H   0  0  0  0  0  0  0  0  0  0  0  0
   21.7392   14.7194   14.3983 H   0  0  0  0  0  0  0  0  0  0  0  0
   19.3729   14.7772   10.4212 H   0  0  0  0  0  0  0  0  0  0  0  0
   19.3394   13.8973    8.8674 H   0  0  0  0  0  0  0  0  0  0  0  0
   18.1192   12.5161   10.3376 H   0  0  0  0  0  0  0  0  0  0  0  0
   19.7915   11.7909   10.3022 H   0  0  0  0  0  0  0  0  0  0  0  0
   18.4690   12.3497   12.5664 H   0  0  0  0  0  0  0  0  0  0  0  0
   22.5441   15.5392    6.1643 H   0  0  0  0  0  0  0  0  0  0  0  0
  1  2  1  0
  2  3  1  0
  3  4  2  0
  4  5  1  0
  5  6  1  0
  6  7  2  0
  6  8  2  0
  6  9  1  0
  9 10  2  0
 10 11  1  0
 11 12  1  0
 12 13  2  0
 12 14  1  0
 14 15  1  0
 15 16  1  0
 16 17  1  0
 17 18  1  0
 18 19  2  0
 18 20  1  0
 20 21  1  0
 21 22  2  0
 11 23  2  0
 23 24  1  0
 24 25  2  0
 25 26  1  0
 26 27  1  0
 27 28  1  0
 28 29  1  0
 29 30  1  0
 30 31  2  0
  5 32  1  0
 32 33  2  0
 33  3  1  0
 25  9  1  0
 21 15  1  0
 30 24  1  0
  1 34  1  0
  1 35  1  0
  1 36  1  0
  2 37  1  0
  2 38  1  0
  4 39  1  0
 10 40  1  0
 14 41  1  0
 15 42  1  1
 16 43  1  0
 16 44  1  0
 17 45  1  0
 17 46  1  0
 20 47  1  0
 23 48  1  0
 27 49  1  0
 27 50  1  0
 28 51  1  0
 28 52  1  0
 29 53  1  0
 32 54  1  0
M  END
>  <meeko>  (998) 
{"is_sidechain": [true], "free_energy": -10.34, "intermolecular_energy": 0.08, "internal_energy": -10.42, "cluster_size": 20, "cluster_id": 1, "rank_in_cluster": 1}

>  <_RMSD_MCS_to_ref>  (998) 
0.448077994202895

$$$$
ligand
     RDKit          3D

 47 50  0  0  0  0  0  0  0  0999 V2000
   18.7970   18.8170    7.7190 C   0  0  0  0  0  0  0  0  0  0  0  0
   18.5280   17.3290    7.8810 C   0  0  0  0  0  0  0  0  0  0  0  0
   19.7870   16.5370    7.9590 C   0  0  0  0  0  0  0  0  0  0  0  0
   20.3090   15.8420    9.0320 C   0  0  0  0  0  0  0  0  0  0  0  0
   21.4710   15.3110    8.5530 N   0  0  0  0  0  0  0  0  0  0  0  0
   22.4400   14.1760    9.3260 S   0  0  0  0  0  6  0  0  0  0  0  0
   22.1800   12.9250    8.6390 O   0  0  0  0  0  0  0  0  0  0  0  0
   23.7650   14.7550    9.4090 O   0  0  0  0  0  0  0  0  0  0  0  0
   21.7660   14.0740   10.9520 C   0  0  0  0  0  0  0  0  0  0  0  0
   20.7260   13.1730   11.2060 C   0  0  0  0  0  0  0  0  0  0  0  0
   20.2010   13.1090   12.4870 C   0  0  0  0  0  0  0  0  0  0  0  0
   20.6090   13.8500   13.5360 N   0  0  0  0  0  0  0  0  0  0  0  0
   21.6210   14.6850   13.2480 C   0  0  0  0  0  0  0  0  0  0  0  0
   22.1780   15.5070   14.1770 O   0  0  0  0  0  0  0  0  0  0  0  0
   23.1800   16.2040   13.5610 C   0  0  0  0  0  0  0  0  0  0  0  0
   23.9510   17.1610   14.3230 C   0  0  0  0  0  0  0  0  0  0  0  0
   23.4440   18.0290   15.0270 O   0  0  0  0  0  0  0  0  0  0  0  0
   25.3130   17.0160   14.2050 N   0  0  0  0  0  0  0  0  0  0  0  0
   26.2480   17.7930   15.0000 C   0  0  2  0  0  0  0  0  0  0  0  0
   25.9030   17.7570   16.4860 C   0  0  0  0  0  0  0  0  0  0  0  0
   26.9000   18.6060   17.2590 C   0  0  0  0  0  0  0  0  0  0  0  0
   26.9490   20.0180   16.7270 C   0  0  0  0  0  0  0  0  0  0  0  0
   27.1630   20.9880   17.4490 O   0  0  0  0  0  0  0  0  0  0  0  0
   26.7720   20.1720   15.3750 N   0  0  0  0  0  0  0  0  0  0  0  0
   26.2300   19.2460   14.5170 C   0  0  0  0  0  0  0  0  0  0  0  0
   25.7790   19.5840   13.4230 O   0  0  0  0  0  0  0  0  0  0  0  0
   23.2600   15.8260   12.2340 C   0  0  0  0  0  0  0  0  0  0  0  0
   22.2500   14.8540   12.0160 C   0  0  0  0  0  0  0  0  0  0  0  0
   21.6170   15.6600    7.2480 C   0  0  0  0  0  0  0  0  0  0  0  0
   20.6060   16.4080    6.8550 N   0  0  0  0  0  0  0  0  0  0  0  0
   18.8815   19.2845    8.7111 H   0  0  0  0  0  0  0  0  0  0  0  0
   19.7359   18.9616    7.1643 H   0  0  0  0  0  0  0  0  0  0  0  0
   17.9682   19.2812    7.1643 H   0  0  0  0  0  0  0  0  0  0  0  0
   17.9520   17.1712    8.8048 H   0  0  0  0  0  0  0  0  0  0  0  0
   17.9677   16.9881    6.9979 H   0  0  0  0  0  0  0  0  0  0  0  0
   19.8850   15.7398   10.0419 H   0  0  0  0  0  0  0  0  0  0  0  0
   20.3333   12.5288   10.4055 H   0  0  0  0  0  0  0  0  0  0  0  0
   19.3835   12.3941   12.6620 H   0  0  0  0  0  0  0  0  0  0  0  0
   25.6834   16.3325   13.5293 H   0  0  0  0  0  0  0  0  0  0  0  0
   27.2472   17.3505   14.8741 H   0  0  0  0  0  0  0  0  0  0  0  0
   24.8885   18.1547   16.6365 H   0  0  0  0  0  0  0  0  0  0  0  0
   25.9476   16.7191   16.8475 H   0  0  0  0  0  0  0  0  0  0  0  0
   26.6027   18.6324   18.3177 H   0  0  0  0  0  0  0  0  0  0  0  0
   27.8982   18.1580   17.1453 H   0  0  0  0  0  0  0  0  0  0  0  0
   27.0742   21.0670   14.9644 H   0  0  0  0  0  0  0  0  0  0  0  0
   23.9725   16.2070   11.4876 H   0  0  0  0  0  0  0  0  0  0  0  0
   22.4608   15.3601    6.6092 H   0  0  0  0  0  0  0  0  0  0  0  0
  1  2  1  0
  2  3  1  0
  3  4  2  0
  4  5  1  0
  5  6  1  0
  6  7  2  0
  6  8  2  0
  6  9  1  0
  9 10  2  0
 10 11  1  0
 11 12  2  0
 12 13  1  0
 13 14  1  0
 14 15  1  0
 15 16  1  0
 16 17  2  0
 16 18  1  0
 18 19  1  0
 19 20  1  0
 20 21  1  0
 21 22  1  0
 22 23  2  0
 22 24  1  0
 24 25  1  0
 25 26  2  0
 15 27  2  0
 27 28  1  0
  5 29  1  0
 29 30  2  0
 30  3  1  0
 28  9  1  0
 28 13  2  0
 25 19  1  0
  1 31  1  0
  1 32  1  0
  1 33  1  0
  2 34  1  0
  2 35  1  0
  4 36  1  0
 10 37  1  0
 11 38  1  0
 18 39  1  0
 19 40  1  1
 20 41  1  0
 20 42  1  0
 21 43  1  0
 21 44  1  0
 24 45  1  0
 27 46  1  0
 29 47  1  0
M  END
>  <meeko>  (999) 
{"is_sidechain": [true], "free_energy": -10.33, "intermolecular_energy": 0.0, "internal_energy": -10.33, "cluster_size": 10, "cluster_id": 1, "rank_in_cluster": 1}

>  <_RMSD_MCS_to_ref>  (999) 
0.7852161061346956

$$$$
ligand
     RDKit          3D

 45 48  0  0  0  0  0  0  0  0999 V2000
   18.7970   18.8170    7.7190 C   0  0  0  0  0  0  0  0  0  0  0  0
   18.5280   17.3290    7.8810 C   0  0  0  0  0  0  0  0  0  0  0  0
   19.7700   16.5590    8.1540 C   0  0  0  0  0  0  0  0  0  0  0  0
   20.7430   16.1420    7.2660 C   0  0  0  0  0  0  0  0  0  0  0  0
   21.6300   15.4530    8.0400 N   0  0  0  0  0  0  0  0  0  0  0  0
   22.9530   14.5460    7.5190 S   0  0  0  0  0  6  0  0  0  0  0  0
   23.8260   15.5330    6.9080 O   0  0  0  0  0  0  0  0  0  0  0  0
   22.4170   13.4560    6.7240 O   0  0  0  0  0  0  0  0  0  0  0  0
   23.7390   13.9580    8.8180 O   0  0  0  0  0  0  0  0  0  0  0  0
   24.4400   14.7960    9.6510 C   0  0  0  0  0  0  0  0  0  0  0  0
   25.6250   15.3450    9.1380 C   0  0  0  0  0  0  0  0  0  0  0  0
   26.3710   16.2280    9.9260 C   0  0  0  0  0  0  0  0  0  0  0  0
   25.8740   16.5060   11.1790 C   0  0  0  0  0  0  0  0  0  0  0  0
   24.6970   15.9310   11.5870 C   0  0  0  0  0  0  0  0  0  0  0  0
   23.9420   15.0810   10.8690 N   0  0  0  0  0  0  0  0  0  0  0  0
   24.4090   16.4110   12.9430 C   0  0  0  0  0  0  0  0  0  0  0  0
   23.4290   16.1270   13.6070 O   0  0  0  0  0  0  0  0  0  0  0  0
   25.4580   17.2240   13.2920 N   0  0  0  0  0  0  0  0  0  0  0  0
   25.4560   18.0280   14.5070 C   0  0  1  0  0  0  0  0  0  0  0  0
   26.4250   17.5490   15.5830 C   0  0  0  0  0  0  0  0  0  0  0  0
   26.3010   18.4500   16.8020 C   0  0  0  0  0  0  0  0  0  0  0  0
   26.5410   19.8990   16.4420 C   0  0  0  0  0  0  0  0  0  0  0  0
   27.0030   20.7070   17.2410 O   0  0  0  0  0  0  0  0  0  0  0  0
   26.1650   20.2890   15.1790 N   0  0  0  0  0  0  0  0  0  0  0  0
   25.7590   19.4850   14.1390 C   0  0  0  0  0  0  0  0  0  0  0  0
   25.6140   19.9470   13.0080 O   0  0  0  0  0  0  0  0  0  0  0  0
   26.3460   17.3590   12.2600 C   0  0  0  0  0  0  0  0  0  0  0  0
   27.3400   18.0550   12.1820 O   0  0  0  0  0  0  0  0  0  0  0  0
   21.1990   15.4620    9.3280 C   0  0  0  0  0  0  0  0  0  0  0  0
   20.0730   16.1360    9.4360 N   0  0  0  0  0  0  0  0  0  0  0  0
   18.8815   19.2845    8.7111 H   0  0  0  0  0  0  0  0  0  0  0  0
   19.7359   18.9616    7.1643 H   0  0  0  0  0  0  0  0  0  0  0  0
   17.9682   19.2812    7.1643 H   0  0  0  0  0  0  0  0  0  0  0  0
   17.8305   17.1846    8.7192 H   0  0  0  0  0  0  0  0  0  0  0  0
   18.1024   16.9586    6.9367 H   0  0  0  0  0  0  0  0  0  0  0  0
   20.7913   16.3241    6.1823 H   0  0  0  0  0  0  0  0  0  0  0  0
   25.9645   15.0834    8.1249 H   0  0  0  0  0  0  0  0  0  0  0  0
   27.3071   16.6772    9.5627 H   0  0  0  0  0  0  0  0  0  0  0  0
   24.4541   17.9265   14.9495 H   0  0  0  0  0  0  0  0  0  0  0  0
   26.1810   16.5138   15.8639 H   0  0  0  0  0  0  0  0  0  0  0  0
   27.4546   17.5869   15.1976 H   0  0  0  0  0  0  0  0  0  0  0  0
   25.2892   18.3480   17.2213 H   0  0  0  0  0  0  0  0  0  0  0  0
   27.0601   18.1450   17.5374 H   0  0  0  0  0  0  0  0  0  0  0  0
   26.1901   21.3010   14.9889 H   0  0  0  0  0  0  0  0  0  0  0  0
   21.7189   14.9736   10.1654 H   0  0  0  0  0  0  0  0  0  0  0  0
  1  2  1  0
  2  3  1  0
  3  4  2  0
  4  5  1  0
  5  6  1  0
  6  7  2  0
  6  8  2  0
  6  9  1  0
  9 10  1  0
 10 11  2  0
 11 12  1  0
 12 13  2  0
 13 14  1  0
 14 15  2  0
 14 16  1  0
 16 17  2  0
 16 18  1  0
 18 19  1  0
 19 20  1  0
 20 21  1  0
 21 22  1  0
 22 23  2  0
 22 24  1  0
 24 25  1  0
 25 26  2  0
 18 27  1  0
 27 28  2  0
  5 29  1  0
 29 30  2  0
 30  3  1  0
 15 10  1  0
 25 19  1  0
 27 13  1  0
  1 31  1  0
  1 32  1  0
  1 33  1  0
  2 34  1  0
  2 35  1  0
  4 36  1  0
 11 37  1  0
 12 38  1  0
 19 39  1  1
 20 40  1  0
 20 41  1  0
 21 42  1  0
 21 43  1  0
 24 44  1  0
 29 45  1  0
M  END
>  <meeko>  (1000) 
{"is_sidechain": [true], "free_energy": -10.33, "intermolecular_energy": 0.0, "internal_energy": -10.33, "cluster_size": 20, "cluster_id": 1, "rank_in_cluster": 1}

>  <_RMSD_MCS_to_ref>  (1000) 
0.8157056541950131

$$$$
ligand
     RDKit          3D

 45 48  0  0  0  0  0  0  0  0999 V2000
   18.7970   18.8170    7.7190 C   0  0  0  0  0  0  0  0  0  0  0  0
   18.5280   17.3290    7.8810 C   0  0  0  0  0  0  0  0  0  0  0  0
   19.7830   16.5300    7.9010 C   0  0  0  0  0  0  0  0  0  0  0  0
   20.5040   16.0690    8.9850 C   0  0  0  0  0  0  0  0  0  0  0  0
   21.5710   15.4250    8.4300 N   0  0  0  0  0  0  0  0  0  0  0  0
   22.6470   14.4090    9.2450 S   0  0  0  0  0  6  0  0  0  0  0  0
   23.9000   15.1420    9.2550 O   0  0  0  0  0  0  0  0  0  0  0  0
   22.5370   13.1450    8.5400 O   0  0  0  0  0  0  0  0  0  0  0  0
   22.0570   14.2430   10.8360 C   0  0  0  0  0  0  0  0  0  0  0  0
   21.0960   13.3590   11.1600 C   0  0  0  0  0  0  0  0  0  0  0  0
   20.6620   13.4290   12.8760 S   0  0  0  0  0  0  0  0  0  0  0  0
   21.8400   14.6890   13.0850 C   0  0  0  0  0  0  0  0  0  0  0  0
   22.2300   15.4090   14.0980 N   0  0  0  0  0  0  0  0  0  0  0  0
   23.2140   16.2310   13.5460 C   0  0  0  0  0  0  0  0  0  0  0  0
   23.9480   17.2250   14.3280 C   0  0  0  0  0  0  0  0  0  0  0  0
   23.3980   18.0590   15.0390 O   0  0  0  0  0  0  0  0  0  0  0  0
   25.3090   17.1160   14.1910 N   0  0  0  0  0  0  0  0  0  0  0  0
   26.2370   17.8980   14.9840 C   0  0  2  0  0  0  0  0  0  0  0  0
   25.9150   17.8240   16.4740 C   0  0  0  0  0  0  0  0  0  0  0  0
   26.9060   18.6750   17.2520 C   0  0  0  0  0  0  0  0  0  0  0  0
   26.9150   20.1000   16.7530 C   0  0  0  0  0  0  0  0  0  0  0  0
   27.1270   21.0560   17.4920 O   0  0  0  0  0  0  0  0  0  0  0  0
   26.7090   20.2800   15.4080 N   0  0  0  0  0  0  0  0  0  0  0  0
   26.1840   19.3610   14.5330 C   0  0  0  0  0  0  0  0  0  0  0  0
   25.7250   19.7140   13.4480 O   0  0  0  0  0  0  0  0  0  0  0  0
   23.3760   15.9660   12.1900 C   0  0  0  0  0  0  0  0  0  0  0  0
   22.4770   14.9800   11.9140 N   0  0  0  0  0  0  0  0  0  0  0  0
   21.4560   15.4580    7.0760 C   0  0  0  0  0  0  0  0  0  0  0  0
   20.3810   16.1300    6.7210 N   0  0  0  0  0  0  0  0  0  0  0  0
   18.8815   19.2845    8.7111 H   0  0  0  0  0  0  0  0  0  0  0  0
   19.7359   18.9616    7.1643 H   0  0  0  0  0  0  0  0  0  0  0  0
   17.9682   19.2812    7.1643 H   0  0  0  0  0  0  0  0  0  0  0  0
   17.9899   17.1672    8.8266 H   0  0  0  0  0  0  0  0  0  0  0  0
   17.9306   16.9980    7.0188 H   0  0  0  0  0  0  0  0  0  0  0  0
   20.2710   16.1929   10.0529 H   0  0  0  0  0  0  0  0  0  0  0  0
   20.6315   12.6696   10.4396 H   0  0  0  0  0  0  0  0  0  0  0  0
   25.6856   16.4533   13.4983 H   0  0  0  0  0  0  0  0  0  0  0  0
   27.2433   17.4809   14.8308 H   0  0  0  0  0  0  0  0  0  0  0  0
   24.8954   18.1986   16.6474 H   0  0  0  0  0  0  0  0  0  0  0  0
   25.9856   16.7796   16.8119 H   0  0  0  0  0  0  0  0  0  0  0  0
   26.6256   18.6695   18.3156 H   0  0  0  0  0  0  0  0  0  0  0  0
   27.9117   18.2518   17.1127 H   0  0  0  0  0  0  0  0  0  0  0  0
   26.9744   21.1948   15.0162 H   0  0  0  0  0  0  0  0  0  0  0  0
   24.0771   16.4476   11.4925 H   0  0  0  0  0  0  0  0  0  0  0  0
   22.1622   14.9889    6.3751 H   0  0  0  0  0  0  0  0  0  0  0  0
  1  2  1  0
  2  3  1  0
  3  4  2  0
  4  5  1  0
  5  6  1  0
  6  7  2  0
  6  8  2  0
  6  9  1  0
  9 10  2  0
 10 11  1  0
 11 12  1  0
 12 13  2  0
 13 14  1  0
 14 15  1  0
 15 16  2  0
 15 17  1  0
 17 18  1  0
 18 19  1  0
 19 20  1  0
 20 21  1  0
 21 22  2  0
 21 23  1  0
 23 24  1  0
 24 25  2  0
 14 26  2  0
 26 27  1  0
  5 28  1  0
 28 29  2  0
 29  3  1  0
 27  9  1  0
 27 12  1  0
 24 18  1  0
  1 30  1  0
  1 31  1  0
  1 32  1  0
  2 33  1  0
  2 34  1  0
  4 35  1  0
 10 36  1  0
 17 37  1  0
 18 38  1  1
 19 39  1  0
 19 40  1  0
 20 41  1  0
 20 42  1  0
 23 43  1  0
 26 44  1  0
 28 45  1  0
M  END
>  <meeko>  (1001) 
{"is_sidechain": [true], "free_energy": -10.33, "intermolecular_energy": 0.0, "internal_energy": -10.33, "cluster_size": 15, "cluster_id": 1, "rank_in_cluster": 1}

>  <_RMSD_MCS_to_ref>  (1001) 
0.7433313153933745

$$$$
ligand
     RDKit          3D

 55 59  0  0  0  0  0  0  0  0999 V2000
   18.7970   18.8170    7.7190 C   0  0  0  0  0  0  0  0  0  0  0  0
   18.5280   17.3290    7.8810 C   0  0  0  0  0  0  0  0  0  0  0  0
   19.6870   16.4990    7.4500 C   0  0  0  0  0  0  0  0  0  0  0  0
   20.8360   16.1830    8.1490 C   0  0  0  0  0  0  0  0  0  0  0  0
   21.5380   15.3840    7.2930 N   0  0  0  0  0  0  0  0  0  0  0  0
   23.1210   14.8630    7.5080 S   0  0  0  0  0  6  0  0  0  0  0  0
   23.1600   13.5020    7.0090 O   0  0  0  0  0  0  0  0  0  0  0  0
   23.9610   15.9140    6.9670 O   0  0  0  0  0  0  0  0  0  0  0  0
   23.3080   14.8340    9.2700 C   0  0  0  0  0  0  0  0  0  0  0  0
   24.5610   15.1290    9.8370 C   0  0  0  0  0  0  0  0  0  0  0  0
   24.7230   15.1280   11.2240 C   0  0  0  0  0  0  0  0  0  0  0  0
   23.6280   14.8120   12.0200 C   0  0  0  0  0  0  0  0  0  0  0  0
   22.3890   14.4970   11.4440 C   0  0  0  0  0  0  0  0  0  0  0  0
   22.2080   14.5070   10.0700 C   0  0  0  0  0  0  0  0  0  0  0  0
   21.3560   14.2190   12.4930 C   0  0  0  0  0  0  0  0  0  0  0  0
   22.2410   13.9420   13.7190 C   0  0  0  0  0  0  0  0  0  0  0  0
   23.5280   14.7690   13.5290 C   0  0  1  0  0  0  0  0  0  0  0  0
   24.7360   14.1890   14.2530 C   0  0  0  0  0  0  0  0  0  0  0  0
   25.4490   15.4070   14.7670 C   0  0  0  0  0  0  0  0  0  0  0  0
   26.5690   15.3940   15.2550 O   0  0  0  0  0  0  0  0  0  0  0  0
   24.6340   16.4970   14.6450 N   0  0  0  0  0  0  0  0  0  0  0  0
   24.9240   17.7590   15.3120 C   0  0  1  0  0  0  0  0  0  0  0  0
   25.9730   17.6610   16.4170 C   0  0  0  0  0  0  0  0  0  0  0  0
   26.1630   19.0340   17.0470 C   0  0  0  0  0  0  0  0  0  0  0  0
   26.5390   20.0680   16.0110 C   0  0  0  0  0  0  0  0  0  0  0  0
   27.2130   21.0560   16.2850 O   0  0  0  0  0  0  0  0  0  0  0  0
   26.0390   19.8820   14.7450 N   0  0  0  0  0  0  0  0  0  0  0  0
   25.3510   18.7920   14.2630 C   0  0  0  0  0  0  0  0  0  0  0  0
   25.0650   18.7090   13.0700 O   0  0  0  0  0  0  0  0  0  0  0  0
   23.4170   16.1620   14.1170 C   0  0  0  0  0  0  0  0  0  0  0  0
   22.4170   16.8640   14.1100 O   0  0  0  0  0  0  0  0  0  0  0  0
   20.8560   15.2760    6.1240 C   0  0  0  0  0  0  0  0  0  0  0  0
   19.7180   15.9350    6.1890 N   0  0  0  0  0  0  0  0  0  0  0  0
   18.8815   19.2845    8.7111 H   0  0  0  0  0  0  0  0  0  0  0  0
   19.7359   18.9616    7.1643 H   0  0  0  0  0  0  0  0  0  0  0  0
   17.9682   19.2812    7.1643 H   0  0  0  0  0  0  0  0  0  0  0  0
   18.3168   17.1202    8.9401 H   0  0  0  0  0  0  0  0  0  0  0  0
   17.6700   17.0690    7.2436 H   0  0  0  0  0  0  0  0  0  0  0  0
   21.1201   16.5020    9.1627 H   0  0  0  0  0  0  0  0  0  0  0  0
   25.4163   15.3613    9.1855 H   0  0  0  0  0  0  0  0  0  0  0  0
   25.6954   15.3718   11.6766 H   0  0  0  0  0  0  0  0  0  0  0  0
   21.2321   14.2659    9.6235 H   0  0  0  0  0  0  0  0  0  0  0  0
   20.7028   15.0890   12.6558 H   0  0  0  0  0  0  0  0  0  0  0  0
   20.6658   13.4005   12.2407 H   0  0  0  0  0  0  0  0  0  0  0  0
   21.7231   14.2517   14.6387 H   0  0  0  0  0  0  0  0  0  0  0  0
   22.4684   12.8696   13.8100 H   0  0  0  0  0  0  0  0  0  0  0  0
   24.4230   13.5367   15.0816 H   0  0  0  0  0  0  0  0  0  0  0  0
   25.3665   13.5629   13.6046 H   0  0  0  0  0  0  0  0  0  0  0  0
   23.9977   18.0692   15.8177 H   0  0  0  0  0  0  0  0  0  0  0  0
   25.6353   16.9477   17.1833 H   0  0  0  0  0  0  0  0  0  0  0  0
   26.9264   17.3128   15.9930 H   0  0  0  0  0  0  0  0  0  0  0  0
   25.2239   19.3384   17.5322 H   0  0  0  0  0  0  0  0  0  0  0  0
   26.9783   18.9680   17.7824 H   0  0  0  0  0  0  0  0  0  0  0  0
   26.1980   20.6498   14.0771 H   0  0  0  0  0  0  0  0  0  0  0  0
   21.2057   14.7156    5.2444 H   0  0  0  0  0  0  0  0  0  0  0  0
  1  2  1  0
  2  3  1  0
  3  4  2  0
  4  5  1  0
  5  6  1  0
  6  7  2  0
  6  8  2  0
  6  9  1  0
  9 10  2  0
 10 11  1  0
 11 12  2  0
 12 13  1  0
 13 14  2  0
 13 15  1  0
 15 16  1  0
 17 16  1  6
 17 18  1  0
 18 19  1  0
 19 20  2  0
 19 21  1  0
 21 22  1  0
 22 23  1  0
 23 24  1  0
 24 25  1  0
 25 26  2  0
 25 27  1  0
 27 28  1  0
 28 29  2  0
 21 30  1  0
 30 31  2  0
  5 32  1  0
 32 33  2  0
 33  3  1  0
 14  9  1  0
 30 17  1  0
 17 12  1  0
 28 22  1  0
  1 34  1  0
  1 35  1  0
  1 36  1  0
  2 37  1  0
  2 38  1  0
  4 39  1  0
 10 40  1  0
 11 41  1  0
 14 42  1  0
 15 43  1  0
 15 44  1  0
 16 45  1  0
 16 46  1  0
 18 47  1  0
 18 48  1  0
 22 49  1  1
 23 50  1  0
 23 51  1  0
 24 52  1  0
 24 53  1  0
 27 54  1  0
 32 55  1  0
M  END
>  <meeko>  (1002) 
{"is_sidechain": [true], "free_energy": -10.33, "intermolecular_energy": 0.0, "internal_energy": -10.33, "cluster_size": 17, "cluster_id": 1, "rank_in_cluster": 1}

>  <_RMSD_MCS_to_ref>  (1002) 
1.9800368503064352

$$$$
ligand
     RDKit          3D

 49 52  0  0  0  0  0  0  0  0999 V2000
   18.9090   19.1540    7.5370 C   0  0  0  0  0  0  0  0  0  0  0  0
   18.7730   17.6460    7.6780 C   0  0  0  0  0  0  0  0  0  0  0  0
   20.0450   16.9360    7.3700 C   0  0  0  0  0  0  0  0  0  0  0  0
   21.1130   16.6680    8.2020 C   0  0  0  0  0  0  0  0  0  0  0  0
   22.0080   16.0180    7.4020 N   0  0  0  0  0  0  0  0  0  0  0  0
   23.4020   15.2420    7.9150 S   0  0  0  0  0  6  0  0  0  0  0  0
   23.0650   13.8360    8.0290 O   0  0  0  0  0  0  0  0  0  0  0  0
   24.4750   15.7380    7.0770 O   0  0  0  0  0  0  0  0  0  0  0  0
   23.8090   15.7390    9.5110 C   0  0  0  0  0  0  0  0  0  0  0  0
   24.8870   16.5130    9.8930 C   0  0  0  0  0  0  0  0  0  0  0  0
   24.8180   16.6670   11.2520 N   0  0  0  0  0  0  0  0  0  0  0  0
   23.7190   16.0000   11.7590 C   0  0  0  0  0  0  0  0  0  0  0  0
   23.2720   15.8840   13.0900 C   0  0  0  0  0  0  0  0  0  0  0  0
   24.0500   16.5370   14.1810 C   0  0  0  0  0  0  0  0  0  0  0  0
   24.4710   15.8690   15.1230 O   0  0  0  0  0  0  0  0  0  0  0  0
   24.2310   17.8990   14.1000 N   0  0  0  0  0  0  0  0  0  0  0  0
   24.8500   18.6440   15.1870 C   0  0  1  0  0  0  0  0  0  0  0  0
   26.0010   17.8790   15.8310 C   0  0  0  0  0  0  0  0  0  0  0  0
   26.6250   18.7300   16.9270 C   0  0  0  0  0  0  0  0  0  0  0  0
   27.0700   20.0720   16.3940 C   0  0  0  0  0  0  0  0  0  0  0  0
   28.0570   20.6580   16.8270 O   0  0  0  0  0  0  0  0  0  0  0  0
   26.2940   20.6310   15.4110 N   0  0  0  0  0  0  0  0  0  0  0  0
   25.3840   19.9670   14.6270 C   0  0  0  0  0  0  0  0  0  0  0  0
   25.0180   20.4260   13.5450 O   0  0  0  0  0  0  0  0  0  0  0  0
   22.0860   15.1620   13.3030 C   0  0  0  0  0  0  0  0  0  0  0  0
   21.4070   14.5650   12.2410 C   0  0  0  0  0  0  0  0  0  0  0  0
   21.8840   14.6760   10.9310 C   0  0  0  0  0  0  0  0  0  0  0  0
   23.0600   15.4120   10.6780 C   0  0  0  0  0  0  0  0  0  0  0  0
   21.4640   15.8580    6.1670 C   0  0  0  0  0  0  0  0  0  0  0  0
   20.2730   16.4180    6.1110 N   0  0  0  0  0  0  0  0  0  0  0  0
   18.9504   19.6134    8.5356 H   0  0  0  0  0  0  0  0  0  0  0  0
   19.8320   19.3891    6.9867 H   0  0  0  0  0  0  0  0  0  0  0  0
   18.0430   19.5504    6.9867 H   0  0  0  0  0  0  0  0  0  0  0  0
   18.4778   17.4119    8.7115 H   0  0  0  0  0  0  0  0  0  0  0  0
   18.0135   17.3064    6.9584 H   0  0  0  0  0  0  0  0  0  0  0  0
   21.2189   16.9207    9.2673 H   0  0  0  0  0  0  0  0  0  0  0  0
   25.6586   16.9290    9.2284 H   0  0  0  0  0  0  0  0  0  0  0  0
   25.4908   17.2046   11.8170 H   0  0  0  0  0  0  0  0  0  0  0  0
   23.9228   18.4005   13.2547 H   0  0  0  0  0  0  0  0  0  0  0  0
   24.0879   18.8128   15.9620 H   0  0  0  0  0  0  0  0  0  0  0  0
   25.6213   16.9424   16.2654 H   0  0  0  0  0  0  0  0  0  0  0  0
   26.7599   17.6484   15.0689 H   0  0  0  0  0  0  0  0  0  0  0  0
   25.8830   18.8889   17.7234 H   0  0  0  0  0  0  0  0  0  0  0  0
   27.5074   18.2014   17.3169 H   0  0  0  0  0  0  0  0  0  0  0  0
   26.4042   21.6417   15.2460 H   0  0  0  0  0  0  0  0  0  0  0  0
   21.6865   15.0660   14.3234 H   0  0  0  0  0  0  0  0  0  0  0  0
   20.4840   13.9993   12.4364 H   0  0  0  0  0  0  0  0  0  0  0  0
   21.3451   14.1922   10.1030 H   0  0  0  0  0  0  0  0  0  0  0  0
   21.9503   15.3341    5.3309 H   0  0  0  0  0  0  0  0  0  0  0  0
  1  2  1  0
  2  3  1  0
  3  4  2  0
  4  5  1  0
  5  6  1  0
  6  7  2  0
  6  8  2  0
  6  9  1  0
  9 10  2  0
 10 11  1  0
 11 12  1  0
 12 13  2  0
 13 14  1  0
 14 15  2  0
 14 16  1  0
 16 17  1  0
 17 18  1  0
 18 19  1  0
 19 20  1  0
 20 21  2  0
 20 22  1  0
 22 23  1  0
 23 24  2  0
 13 25  1  0
 25 26  2  0
 26 27  1  0
 27 28  2  0
  5 29  1  0
 29 30  2  0
 30  3  1  0
 28  9  1  0
 28 12  1  0
 23 17  1  0
  1 31  1  0
  1 32  1  0
  1 33  1  0
  2 34  1  0
  2 35  1  0
  4 36  1  0
 10 37  1  0
 11 38  1  0
 16 39  1  0
 17 40  1  1
 18 41  1  0
 18 42  1  0
 19 43  1  0
 19 44  1  0
 22 45  1  0
 25 46  1  0
 26 47  1  0
 27 48  1  0
 29 49  1  0
M  END
>  <meeko>  (1003) 
{"is_sidechain": [true], "free_energy": -10.33, "intermolecular_energy": 0.0, "internal_energy": -10.33, "cluster_size": 6, "cluster_id": 1, "rank_in_cluster": 1}

>  <_RMSD_MCS_to_ref>  (1003) 
0.4829742487959367

$$$$
ligand
     RDKit          3D

 49 52  0  0  0  0  0  0  0  0999 V2000
   18.9090   19.1540    7.5370 C   0  0  0  0  0  0  0  0  0  0  0  0
   18.7730   17.6460    7.6780 C   0  0  0  0  0  0  0  0  0  0  0  0
   20.0940   16.9620    7.6890 C   0  0  0  0  0  0  0  0  0  0  0  0
   20.8230   16.4990    8.7680 C   0  0  0  0  0  0  0  0  0  0  0  0
   21.9420   15.9540    8.2070 N   0  0  0  0  0  0  0  0  0  0  0  0
   23.3030   15.4200    9.0330 S   0  0  0  0  0  6  0  0  0  0  0  0
   24.2200   16.5480    9.0330 O   0  0  0  0  0  0  0  0  0  0  0  0
   23.6500   14.1330    8.4680 O   0  0  0  0  0  0  0  0  0  0  0  0
   22.7360   15.1770   10.6950 C   0  0  0  0  0  0  0  0  0  0  0  0
   23.3980   15.8310   11.7430 C   0  0  0  0  0  0  0  0  0  0  0  0
   23.0010   15.6510   13.0730 C   0  0  0  0  0  0  0  0  0  0  0  0
   23.7650   16.3700   14.1320 C   0  0  0  0  0  0  0  0  0  0  0  0
   24.1540   15.7680   15.1270 O   0  0  0  0  0  0  0  0  0  0  0  0
   23.9660   17.7210   13.9520 N   0  0  0  0  0  0  0  0  0  0  0  0
   24.5670   18.5360   14.9990 C   0  0  1  0  0  0  0  0  0  0  0  0
   25.7300   17.8300   15.6870 C   0  0  0  0  0  0  0  0  0  0  0  0
   26.3340   18.7520   16.7350 C   0  0  0  0  0  0  0  0  0  0  0  0
   26.7550   20.0710   16.1300 C   0  0  0  0  0  0  0  0  0  0  0  0
   27.7320   20.6970   16.5280 O   0  0  0  0  0  0  0  0  0  0  0  0
   25.9680   20.5610   15.1180 N   0  0  0  0  0  0  0  0  0  0  0  0
   25.0760   19.8360   14.3680 C   0  0  0  0  0  0  0  0  0  0  0  0
   24.7080   20.2260   13.2610 O   0  0  0  0  0  0  0  0  0  0  0  0
   21.8990   14.8310   13.3790 C   0  0  0  0  0  0  0  0  0  0  0  0
   21.2110   14.1790   12.3370 C   0  0  0  0  0  0  0  0  0  0  0  0
   20.0880   13.3090   12.2930 C   0  0  0  0  0  0  0  0  0  0  0  0
   19.8560   12.9860   10.9760 C   0  0  0  0  0  0  0  0  0  0  0  0
   20.7920   13.6320   10.2140 N   0  0  0  0  0  0  0  0  0  0  0  0
   21.6390   14.3650   11.0220 C   0  0  0  0  0  0  0  0  0  0  0  0
   21.8950   16.1260    6.8610 C   0  0  0  0  0  0  0  0  0  0  0  0
   20.7770   16.7280    6.5120 N   0  0  0  0  0  0  0  0  0  0  0  0
   18.9504   19.6134    8.5356 H   0  0  0  0  0  0  0  0  0  0  0  0
   19.8320   19.3891    6.9867 H   0  0  0  0  0  0  0  0  0  0  0  0
   18.0430   19.5504    6.9867 H   0  0  0  0  0  0  0  0  0  0  0  0
   18.2510   17.4238    8.6204 H   0  0  0  0  0  0  0  0  0  0  0  0
   18.2075   17.2750    6.8105 H   0  0  0  0  0  0  0  0  0  0  0  0
   20.5614   16.5565    9.8349 H   0  0  0  0  0  0  0  0  0  0  0  0
   24.2437   16.4969   11.5165 H   0  0  0  0  0  0  0  0  0  0  0  0
   23.6871   18.1614   13.0637 H   0  0  0  0  0  0  0  0  0  0  0  0
   23.7999   18.7317   15.7627 H   0  0  0  0  0  0  0  0  0  0  0  0
   25.3666   16.9120   16.1719 H   0  0  0  0  0  0  0  0  0  0  0  0
   26.4956   17.5718   14.9406 H   0  0  0  0  0  0  0  0  0  0  0  0
   25.5866   18.9403   17.5199 H   0  0  0  0  0  0  0  0  0  0  0  0
   27.2253   18.2629   17.1549 H   0  0  0  0  0  0  0  0  0  0  0  0
   26.0547   21.5643   14.9016 H   0  0  0  0  0  0  0  0  0  0  0  0
   21.5777   14.7003   14.4229 H   0  0  0  0  0  0  0  0  0  0  0  0
   19.5075   12.9565   13.1583 H   0  0  0  0  0  0  0  0  0  0  0  0
   19.0597   12.3258   10.6017 H   0  0  0  0  0  0  0  0  0  0  0  0
   20.8554   13.5791    9.1873 H   0  0  0  0  0  0  0  0  0  0  0  0
   22.6807   15.8072    6.1603 H   0  0  0  0  0  0  0  0  0  0  0  0
  1  2  1  0
  2  3  1  0
  3  4  2  0
  4  5  1  0
  5  6  1  0
  6  7  2  0
  6  8  2  0
  6  9  1  0
  9 10  2  0
 10 11  1  0
 11 12  1  0
 12 13  2  0
 12 14  1  0
 14 15  1  0
 15 16  1  0
 16 17  1  0
 17 18  1  0
 18 19  2  0
 18 20  1  0
 20 21  1  0
 21 22  2  0
 11 23  2  0
 23 24  1  0
 24 25  1  0
 25 26  2  0
 26 27  1  0
 27 28  1  0
  5 29  1  0
 29 30  2  0
 30  3  1  0
 28  9  1  0
 21 15  1  0
 28 24  2  0
  1 31  1  0
  1 32  1  0
  1 33  1  0
  2 34  1  0
  2 35  1  0
  4 36  1  0
 10 37  1  0
 14 38  1  0
 15 39  1  1
 16 40  1  0
 16 41  1  0
 17 42  1  0
 17 43  1  0
 20 44  1  0
 23 45  1  0
 25 46  1  0
 26 47  1  0
 27 48  1  0
 29 49  1  0
M  END
>  <meeko>  (1004) 
{"is_sidechain": [true], "free_energy": -10.33, "intermolecular_energy": 0.0, "internal_energy": -10.33, "cluster_size": 19, "cluster_id": 1, "rank_in_cluster": 1}

>  <_RMSD_MCS_to_ref>  (1004) 
0.34787875042893923

$$$$
ligand
     RDKit          3D

 48 51  0  0  0  0  0  0  0  0999 V2000
   18.9090   19.1540    7.5370 C   0  0  0  0  0  0  0  0  0  0  0  0
   18.7730   17.6460    7.6780 C   0  0  0  0  0  0  0  0  0  0  0  0
   20.0940   16.9610    7.6820 C   0  0  0  0  0  0  0  0  0  0  0  0
   21.0010   16.8290    8.7150 C   0  0  0  0  0  0  0  0  0  0  0  0
   22.0370   16.1300    8.1630 N   0  0  0  0  0  0  0  0  0  0  0  0
   23.3390   15.4810    9.0010 S   0  0  0  0  0  6  0  0  0  0  0  0
   23.5930   14.1850    8.4030 O   0  0  0  0  0  0  0  0  0  0  0  0
   24.3450   16.5230    9.0500 O   0  0  0  0  0  0  0  0  0  0  0  0
   22.6990   15.2350   10.6430 C   0  0  0  0  0  0  0  0  0  0  0  0
   23.3730   15.8670   11.7360 C   0  0  0  0  0  0  0  0  0  0  0  0
   22.9440   15.7500   13.0780 C   0  0  0  0  0  0  0  0  0  0  0  0
   23.6810   16.4280   14.1540 C   0  0  0  0  0  0  0  0  0  0  0  0
   24.0590   15.7870   15.1260 O   0  0  0  0  0  0  0  0  0  0  0  0
   23.9450   17.7620   13.9760 N   0  0  0  0  0  0  0  0  0  0  0  0
   24.5750   18.5650   15.0120 C   0  0  1  0  0  0  0  0  0  0  0  0
   25.7020   17.8160   15.7130 C   0  0  0  0  0  0  0  0  0  0  0  0
   26.3380   18.7210   16.7570 C   0  0  0  0  0  0  0  0  0  0  0  0
   26.8150   20.0170   16.1420 C   0  0  0  0  0  0  0  0  0  0  0  0
   27.8190   20.6020   16.5340 O   0  0  0  0  0  0  0  0  0  0  0  0
   26.0490   20.5350   15.1280 N   0  0  0  0  0  0  0  0  0  0  0  0
   25.1410   19.8370   14.3710 C   0  0  0  0  0  0  0  0  0  0  0  0
   24.8090   20.2270   13.2510 O   0  0  0  0  0  0  0  0  0  0  0  0
   21.8160   14.9300   13.2060 C   0  0  0  0  0  0  0  0  0  0  0  0
   21.1850   14.5210   14.3510 C   0  0  0  0  0  0  0  0  0  0  0  0
   20.1560   13.7260   13.9300 N   0  0  0  0  0  0  0  0  0  0  0  0
   20.0900   13.5740   12.5960 N   0  0  0  0  0  0  0  0  0  0  0  0
   21.1180   14.2860   12.1130 C   0  0  0  0  0  0  0  0  0  0  0  0
   21.5380   14.4390   10.7820 C   0  0  0  0  0  0  0  0  0  0  0  0
   21.7310   15.8200    6.8780 C   0  0  0  0  0  0  0  0  0  0  0  0
   20.5590   16.3220    6.5480 N   0  0  0  0  0  0  0  0  0  0  0  0
   18.9504   19.6134    8.5356 H   0  0  0  0  0  0  0  0  0  0  0  0
   19.8320   19.3891    6.9867 H   0  0  0  0  0  0  0  0  0  0  0  0
   18.0430   19.5504    6.9867 H   0  0  0  0  0  0  0  0  0  0  0  0
   18.2557   17.4237    8.6230 H   0  0  0  0  0  0  0  0  0  0  0  0
   18.2029   17.2758    6.8132 H   0  0  0  0  0  0  0  0  0  0  0  0
   20.9101   17.2014    9.7461 H   0  0  0  0  0  0  0  0  0  0  0  0
   24.2664   16.4720   11.5219 H   0  0  0  0  0  0  0  0  0  0  0  0
   23.6898   18.2078   13.0832 H   0  0  0  0  0  0  0  0  0  0  0  0
   23.8133   18.8060   15.7681 H   0  0  0  0  0  0  0  0  0  0  0  0
   25.2967   16.9186   16.2033 H   0  0  0  0  0  0  0  0  0  0  0  0
   26.4605   17.5184   14.9740 H   0  0  0  0  0  0  0  0  0  0  0  0
   25.5953   18.9461   17.5366 H   0  0  0  0  0  0  0  0  0  0  0  0
   27.2063   18.1997   17.1863 H   0  0  0  0  0  0  0  0  0  0  0  0
   26.1657   21.5362   14.9161 H   0  0  0  0  0  0  0  0  0  0  0  0
   21.4498   14.7775   15.3874 H   0  0  0  0  0  0  0  0  0  0  0  0
   19.4896   13.2823   14.5780 H   0  0  0  0  0  0  0  0  0  0  0  0
   21.0142   13.9833    9.9288 H   0  0  0  0  0  0  0  0  0  0  0  0
   22.3724   15.2314    6.2056 H   0  0  0  0  0  0  0  0  0  0  0  0
  1  2  1  0
  2  3  1  0
  3  4  2  0
  4  5  1  0
  5  6  1  0
  6  7  2  0
  6  8  2  0
  6  9  1  0
  9 10  1  0
 10 11  2  0
 11 12  1  0
 12 13  2  0
 12 14  1  0
 14 15  1  0
 15 16  1  0
 16 17  1  0
 17 18  1  0
 18 19  2  0
 18 20  1  0
 20 21  1  0
 21 22  2  0
 11 23  1  0
 23 24  2  0
 24 25  1  0
 25 26  1  0
 26 27  2  0
 27 28  1  0
  5 29  1  0
 29 30  2  0
 30  3  1  0
 28  9  2  0
 21 15  1  0
 27 23  1  0
  1 31  1  0
  1 32  1  0
  1 33  1  0
  2 34  1  0
  2 35  1  0
  4 36  1  0
 10 37  1  0
 14 38  1  0
 15 39  1  1
 16 40  1  0
 16 41  1  0
 17 42  1  0
 17 43  1  0
 20 44  1  0
 24 45  1  0
 25 46  1  0
 28 47  1  0
 29 48  1  0
M  END
>  <meeko>  (1005) 
{"is_sidechain": [true], "free_energy": -10.33, "intermolecular_energy": 0.0, "internal_energy": -10.33, "cluster_size": 20, "cluster_id": 1, "rank_in_cluster": 1}

>  <_RMSD_MCS_to_ref>  (1005) 
0.46008936330045996

$$$$
ligand
     RDKit          3D

 46 49  0  0  0  0  0  0  0  0999 V2000
   18.9090   19.1540    7.5370 C   0  0  0  0  0  0  0  0  0  0  0  0
   18.7730   17.6460    7.6780 C   0  0  0  0  0  0  0  0  0  0  0  0
   20.0940   16.9600    7.6800 C   0  0  0  0  0  0  0  0  0  0  0  0
   20.9390   16.7060    8.7420 C   0  0  0  0  0  0  0  0  0  0  0  0
   22.0180   16.0900    8.1720 N   0  0  0  0  0  0  0  0  0  0  0  0
   23.2780   15.3370    8.9970 S   0  0  0  0  0  6  0  0  0  0  0  0
   24.3300   16.3360    9.0670 O   0  0  0  0  0  0  0  0  0  0  0  0
   23.4730   14.0790    8.3010 O   0  0  0  0  0  0  0  0  0  0  0  0
   22.7220   15.0620   10.5100 O   0  0  0  0  0  0  0  0  0  0  0  0
   23.6390   14.6850   11.4580 C   0  0  0  0  0  0  0  0  0  0  0  0
   24.1390   13.3790   11.4350 C   0  0  0  0  0  0  0  0  0  0  0  0
   25.0810   12.9890   12.3840 C   0  0  0  0  0  0  0  0  0  0  0  0
   25.5200   13.9050   13.3400 C   0  0  0  0  0  0  0  0  0  0  0  0
   25.0130   15.2100   13.3320 C   0  0  0  0  0  0  0  0  0  0  0  0
   25.4430   16.2090   14.3060 C   0  0  0  0  0  0  0  0  0  0  0  0
   26.2520   15.9060   15.1780 O   0  0  0  0  0  0  0  0  0  0  0  0
   24.8840   17.4650   14.1580 N   0  0  0  0  0  0  0  0  0  0  0  0
   25.2420   18.5530   15.0660 C   0  0  1  0  0  0  0  0  0  0  0  0
   25.7720   18.0730   16.4180 C   0  0  0  0  0  0  0  0  0  0  0  0
   26.0970   19.2760   17.2890 C   0  0  0  0  0  0  0  0  0  0  0  0
   27.0750   20.2040   16.6070 C   0  0  0  0  0  0  0  0  0  0  0  0
   27.8140   20.9530   17.2370 O   0  0  0  0  0  0  0  0  0  0  0  0
   27.0450   20.2290   15.2340 N   0  0  0  0  0  0  0  0  0  0  0  0
   26.2270   19.5120   14.3890 C   0  0  0  0  0  0  0  0  0  0  0  0
   26.2480   19.7270   13.1780 O   0  0  0  0  0  0  0  0  0  0  0  0
   23.9540   17.7730   13.2040 N   0  0  0  0  0  0  0  0  0  0  0  0
   23.5620   16.9280   12.3730 N   0  0  0  0  0  0  0  0  0  0  0  0
   24.0780   15.6270   12.3990 C   0  0  0  0  0  0  0  0  0  0  0  0
   21.7770   15.9100    6.8470 C   0  0  0  0  0  0  0  0  0  0  0  0
   20.6270   16.4550    6.5100 N   0  0  0  0  0  0  0  0  0  0  0  0
   18.9504   19.6134    8.5356 H   0  0  0  0  0  0  0  0  0  0  0  0
   19.8320   19.3891    6.9867 H   0  0  0  0  0  0  0  0  0  0  0  0
   18.0430   19.5504    6.9867 H   0  0  0  0  0  0  0  0  0  0  0  0
   18.2570   17.4237    8.6237 H   0  0  0  0  0  0  0  0  0  0  0  0
   18.2018   17.2762    6.8137 H   0  0  0  0  0  0  0  0  0  0  0  0
   20.7802   16.9448    9.8040 H   0  0  0  0  0  0  0  0  0  0  0  0
   23.7911   12.6655   10.6735 H   0  0  0  0  0  0  0  0  0  0  0  0
   25.4771   11.9628   12.3796 H   0  0  0  0  0  0  0  0  0  0  0  0
   26.2603   13.6038   14.0958 H   0  0  0  0  0  0  0  0  0  0  0  0
   24.3108   19.0939   15.2900 H   0  0  0  0  0  0  0  0  0  0  0  0
   25.0077   17.4566   16.9139 H   0  0  0  0  0  0  0  0  0  0  0  0
   26.6818   17.4741   16.2644 H   0  0  0  0  0  0  0  0  0  0  0  0
   25.1683   19.8268   17.4990 H   0  0  0  0  0  0  0  0  0  0  0  0
   26.5562   18.9141   18.2207 H   0  0  0  0  0  0  0  0  0  0  0  0
   27.7180   20.8628   14.7798 H   0  0  0  0  0  0  0  0  0  0  0  0
   22.4485   15.3829    6.1533 H   0  0  0  0  0  0  0  0  0  0  0  0
  1  2  1  0
  2  3  1  0
  3  4  2  0
  4  5  1  0
  5  6  1  0
  6  7  2  0
  6  8  2  0
  6  9  1  0
  9 10  1  0
 10 11  2  0
 11 12  1  0
 12 13  2  0
 13 14  1  0
 14 15  1  0
 15 16  2  0
 15 17  1  0
 17 18  1  0
 18 19  1  0
 19 20  1  0
 20 21  1  0
 21 22  2  0
 21 23  1  0
 23 24  1  0
 24 25  2  0
 17 26  1  0
 26 27  2  0
 27 28  1  0
  5 29  1  0
 29 30  2  0
 30  3  1  0
 28 10  1  0
 28 14  2  0
 24 18  1  0
  1 31  1  0
  1 32  1  0
  1 33  1  0
  2 34  1  0
  2 35  1  0
  4 36  1  0
 11 37  1  0
 12 38  1  0
 13 39  1  0
 18 40  1  1
 19 41  1  0
 19 42  1  0
 20 43  1  0
 20 44  1  0
 23 45  1  0
 29 46  1  0
M  END
>  <meeko>  (1006) 
{"is_sidechain": [true], "free_energy": -10.33, "intermolecular_energy": 0.0, "internal_energy": -10.33, "cluster_size": 19, "cluster_id": 1, "rank_in_cluster": 1}

>  <_RMSD_MCS_to_ref>  (1006) 
0.9413117915382176

$$$$
ligand
     RDKit          3D

 42 44  0  0  0  0  0  0  0  0999 V2000
   18.9090   19.1540    7.5370 C   0  0  0  0  0  0  0  0  0  0  0  0
   18.7730   17.6460    7.6780 C   0  0  0  0  0  0  0  0  0  0  0  0
   20.0910   16.9570    7.6380 C   0  0  0  0  0  0  0  0  0  0  0  0
   20.9670   16.7000    8.6740 C   0  0  0  0  0  0  0  0  0  0  0  0
   22.0130   16.0570    8.0780 N   0  0  0  0  0  0  0  0  0  0  0  0
   23.4810   15.6980    8.7950 S   0  0  0  0  0  6  0  0  0  0  0  0
   24.3580   16.8290    8.5560 O   0  0  0  0  0  0  0  0  0  0  0  0
   23.8290   14.3480    8.3970 O   0  0  0  0  0  0  0  0  0  0  0  0
   23.2580   15.6400   10.5390 C   0  0  0  0  0  0  0  0  0  0  0  0
   23.8930   16.3740   11.4360 N   0  0  0  0  0  0  0  0  0  0  0  0
   23.3940   15.9770   12.6690 C   0  0  0  0  0  0  0  0  0  0  0  0
   23.8380   16.5610   13.9350 C   0  0  0  0  0  0  0  0  0  0  0  0
   23.6730   16.0220   15.0250 O   0  0  0  0  0  0  0  0  0  0  0  0
   24.4470   17.7800   13.7720 N   0  0  0  0  0  0  0  0  0  0  0  0
   24.8270   18.6200   14.8910 C   0  0  1  0  0  0  0  0  0  0  0  0
   25.8480   17.9350   15.7940 C   0  0  0  0  0  0  0  0  0  0  0  0
   26.2260   18.8710   16.9330 C   0  0  0  0  0  0  0  0  0  0  0  0
   26.7370   20.1920   16.4110 C   0  0  0  0  0  0  0  0  0  0  0  0
   27.5920   20.8460   17.0000 O   0  0  0  0  0  0  0  0  0  0  0  0
   26.1700   20.6560   15.2510 N   0  0  0  0  0  0  0  0  0  0  0  0
   25.4220   19.9280   14.3580 C   0  0  0  0  0  0  0  0  0  0  0  0
   25.2360   20.3340   13.2120 O   0  0  0  0  0  0  0  0  0  0  0  0
   22.4480   14.9870   12.4930 C   0  0  0  0  0  0  0  0  0  0  0  0
   22.3720   14.7840   11.1450 N   0  0  0  0  0  0  0  0  0  0  0  0
   21.7860   15.9850    6.7410 C   0  0  0  0  0  0  0  0  0  0  0  0
   20.6110   16.4980    6.4420 N   0  0  0  0  0  0  0  0  0  0  0  0
   18.9504   19.6134    8.5356 H   0  0  0  0  0  0  0  0  0  0  0  0
   19.8320   19.3891    6.9867 H   0  0  0  0  0  0  0  0  0  0  0  0
   18.0430   19.5504    6.9867 H   0  0  0  0  0  0  0  0  0  0  0  0
   18.2854   17.4225    8.6383 H   0  0  0  0  0  0  0  0  0  0  0  0
   18.1746   17.2801    6.8306 H   0  0  0  0  0  0  0  0  0  0  0  0
   20.8487   16.9553    9.7374 H   0  0  0  0  0  0  0  0  0  0  0  0
   24.6419   18.1114   12.8165 H   0  0  0  0  0  0  0  0  0  0  0  0
   23.9253   18.8183   15.4891 H   0  0  0  0  0  0  0  0  0  0  0  0
   25.4126   17.0128   16.2063 H   0  0  0  0  0  0  0  0  0  0  0  0
   26.7463   17.6868   15.2097 H   0  0  0  0  0  0  0  0  0  0  0  0
   25.3388   19.0516   17.5577 H   0  0  0  0  0  0  0  0  0  0  0  0
   27.0260   18.3971   17.5207 H   0  0  0  0  0  0  0  0  0  0  0  0
   26.3203   21.6501   15.0273 H   0  0  0  0  0  0  0  0  0  0  0  0
   21.8746   14.4693   13.2761 H   0  0  0  0  0  0  0  0  0  0  0  0
   21.7586   14.1084   10.6673 H   0  0  0  0  0  0  0  0  0  0  0  0
   22.4869   15.5572    6.0091 H   0  0  0  0  0  0  0  0  0  0  0  0
  1  2  1  0
  2  3  1  0
  3  4  2  0
  4  5  1  0
  5  6  1  0
  6  7  2  0
  6  8  2  0
  6  9  1  0
  9 10  2  0
 10 11  1  0
 11 12  1  0
 12 13  2  0
 12 14  1  0
 14 15  1  0
 15 16  1  0
 16 17  1  0
 17 18  1  0
 18 19  2  0
 18 20  1  0
 20 21  1  0
 21 22  2  0
 11 23  2  0
 23 24  1  0
  5 25  1  0
 25 26  2  0
 26  3  1  0
 24  9  1  0
 21 15  1  0
  1 27  1  0
  1 28  1  0
  1 29  1  0
  2 30  1  0
  2 31  1  0
  4 32  1  0
 14 33  1  0
 15 34  1  1
 16 35  1  0
 16 36  1  0
 17 37  1  0
 17 38  1  0
 20 39  1  0
 23 40  1  0
 24 41  1  0
 25 42  1  0
M  END
>  <meeko>  (1007) 
{"is_sidechain": [true], "free_energy": -10.33, "intermolecular_energy": 0.0, "internal_energy": -10.33, "cluster_size": 20, "cluster_id": 1, "rank_in_cluster": 1}

>  <_RMSD_MCS_to_ref>  (1007) 
0.3682526306762793

$$$$
ligand
     RDKit          3D

 48 51  0  0  0  0  0  0  0  0999 V2000
   18.9090   19.1540    7.5370 C   0  0  0  0  0  0  0  0  0  0  0  0
   18.7730   17.6460    7.6780 C   0  0  0  0  0  0  0  0  0  0  0  0
   20.0910   16.9570    7.6380 C   0  0  0  0  0  0  0  0  0  0  0  0
   21.0140   16.7880    8.6510 C   0  0  0  0  0  0  0  0  0  0  0  0
   22.0210   16.0700    8.0700 N   0  0  0  0  0  0  0  0  0  0  0  0
   23.4820   15.6700    8.7970 S   0  0  0  0  0  6  0  0  0  0  0  0
   24.3440   16.8280    8.6720 O   0  0  0  0  0  0  0  0  0  0  0  0
   23.8320   14.3840    8.2230 O   0  0  0  0  0  0  0  0  0  0  0  0
   23.1130   15.4320   10.4990 C   0  0  0  0  0  0  0  0  0  0  0  0
   23.9770   15.9320   11.4830 C   0  0  0  0  0  0  0  0  0  0  0  0
   23.6790   15.7480   12.8510 C   0  0  0  0  0  0  0  0  0  0  0  0
   24.6370   16.2850   13.8560 C   0  0  0  0  0  0  0  0  0  0  0  0
   25.2260   15.5210   14.6110 O   0  0  0  0  0  0  0  0  0  0  0  0
   24.8320   17.6470   13.8610 N   0  0  0  0  0  0  0  0  0  0  0  0
   25.8630   18.2530   14.6950 C   0  0  2  0  0  0  0  0  0  0  0  0
   25.6520   17.9640   16.1770 C   0  0  0  0  0  0  0  0  0  0  0  0
   26.7340   18.6590   16.9880 C   0  0  0  0  0  0  0  0  0  0  0  0
   26.7640   20.1430   16.7030 C   0  0  0  0  0  0  0  0  0  0  0  0
   27.0470   20.9730   17.5610 O   0  0  0  0  0  0  0  0  0  0  0  0
   26.4850   20.5270   15.4150 N   0  0  0  0  0  0  0  0  0  0  0  0
   25.8350   19.7680   14.4740 C   0  0  0  0  0  0  0  0  0  0  0  0
   25.2760   20.2890   13.5080 O   0  0  0  0  0  0  0  0  0  0  0  0
   22.5250   15.0510   13.2320 C   0  0  0  0  0  0  0  0  0  0  0  0
   21.6980   14.5800   12.2310 C   0  0  0  0  0  0  0  0  0  0  0  0
   21.9760   14.7640   10.8950 C   0  0  0  0  0  0  0  0  0  0  0  0
   21.0180   14.2190   10.1030 O   0  0  0  0  0  0  0  0  0  0  0  0
   20.1120   13.6640   11.0780 C   0  0  0  0  0  0  0  0  0  0  0  0
   20.5440   13.8890   12.4340 O   0  0  0  0  0  0  0  0  0  0  0  0
   21.7150   15.8470    6.7660 C   0  0  0  0  0  0  0  0  0  0  0  0
   20.5450   16.3770    6.4690 N   0  0  0  0  0  0  0  0  0  0  0  0
   18.9504   19.6134    8.5356 H   0  0  0  0  0  0  0  0  0  0  0  0
   19.8320   19.3891    6.9867 H   0  0  0  0  0  0  0  0  0  0  0  0
   18.0430   19.5504    6.9867 H   0  0  0  0  0  0  0  0  0  0  0  0
   18.2854   17.4225    8.6383 H   0  0  0  0  0  0  0  0  0  0  0  0
   18.1746   17.2801    6.8306 H   0  0  0  0  0  0  0  0  0  0  0  0
   20.9527   17.1488    9.6883 H   0  0  0  0  0  0  0  0  0  0  0  0
   24.8904   16.4696   11.1885 H   0  0  0  0  0  0  0  0  0  0  0  0
   24.2415   18.2468   13.2674 H   0  0  0  0  0  0  0  0  0  0  0  0
   26.8332   17.8215   14.4078 H   0  0  0  0  0  0  0  0  0  0  0  0
   24.6648   18.3377   16.4865 H   0  0  0  0  0  0  0  0  0  0  0  0
   25.7041   16.8789   16.3500 H   0  0  0  0  0  0  0  0  0  0  0  0
   26.5353   18.5034   18.0587 H   0  0  0  0  0  0  0  0  0  0  0  0
   27.7078   18.2312   16.7075 H   0  0  0  0  0  0  0  0  0  0  0  0
   26.7905   21.4682   15.1293 H   0  0  0  0  0  0  0  0  0  0  0  0
   22.2856   14.8844   14.2926 H   0  0  0  0  0  0  0  0  0  0  0  0
   19.1235   14.1272   10.9427 H   0  0  0  0  0  0  0  0  0  0  0  0
   20.0787   12.5763   10.9174 H   0  0  0  0  0  0  0  0  0  0  0  0
   22.3540   15.3006    6.0567 H   0  0  0  0  0  0  0  0  0  0  0  0
  1  2  1  0
  2  3  1  0
  3  4  2  0
  4  5  1  0
  5  6  1  0
  6  7  2  0
  6  8  2  0
  6  9  1  0
  9 10  2  0
 10 11  1  0
 11 12  1  0
 12 13  2  0
 12 14  1  0
 14 15  1  0
 15 16  1  0
 16 17  1  0
 17 18  1  0
 18 19  2  0
 18 20  1  0
 20 21  1  0
 21 22  2  0
 11 23  2  0
 23 24  1  0
 24 25  2  0
 25 26  1  0
 26 27  1  0
 27 28  1  0
  5 29  1  0
 29 30  2  0
 30  3  1  0
 25  9  1  0
 21 15  1  0
 28 24  1  0
  1 31  1  0
  1 32  1  0
  1 33  1  0
  2 34  1  0
  2 35  1  0
  4 36  1  0
 10 37  1  0
 14 38  1  0
 15 39  1  6
 16 40  1  0
 16 41  1  0
 17 42  1  0
 17 43  1  0
 20 44  1  0
 23 45  1  0
 27 46  1  0
 27 47  1  0
 29 48  1  0
M  END
>  <meeko>  (1008) 
{"is_sidechain": [true], "free_energy": -10.33, "intermolecular_energy": 0.0, "internal_energy": -10.33, "cluster_size": 19, "cluster_id": 1, "rank_in_cluster": 1}

>  <_RMSD_MCS_to_ref>  (1008) 
0.6238005379214664

$$$$
ligand
     RDKit          3D

 47 50  0  0  0  0  0  0  0  0999 V2000
   18.9090   19.1540    7.5370 C   0  0  0  0  0  0  0  0  0  0  0  0
   18.7730   17.6460    7.6780 C   0  0  0  0  0  0  0  0  0  0  0  0
   20.0560   16.9620    8.0090 C   0  0  0  0  0  0  0  0  0  0  0  0
   20.3130   16.0090    8.9750 C   0  0  0  0  0  0  0  0  0  0  0  0
   21.6400   15.7260    8.8290 N   0  0  0  0  0  0  0  0  0  0  0  0
   22.5630   14.7840    9.8680 S   0  0  0  0  0  6  0  0  0  0  0  0
   22.5180   15.4900   11.1360 O   0  0  0  0  0  0  0  0  0  0  0  0
   22.0760   13.4260    9.7270 O   0  0  0  0  0  0  0  0  0  0  0  0
   24.2290   14.8310    9.2870 C   0  0  0  0  0  0  0  0  0  0  0  0
   24.5570   14.0260    8.1820 C   0  0  0  0  0  0  0  0  0  0  0  0
   25.8520   14.0200    7.6750 C   0  0  0  0  0  0  0  0  0  0  0  0
   26.8460   14.8140    8.2520 C   0  0  0  0  0  0  0  0  0  0  0  0
   26.5060   15.6170    9.3540 C   0  0  0  0  0  0  0  0  0  0  0  0
   27.5150   16.6880   10.2530 S   0  0  0  0  0  0  0  0  0  0  0  0
   26.1930   17.0860   11.2590 C   0  0  0  0  0  0  0  0  0  0  0  0
   26.3360   18.0340   12.3640 C   0  0  0  0  0  0  0  0  0  0  0  0
   27.3170   18.7520   12.5490 O   0  0  0  0  0  0  0  0  0  0  0  0
   25.2420   18.0710   13.2160 N   0  0  0  0  0  0  0  0  0  0  0  0
   25.3150   18.7410   14.5020 C   0  0  1  0  0  0  0  0  0  0  0  0
   26.3350   18.0620   15.4050 C   0  0  0  0  0  0  0  0  0  0  0  0
   26.3940   18.7850   16.7420 C   0  0  0  0  0  0  0  0  0  0  0  0
   26.7010   20.2510   16.5570 C   0  0  0  0  0  0  0  0  0  0  0  0
   27.3430   20.8980   17.3800 O   0  0  0  0  0  0  0  0  0  0  0  0
   26.1910   20.8490   15.4330 N   0  0  0  0  0  0  0  0  0  0  0  0
   25.7090   20.2140   14.3120 C   0  0  0  0  0  0  0  0  0  0  0  0
   25.5950   20.8270   13.2520 O   0  0  0  0  0  0  0  0  0  0  0  0
   25.0540   16.4890   10.9680 N   0  0  0  0  0  0  0  0  0  0  0  0
   25.2120   15.6420    9.8840 C   0  0  0  0  0  0  0  0  0  0  0  0
   22.1380   16.4520    7.7930 C   0  0  0  0  0  0  0  0  0  0  0  0
   21.2090   17.2470    7.2960 N   0  0  0  0  0  0  0  0  0  0  0  0
   18.9504   19.6134    8.5356 H   0  0  0  0  0  0  0  0  0  0  0  0
   19.8320   19.3891    6.9867 H   0  0  0  0  0  0  0  0  0  0  0  0
   18.0430   19.5504    6.9867 H   0  0  0  0  0  0  0  0  0  0  0  0
   18.0491   17.4350    8.4789 H   0  0  0  0  0  0  0  0  0  0  0  0
   18.4414   17.2583    6.7035 H   0  0  0  0  0  0  0  0  0  0  0  0
   19.6071   15.5757    9.6989 H   0  0  0  0  0  0  0  0  0  0  0  0
   23.7845   13.3970    7.7155 H   0  0  0  0  0  0  0  0  0  0  0  0
   26.0959   13.3839    6.8113 H   0  0  0  0  0  0  0  0  0  0  0  0
   27.8711   14.8107    7.8530 H   0  0  0  0  0  0  0  0  0  0  0  0
   24.3631   17.6155   12.9316 H   0  0  0  0  0  0  0  0  0  0  0  0
   24.3227   18.6832   14.9732 H   0  0  0  0  0  0  0  0  0  0  0  0
   26.0401   17.0148   15.5678 H   0  0  0  0  0  0  0  0  0  0  0  0
   27.3254   18.0957   14.9275 H   0  0  0  0  0  0  0  0  0  0  0  0
   25.4227   18.6830   17.2482 H   0  0  0  0  0  0  0  0  0  0  0  0
   27.1956   18.3350   17.3461 H   0  0  0  0  0  0  0  0  0  0  0  0
   26.1664   21.8787   15.4277 H   0  0  0  0  0  0  0  0  0  0  0  0
   23.1710   16.3860    7.4209 H   0  0  0  0  0  0  0  0  0  0  0  0
  1  2  1  0
  2  3  1  0
  3  4  2  0
  4  5  1  0
  5  6  1  0
  6  7  2  0
  6  8  2  0
  6  9  1  0
  9 10  2  0
 10 11  1  0
 11 12  2  0
 12 13  1  0
 13 14  1  0
 14 15  1  0
 15 16  1  0
 16 17  2  0
 16 18  1  0
 18 19  1  0
 19 20  1  0
 20 21  1  0
 21 22  1  0
 22 23  2  0
 22 24  1  0
 24 25  1  0
 25 26  2  0
 15 27  2  0
 27 28  1  0
  5 29  1  0
 29 30  2  0
 30  3  1  0
 28  9  1  0
 28 13  2  0
 25 19  1  0
  1 31  1  0
  1 32  1  0
  1 33  1  0
  2 34  1  0
  2 35  1  0
  4 36  1  0
 10 37  1  0
 11 38  1  0
 12 39  1  0
 18 40  1  0
 19 41  1  1
 20 42  1  0
 20 43  1  0
 21 44  1  0
 21 45  1  0
 24 46  1  0
 29 47  1  0
M  END
>  <meeko>  (1009) 
{"is_sidechain": [true], "free_energy": -10.33, "intermolecular_energy": 0.0, "internal_energy": -10.33, "cluster_size": 6, "cluster_id": 1, "rank_in_cluster": 1}

>  <_RMSD_MCS_to_ref>  (1009) 
0.6586196845592222

$$$$
ligand
     RDKit          3D

 52 56  0  0  0  0  0  0  0  0999 V2000
   18.9090   19.1540    7.5370 C   0  0  0  0  0  0  0  0  0  0  0  0
   18.7730   17.6460    7.6780 C   0  0  0  0  0  0  0  0  0  0  0  0
   19.9620   16.9240    7.1470 C   0  0  0  0  0  0  0  0  0  0  0  0
   20.3380   15.6100    7.3410 C   0  0  0  0  0  0  0  0  0  0  0  0
   21.4910   15.4850    6.6210 N   0  0  0  0  0  0  0  0  0  0  0  0
   22.3750   14.0710    6.4250 S   0  0  0  0  0  6  0  0  0  0  0  0
   21.7270   13.0530    7.2280 O   0  0  0  0  0  0  0  0  0  0  0  0
   22.5200   13.9350    4.9870 O   0  0  0  0  0  0  0  0  0  0  0  0
   23.9660   14.4330    7.1240 C   0  0  0  0  0  0  0  0  0  0  0  0
   25.0760   14.1800    6.3150 C   0  0  0  0  0  0  0  0  0  0  0  0
   26.3160   14.5060    6.8070 C   0  0  0  0  0  0  0  0  0  0  0  0
   26.5060   15.0560    8.0210 N   0  0  0  0  0  0  0  0  0  0  0  0
   25.4440   15.2760    8.8120 C   0  0  0  0  0  0  0  0  0  0  0  0
   25.6930   15.8280   10.0620 C   0  0  0  0  0  0  0  0  0  0  0  0
   24.6750   16.0970   10.9830 C   0  0  0  0  0  0  0  0  0  0  0  0
   24.9430   16.6750   12.2870 C   0  0  0  0  0  0  0  0  0  0  0  0
   24.3170   17.7540   12.8730 C   0  0  0  0  0  0  0  0  0  0  0  0
   24.9440   17.8860   14.0800 N   0  0  0  0  0  0  0  0  0  0  0  0
   24.6660   18.8520   15.1230 C   0  0  1  0  0  0  0  0  0  0  0  0
   25.1440   18.4310   16.5150 C   0  0  0  0  0  0  0  0  0  0  0  0
   26.6430   18.6130   16.7000 C   0  0  0  0  0  0  0  0  0  0  0  0
   27.0910   20.0000   16.3080 C   0  0  0  0  0  0  0  0  0  0  0  0
   28.0580   20.5500   16.8290 O   0  0  0  0  0  0  0  0  0  0  0  0
   26.3770   20.6210   15.3150 N   0  0  0  0  0  0  0  0  0  0  0  0
   25.1970   20.2170   14.7390 C   0  0  0  0  0  0  0  0  0  0  0  0
   24.6070   20.9500   13.9470 O   0  0  0  0  0  0  0  0  0  0  0  0
   25.8890   16.9470   14.2420 N   0  0  0  0  0  0  0  0  0  0  0  0
   25.8990   16.1970   13.1490 N   0  0  0  0  0  0  0  0  0  0  0  0
   23.3660   15.7850   10.6200 C   0  0  0  0  0  0  0  0  0  0  0  0
   23.0900   15.2290    9.3680 C   0  0  0  0  0  0  0  0  0  0  0  0
   24.1200   14.9740    8.4270 C   0  0  0  0  0  0  0  0  0  0  0  0
   21.7990   16.6780    6.0550 C   0  0  0  0  0  0  0  0  0  0  0  0
   20.8760   17.5740    6.3410 N   0  0  0  0  0  0  0  0  0  0  0  0
   18.9504   19.6134    8.5356 H   0  0  0  0  0  0  0  0  0  0  0  0
   19.8320   19.3891    6.9867 H   0  0  0  0  0  0  0  0  0  0  0  0
   18.0430   19.5504    6.9867 H   0  0  0  0  0  0  0  0  0  0  0  0
   18.6545   17.3987    8.7433 H   0  0  0  0  0  0  0  0  0  0  0  0
   17.8960   17.3291    7.0945 H   0  0  0  0  0  0  0  0  0  0  0  0
   19.8264   14.8409    7.9382 H   0  0  0  0  0  0  0  0  0  0  0  0
   24.9607   13.7340    5.3161 H   0  0  0  0  0  0  0  0  0  0  0  0
   27.1969   14.3081    6.1786 H   0  0  0  0  0  0  0  0  0  0  0  0
   26.7314   16.0629   10.3386 H   0  0  0  0  0  0  0  0  0  0  0  0
   23.5009   18.3674   12.4635 H   0  0  0  0  0  0  0  0  0  0  0  0
   23.5703   18.9038   15.2054 H   0  0  0  0  0  0  0  0  0  0  0  0
   24.6200   19.0401   17.2663 H   0  0  0  0  0  0  0  0  0  0  0  0
   24.9218   17.3602   16.6332 H   0  0  0  0  0  0  0  0  0  0  0  0
   26.8947   18.4429   17.7572 H   0  0  0  0  0  0  0  0  0  0  0  0
   27.1583   17.8904   16.0501 H   0  0  0  0  0  0  0  0  0  0  0  0
   26.7755   21.5004   14.9562 H   0  0  0  0  0  0  0  0  0  0  0  0
   22.5436   15.9780   11.3246 H   0  0  0  0  0  0  0  0  0  0  0  0
   22.0502   14.9835    9.1064 H   0  0  0  0  0  0  0  0  0  0  0  0
   22.6929   16.8707    5.4436 H   0  0  0  0  0  0  0  0  0  0  0  0
  1  2  1  0
  2  3  1  0
  3  4  2  0
  4  5  1  0
  5  6  1  0
  6  7  2  0
  6  8  2  0
  6  9  1  0
  9 10  2  0
 10 11  1  0
 11 12  2  0
 12 13  1  0
 13 14  2  0
 14 15  1  0
 15 16  1  0
 16 17  2  0
 17 18  1  0
 18 19  1  0
 19 20  1  0
 20 21  1  0
 21 22  1  0
 22 23  2  0
 22 24  1  0
 24 25  1  0
 25 26  2  0
 18 27  1  0
 27 28  2  0
 15 29  2  0
 29 30  1  0
 30 31  2  0
  5 32  1  0
 32 33  2  0
 33  3  1  0
 31  9  1  0
 31 13  1  0
 28 16  1  0
 25 19  1  0
  1 34  1  0
  1 35  1  0
  1 36  1  0
  2 37  1  0
  2 38  1  0
  4 39  1  0
 10 40  1  0
 11 41  1  0
 14 42  1  0
 17 43  1  0
 19 44  1  1
 20 45  1  0
 20 46  1  0
 21 47  1  0
 21 48  1  0
 24 49  1  0
 29 50  1  0
 30 51  1  0
 32 52  1  0
M  END
>  <meeko>  (1010) 
{"is_sidechain": [true], "free_energy": -10.33, "intermolecular_energy": 0.0, "internal_energy": -10.33, "cluster_size": 20, "cluster_id": 1, "rank_in_cluster": 1}

>  <_RMSD_MCS_to_ref>  (1010) 
0.7536558306754563

$$$$
ligand
     RDKit          3D

 53 57  0  0  0  0  0  0  0  0999 V2000
   18.9090   19.1540    7.5370 C   0  0  0  0  0  0  0  0  0  0  0  0
   18.7730   17.6460    7.6780 C   0  0  0  0  0  0  0  0  0  0  0  0
   20.0660   16.9430    7.4630 C   0  0  0  0  0  0  0  0  0  0  0  0
   20.6120   15.8900    8.1700 C   0  0  0  0  0  0  0  0  0  0  0  0
   21.7930   15.6360    7.5360 N   0  0  0  0  0  0  0  0  0  0  0  0
   22.9990   14.6030    8.0820 S   0  0  0  0  0  6  0  0  0  0  0  0
   24.1780   14.9080    7.2960 O   0  0  0  0  0  0  0  0  0  0  0  0
   22.4080   13.2780    8.1140 O   0  0  0  0  0  0  0  0  0  0  0  0
   23.2760   15.1260    9.7530 C   0  0  0  0  0  0  0  0  0  0  0  0
   24.4200   15.8610   10.0610 C   0  0  0  0  0  0  0  0  0  0  0  0
   24.5800   16.2270   11.3820 C   0  0  0  0  0  0  0  0  0  0  0  0
   23.6660   15.8950   12.3870 C   0  0  0  0  0  0  0  0  0  0  0  0
   22.5310   15.1520   12.0880 C   0  0  0  0  0  0  0  0  0  0  0  0
   21.5600   14.7870   13.1080 C   0  0  0  0  0  0  0  0  0  0  0  0
   21.6890   14.5830   14.4670 C   0  0  0  0  0  0  0  0  0  0  0  0
   20.3990   14.2490   14.9170 C   0  0  0  0  0  0  0  0  0  0  0  0
   19.5080   14.2330   13.9260 N   0  0  0  0  0  0  0  0  0  0  0  0
   20.2290   14.5690   12.8440 N   0  0  0  0  0  0  0  0  0  0  0  0
   22.3440   14.7630   10.7510 C   0  0  0  0  0  0  0  0  0  0  0  0
   24.1420   16.4450   13.6940 C   0  0  0  0  0  0  0  0  0  0  0  0
   25.4310   17.0310   13.3490 N   0  0  0  0  0  0  0  0  0  0  0  0
   26.1660   17.9280   14.2350 C   0  0  2  0  0  0  0  0  0  0  0  0
   25.8520   17.6860   15.7080 C   0  0  0  0  0  0  0  0  0  0  0  0
   26.7160   18.5980   16.5650 C   0  0  0  0  0  0  0  0  0  0  0  0
   26.5320   20.0460   16.1770 C   0  0  0  0  0  0  0  0  0  0  0  0
   26.5450   20.9550   17.0020 O   0  0  0  0  0  0  0  0  0  0  0  0
   26.3630   20.3070   14.8410 N   0  0  0  0  0  0  0  0  0  0  0  0
   25.9030   19.4080   13.9060 C   0  0  0  0  0  0  0  0  0  0  0  0
   25.3160   19.8010   12.9010 O   0  0  0  0  0  0  0  0  0  0  0  0
   25.6730   16.9930   11.9870 C   0  0  0  0  0  0  0  0  0  0  0  0
   26.5970   17.4850   11.3710 O   0  0  0  0  0  0  0  0  0  0  0  0
   21.9600   16.5310    6.5290 C   0  0  0  0  0  0  0  0  0  0  0  0
   20.9200   17.3340    6.4500 N   0  0  0  0  0  0  0  0  0  0  0  0
   18.9504   19.6134    8.5356 H   0  0  0  0  0  0  0  0  0  0  0  0
   19.8320   19.3891    6.9867 H   0  0  0  0  0  0  0  0  0  0  0  0
   18.0430   19.5504    6.9867 H   0  0  0  0  0  0  0  0  0  0  0  0
   18.4088   17.4162    8.6902 H   0  0  0  0  0  0  0  0  0  0  0  0
   18.0670   17.2972    6.9099 H   0  0  0  0  0  0  0  0  0  0  0  0
   20.1907   15.3736    9.0451 H   0  0  0  0  0  0  0  0  0  0  0  0
   25.1566   16.1349    9.2913 H   0  0  0  0  0  0  0  0  0  0  0  0
   22.6056   14.6643   15.0698 H   0  0  0  0  0  0  0  0  0  0  0  0
   20.1537   14.0266   15.9660 H   0  0  0  0  0  0  0  0  0  0  0  0
   19.8215   14.6555   11.9020 H   0  0  0  0  0  0  0  0  0  0  0  0
   21.4602   14.1679   10.4775 H   0  0  0  0  0  0  0  0  0  0  0  0
   23.4498   17.2089   14.0778 H   0  0  0  0  0  0  0  0  0  0  0  0
   24.2077   15.6858   14.4873 H   0  0  0  0  0  0  0  0  0  0  0  0
   27.2280   17.7006   14.0604 H   0  0  0  0  0  0  0  0  0  0  0  0
   24.7902   17.9021   15.8972 H   0  0  0  0  0  0  0  0  0  0  0  0
   26.0623   16.6363   15.9609 H   0  0  0  0  0  0  0  0  0  0  0  0
   26.4349   18.4708   17.6208 H   0  0  0  0  0  0  0  0  0  0  0  0
   27.7706   18.3266   16.4095 H   0  0  0  0  0  0  0  0  0  0  0  0
   26.5998   21.2534   14.5105 H   0  0  0  0  0  0  0  0  0  0  0  0
   22.8406   16.5785    5.8715 H   0  0  0  0  0  0  0  0  0  0  0  0
  1  2  1  0
  2  3  1  0
  3  4  2  0
  4  5  1  0
  5  6  1  0
  6  7  2  0
  6  8  2  0
  6  9  1  0
  9 10  2  0
 10 11  1  0
 11 12  2  0
 12 13  1  0
 13 14  1  0
 14 15  2  0
 15 16  1  0
 16 17  2  0
 17 18  1  0
 13 19  2  0
 12 20  1  0
 20 21  1  0
 21 22  1  0
 22 23  1  0
 23 24  1  0
 24 25  1  0
 25 26  2  0
 25 27  1  0
 27 28  1  0
 28 29  2  0
 21 30  1  0
 30 31  2  0
  5 32  1  0
 32 33  2  0
 33  3  1  0
 19  9  1  0
 28 22  1  0
 30 11  1  0
 18 14  1  0
  1 34  1  0
  1 35  1  0
  1 36  1  0
  2 37  1  0
  2 38  1  0
  4 39  1  0
 10 40  1  0
 15 41  1  0
 16 42  1  0
 18 43  1  0
 19 44  1  0
 20 45  1  0
 20 46  1  0
 22 47  1  1
 23 48  1  0
 23 49  1  0
 24 50  1  0
 24 51  1  0
 27 52  1  0
 32 53  1  0
M  END
>  <meeko>  (1011) 
{"is_sidechain": [true], "free_energy": -10.33, "intermolecular_energy": 0.0, "internal_energy": -10.33, "cluster_size": 18, "cluster_id": 1, "rank_in_cluster": 1}

>  <_RMSD_MCS_to_ref>  (1011) 
1.9817945991785657

$$$$
ligand
     RDKit          3D

 45 48  0  0  0  0  0  0  0  0999 V2000
   18.9090   19.1540    7.5370 C   0  0  0  0  0  0  0  0  0  0  0  0
   18.7730   17.6460    7.6780 C   0  0  0  0  0  0  0  0  0  0  0  0
   20.0880   16.9530    7.5940 C   0  0  0  0  0  0  0  0  0  0  0  0
   20.9640   16.6270    8.6100 C   0  0  0  0  0  0  0  0  0  0  0  0
   21.9840   15.9770    7.9770 N   0  0  0  0  0  0  0  0  0  0  0  0
   23.4200   15.4700    8.6710 S   0  0  0  0  0  6  0  0  0  0  0  0
   23.5580   14.0610    8.3610 O   0  0  0  0  0  0  0  0  0  0  0  0
   24.4170   16.4640    8.3240 O   0  0  0  0  0  0  0  0  0  0  0  0
   23.2790   15.5510   10.3910 C   0  0  0  0  0  0  0  0  0  0  0  0
   22.7970   14.5490   11.2020 C   0  0  0  0  0  0  0  0  0  0  0  0
   22.8850   15.0360   12.4750 N   0  0  0  0  0  0  0  0  0  0  0  0
   22.5040   14.3540   13.5830 N   0  0  0  0  0  0  0  0  0  0  0  0
   22.6930   15.0300   14.6680 C   0  0  0  0  0  0  0  0  0  0  0  0
   23.2550   16.3940   14.7560 C   0  0  0  0  0  0  0  0  0  0  0  0
   23.6180   17.0310   13.6270 C   0  0  0  0  0  0  0  0  0  0  0  0
   24.1590   18.3120   13.6980 N   0  0  0  0  0  0  0  0  0  0  0  0
   25.4150   18.6960   14.3570 C   0  0  2  0  0  0  0  0  0  0  0  0
   25.4300   18.1860   15.7950 C   0  0  0  0  0  0  0  0  0  0  0  0
   26.6960   18.6640   16.4910 C   0  0  0  0  0  0  0  0  0  0  0  0
   26.7980   20.1680   16.4570 C   0  0  0  0  0  0  0  0  0  0  0  0
   27.2690   20.8260   17.3790 O   0  0  0  0  0  0  0  0  0  0  0  0
   26.3600   20.7810   15.3100 N   0  0  0  0  0  0  0  0  0  0  0  0
   25.5090   20.2330   14.3840 C   0  0  0  0  0  0  0  0  0  0  0  0
   24.8550   20.9510   13.6250 O   0  0  0  0  0  0  0  0  0  0  0  0
   23.4230   16.3160   12.3960 C   0  0  0  0  0  0  0  0  0  0  0  0
   23.6590   16.6510   11.1360 N   0  0  0  0  0  0  0  0  0  0  0  0
   21.7520   15.9830    6.6390 C   0  0  0  0  0  0  0  0  0  0  0  0
   20.5980   16.5600    6.3720 N   0  0  0  0  0  0  0  0  0  0  0  0
   18.9504   19.6134    8.5356 H   0  0  0  0  0  0  0  0  0  0  0  0
   19.8320   19.3891    6.9867 H   0  0  0  0  0  0  0  0  0  0  0  0
   18.0430   19.5504    6.9867 H   0  0  0  0  0  0  0  0  0  0  0  0
   18.3155   17.4211    8.6528 H   0  0  0  0  0  0  0  0  0  0  0  0
   18.1468   17.2842    6.8492 H   0  0  0  0  0  0  0  0  0  0  0  0
   20.8631   16.8419    9.6841 H   0  0  0  0  0  0  0  0  0  0  0  0
   22.4203   13.5636   10.8906 H   0  0  0  0  0  0  0  0  0  0  0  0
   22.4093   14.5452   15.6138 H   0  0  0  0  0  0  0  0  0  0  0  0
   23.3754   16.8835   15.7337 H   0  0  0  0  0  0  0  0  0  0  0  0
   23.6252   19.0662   13.2429 H   0  0  0  0  0  0  0  0  0  0  0  0
   26.2613   18.2615   13.8048 H   0  0  0  0  0  0  0  0  0  0  0  0
   24.5497   18.5720   16.3299 H   0  0  0  0  0  0  0  0  0  0  0  0
   25.4059   17.0863   15.7937 H   0  0  0  0  0  0  0  0  0  0  0  0
   26.6789   18.3285   17.5384 H   0  0  0  0  0  0  0  0  0  0  0  0
   27.5651   18.2424   15.9647 H   0  0  0  0  0  0  0  0  0  0  0  0
   26.7000   21.7362   15.1285 H   0  0  0  0  0  0  0  0  0  0  0  0
   22.4328   15.5644    5.8832 H   0  0  0  0  0  0  0  0  0  0  0  0
  1  2  1  0
  2  3  1  0
  3  4  2  0
  4  5  1  0
  5  6  1  0
  6  7  2  0
  6  8  2  0
  6  9  1  0
  9 10  2  0
 10 11  1  0
 11 12  1  0
 12 13  2  0
 13 14  1  0
 14 15  2  0
 15 16  1  0
 16 17  1  0
 17 18  1  0
 18 19  1  0
 19 20  1  0
 20 21  2  0
 20 22  1  0
 22 23  1  0
 23 24  2  0
 15 25  1  0
 25 26  2  0
  5 27  1  0
 27 28  2  0
 28  3  1  0
 26  9  1  0
 25 11  1  0
 23 17  1  0
  1 29  1  0
  1 30  1  0
  1 31  1  0
  2 32  1  0
  2 33  1  0
  4 34  1  0
 10 35  1  0
 13 36  1  0
 14 37  1  0
 16 38  1  0
 17 39  1  6
 18 40  1  0
 18 41  1  0
 19 42  1  0
 19 43  1  0
 22 44  1  0
 27 45  1  0
M  END
>  <meeko>  (1012) 
{"is_sidechain": [true], "free_energy": -10.33, "intermolecular_energy": 0.0, "internal_energy": -10.33, "cluster_size": 20, "cluster_id": 1, "rank_in_cluster": 1}

>  <_RMSD_MCS_to_ref>  (1012) 
0.6530348808107856

$$$$
ligand
     RDKit          3D

 44 47  0  0  0  0  0  0  0  0999 V2000
   18.9090   19.1540    7.5370 C   0  0  0  0  0  0  0  0  0  0  0  0
   18.7730   17.6460    7.6780 C   0  0  0  0  0  0  0  0  0  0  0  0
   20.0300   17.0100    8.1570 C   0  0  0  0  0  0  0  0  0  0  0  0
   20.2030   16.0640    9.1480 C   0  0  0  0  0  0  0  0  0  0  0  0
   21.5480   15.8220    9.1520 N   0  0  0  0  0  0  0  0  0  0  0  0
   22.3860   14.9100   10.2920 S   0  0  0  0  0  6  0  0  0  0  0  0
   21.4260   14.7070   11.3650 O   0  0  0  0  0  0  0  0  0  0  0  0
   22.9680   13.8090    9.5460 O   0  0  0  0  0  0  0  0  0  0  0  0
   23.6760   16.0140   10.8340 C   0  0  0  0  0  0  0  0  0  0  0  0
   23.4900   16.5740   12.0520 N   0  0  0  0  0  0  0  0  0  0  0  0
   24.4570   17.3860   12.5380 C   0  0  0  0  0  0  0  0  0  0  0  0
   24.3020   17.9900   13.7790 N   0  0  0  0  0  0  0  0  0  0  0  0
   25.5120   18.4440   14.4810 C   0  0  2  0  0  0  0  0  0  0  0  0
   25.4150   18.0890   15.9620 C   0  0  0  0  0  0  0  0  0  0  0  0
   26.6060   18.6620   16.7140 C   0  0  0  0  0  0  0  0  0  0  0  0
   26.7000   20.1560   16.5250 C   0  0  0  0  0  0  0  0  0  0  0  0
   27.1100   20.9110   17.4020 O   0  0  0  0  0  0  0  0  0  0  0  0
   26.3340   20.6390   15.2950 N   0  0  0  0  0  0  0  0  0  0  0  0
   25.6150   19.9720   14.3360 C   0  0  0  0  0  0  0  0  0  0  0  0
   25.0860   20.5800   13.4040 O   0  0  0  0  0  0  0  0  0  0  0  0
   25.5890   17.5980   11.7340 C   0  0  0  0  0  0  0  0  0  0  0  0
   26.7950   18.3300   11.7880 C   0  0  0  0  0  0  0  0  0  0  0  0
   27.5550   18.1630   10.7000 N   0  0  0  0  0  0  0  0  0  0  0  0
   26.8250   17.3240    9.9370 N   0  0  0  0  0  0  0  0  0  0  0  0
   25.6410   16.9560   10.5090 C   0  0  0  0  0  0  0  0  0  0  0  0
   24.7180   16.1360    9.9840 N   0  0  0  0  0  0  0  0  0  0  0  0
   22.1450   16.6170    8.2260 C   0  0  0  0  0  0  0  0  0  0  0  0
   21.2490   17.3580    7.6060 N   0  0  0  0  0  0  0  0  0  0  0  0
   18.9504   19.6134    8.5356 H   0  0  0  0  0  0  0  0  0  0  0  0
   19.8320   19.3891    6.9867 H   0  0  0  0  0  0  0  0  0  0  0  0
   18.0430   19.5504    6.9867 H   0  0  0  0  0  0  0  0  0  0  0  0
   17.9697   17.4286    8.3973 H   0  0  0  0  0  0  0  0  0  0  0  0
   18.5435   17.2335    6.6844 H   0  0  0  0  0  0  0  0  0  0  0  0
   19.4333   15.6088    9.7885 H   0  0  0  0  0  0  0  0  0  0  0  0
   23.3682   18.1161   14.1950 H   0  0  0  0  0  0  0  0  0  0  0  0
   26.3980   17.9552   14.0496 H   0  0  0  0  0  0  0  0  0  0  0  0
   24.4865   18.5082   16.3769 H   0  0  0  0  0  0  0  0  0  0  0  0
   25.4121   16.9944   16.0712 H   0  0  0  0  0  0  0  0  0  0  0  0
   26.4938   18.4418   17.7859 H   0  0  0  0  0  0  0  0  0  0  0  0
   27.5233   18.2014   16.3186 H   0  0  0  0  0  0  0  0  0  0  0  0
   26.6287   21.5996   15.0683 H   0  0  0  0  0  0  0  0  0  0  0  0
   27.0798   18.9704   12.6358 H   0  0  0  0  0  0  0  0  0  0  0  0
   27.1314   16.9925    9.0112 H   0  0  0  0  0  0  0  0  0  0  0  0
   23.2257   16.6390    8.0222 H   0  0  0  0  0  0  0  0  0  0  0  0
  1  2  1  0
  2  3  1  0
  3  4  2  0
  4  5  1  0
  5  6  1  0
  6  7  2  0
  6  8  2  0
  6  9  1  0
  9 10  2  0
 10 11  1  0
 11 12  1  0
 12 13  1  0
 13 14  1  0
 14 15  1  0
 15 16  1  0
 16 17  2  0
 16 18  1  0
 18 19  1  0
 19 20  2  0
 11 21  2  0
 21 22  1  0
 22 23  2  0
 23 24  1  0
 24 25  1  0
 25 26  2  0
  5 27  1  0
 27 28  2  0
 28  3  1  0
 26  9  1  0
 19 13  1  0
 25 21  1  0
  1 29  1  0
  1 30  1  0
  1 31  1  0
  2 32  1  0
  2 33  1  0
  4 34  1  0
 12 35  1  0
 13 36  1  6
 14 37  1  0
 14 38  1  0
 15 39  1  0
 15 40  1  0
 18 41  1  0
 22 42  1  0
 24 43  1  0
 27 44  1  0
M  END
>  <meeko>  (1013) 
{"is_sidechain": [true], "free_energy": -10.33, "intermolecular_energy": 0.0, "internal_energy": -10.33, "cluster_size": 4, "cluster_id": 1, "rank_in_cluster": 1}

>  <_RMSD_MCS_to_ref>  (1013) 
0.5408865151048067

$$$$
ligand
     RDKit          3D

 47 50  0  0  0  0  0  0  0  0999 V2000
   18.9090   19.1540    7.5370 C   0  0  0  0  0  0  0  0  0  0  0  0
   18.7730   17.6460    7.6780 C   0  0  0  0  0  0  0  0  0  0  0  0
   19.8800   16.9160    7.0020 C   0  0  0  0  0  0  0  0  0  0  0  0
   21.1840   16.7360    7.4190 C   0  0  0  0  0  0  0  0  0  0  0  0
   21.7640   16.0190    6.4120 N   0  0  0  0  0  0  0  0  0  0  0  0
   23.2620   15.2450    6.4940 S   0  0  0  0  0  6  0  0  0  0  0  0
   23.0480   13.9820    5.8120 O   0  0  0  0  0  0  0  0  0  0  0  0
   24.1990   16.2220    5.9720 O   0  0  0  0  0  0  0  0  0  0  0  0
   23.5770   14.9830    8.1560 C   0  0  0  0  0  0  0  0  0  0  0  0
   23.5610   13.6200    8.7370 C   0  0  0  0  0  0  0  0  0  0  0  0
   23.8150   13.3240    9.9780 N   0  0  0  0  0  0  0  0  0  0  0  0
   24.1040   14.3820   10.7980 C   0  0  0  0  0  0  0  0  0  0  0  0
   24.4110   14.4470   12.1340 C   0  0  0  0  0  0  0  0  0  0  0  0
   24.6090   15.8190   12.4160 C   0  0  0  0  0  0  0  0  0  0  0  0
   24.9540   16.4080   13.7180 C   0  0  0  0  0  0  0  0  0  0  0  0
   25.0620   15.7460   14.7450 O   0  0  0  0  0  0  0  0  0  0  0  0
   25.1310   17.7700   13.6770 N   0  0  0  0  0  0  0  0  0  0  0  0
   25.2980   18.5720   14.8720 C   0  0  1  0  0  0  0  0  0  0  0  0
   26.2990   17.9520   15.8420 C   0  0  0  0  0  0  0  0  0  0  0  0
   26.4500   18.8480   17.0610 C   0  0  0  0  0  0  0  0  0  0  0  0
   26.8480   20.2500   16.6650 C   0  0  0  0  0  0  0  0  0  0  0  0
   27.5670   20.9540   17.3680 O   0  0  0  0  0  0  0  0  0  0  0  0
   26.3340   20.7240   15.4840 N   0  0  0  0  0  0  0  0  0  0  0  0
   25.7860   19.9710   14.4760 C   0  0  0  0  0  0  0  0  0  0  0  0
   25.6830   20.4210   13.3360 O   0  0  0  0  0  0  0  0  0  0  0  0
   24.4370   16.5770   11.3150 N   0  0  0  0  0  0  0  0  0  0  0  0
   24.1270   15.7010   10.3350 N   0  0  0  0  0  0  0  0  0  0  0  0
   23.8610   15.9840    9.0010 C   0  0  0  0  0  0  0  0  0  0  0  0
   20.8250   15.7380    5.4710 C   0  0  0  0  0  0  0  0  0  0  0  0
   19.6710   16.2790    5.7970 N   0  0  0  0  0  0  0  0  0  0  0  0
   18.9504   19.6134    8.5356 H   0  0  0  0  0  0  0  0  0  0  0  0
   19.8320   19.3891    6.9867 H   0  0  0  0  0  0  0  0  0  0  0  0
   18.0430   19.5504    6.9867 H   0  0  0  0  0  0  0  0  0  0  0  0
   18.7797   17.3882    8.7473 H   0  0  0  0  0  0  0  0  0  0  0  0
   17.8290   17.3459    7.1997 H   0  0  0  0  0  0  0  0  0  0  0  0
   21.6497   17.0898    8.3506 H   0  0  0  0  0  0  0  0  0  0  0  0
   23.3133   12.7878    8.0616 H   0  0  0  0  0  0  0  0  0  0  0  0
   24.4873   13.6064   12.8394 H   0  0  0  0  0  0  0  0  0  0  0  0
   25.1455   18.2394   12.7603 H   0  0  0  0  0  0  0  0  0  0  0  0
   24.3235   18.6262   15.3793 H   0  0  0  0  0  0  0  0  0  0  0  0
   25.9378   16.9621   16.1577 H   0  0  0  0  0  0  0  0  0  0  0  0
   27.2737   17.8465   15.3432 H   0  0  0  0  0  0  0  0  0  0  0  0
   25.4912   18.8860   17.5988 H   0  0  0  0  0  0  0  0  0  0  0  0
   27.2398   18.4309   17.7030 H   0  0  0  0  0  0  0  0  0  0  0  0
   26.3623   21.7435   15.3403 H   0  0  0  0  0  0  0  0  0  0  0  0
   23.8833   17.0230    8.6406 H   0  0  0  0  0  0  0  0  0  0  0  0
   21.0045   15.1419    4.5641 H   0  0  0  0  0  0  0  0  0  0  0  0
  1  2  1  0
  2  3  1  0
  3  4  2  0
  4  5  1  0
  5  6  1  0
  6  7  2  0
  6  8  2  0
  6  9  1  0
  9 10  1  0
 10 11  2  0
 11 12  1  0
 12 13  2  0
 13 14  1  0
 14 15  1  0
 15 16  2  0
 15 17  1  0
 17 18  1  0
 18 19  1  0
 19 20  1  0
 20 21  1  0
 21 22  2  0
 21 23  1  0
 23 24  1  0
 24 25  2  0
 14 26  2  0
 26 27  1  0
 27 28  1  0
  5 29  1  0
 29 30  2  0
 30  3  1  0
 28  9  2  0
 27 12  1  0
 24 18  1  0
  1 31  1  0
  1 32  1  0
  1 33  1  0
  2 34  1  0
  2 35  1  0
  4 36  1  0
 10 37  1  0
 13 38  1  0
 17 39  1  0
 18 40  1  1
 19 41  1  0
 19 42  1  0
 20 43  1  0
 20 44  1  0
 23 45  1  0
 28 46  1  0
 29 47  1  0
M  END
>  <meeko>  (1014) 
{"is_sidechain": [true], "free_energy": -10.32, "intermolecular_energy": 0.0, "internal_energy": -10.32, "cluster_size": 16, "cluster_id": 1, "rank_in_cluster": 1}

>  <_RMSD_MCS_to_ref>  (1014) 
0.5914687932032703

$$$$
ligand
     RDKit          3D

 50 53  0  0  0  0  0  0  0  0999 V2000
   18.9090   19.1540    7.5370 C   0  0  0  0  0  0  0  0  0  0  0  0
   18.7730   17.6460    7.6780 C   0  0  0  0  0  0  0  0  0  0  0  0
   20.0930   16.9600    7.6710 C   0  0  0  0  0  0  0  0  0  0  0  0
   21.0100   16.8300    8.6950 C   0  0  0  0  0  0  0  0  0  0  0  0
   22.0410   16.1310    8.1340 N   0  0  0  0  0  0  0  0  0  0  0  0
   23.4170   15.6020    8.9410 S   0  0  0  0  0  6  0  0  0  0  0  0
   23.7760   14.3200    8.3680 O   0  0  0  0  0  0  0  0  0  0  0  0
   24.3190   16.7390    8.9040 O   0  0  0  0  0  0  0  0  0  0  0  0
   22.9400   15.3560   10.6160 C   0  0  0  0  0  0  0  0  0  0  0  0
   23.6190   16.0390   11.6370 C   0  0  0  0  0  0  0  0  0  0  0  0
   23.2440   15.8530   12.9820 C   0  0  0  0  0  0  0  0  0  0  0  0
   23.9460   16.5500   14.0980 C   0  0  0  0  0  0  0  0  0  0  0  0
   24.2390   15.9400   15.1200 O   0  0  0  0  0  0  0  0  0  0  0  0
   24.2020   17.8910   13.9270 N   0  0  0  0  0  0  0  0  0  0  0  0
   24.7520   18.6930   15.0130 C   0  0  1  0  0  0  0  0  0  0  0  0
   25.8820   17.9740   15.7420 C   0  0  0  0  0  0  0  0  0  0  0  0
   26.4360   18.8790   16.8330 C   0  0  0  0  0  0  0  0  0  0  0  0
   26.8850   20.2080   16.2690 C   0  0  0  0  0  0  0  0  0  0  0  0
   27.8310   20.8340   16.7360 O   0  0  0  0  0  0  0  0  0  0  0  0
   26.1560   20.7090   15.2210 N   0  0  0  0  0  0  0  0  0  0  0  0
   25.2860   20.0030   14.4260 C   0  0  0  0  0  0  0  0  0  0  0  0
   24.9500   20.4200   13.3180 O   0  0  0  0  0  0  0  0  0  0  0  0
   22.2090   14.9630   13.3080 C   0  0  0  0  0  0  0  0  0  0  0  0
   21.5520   14.3050   12.2810 C   0  0  0  0  0  0  0  0  0  0  0  0
   21.9120   14.5010   10.9550 C   0  0  0  0  0  0  0  0  0  0  0  0
   21.1770   13.7420   10.0870 O   0  0  0  0  0  0  0  0  0  0  0  0
   20.0770   13.2440   10.8880 C   0  0  0  0  0  0  0  0  0  0  0  0
   20.4860   13.2780   12.3590 C   0  0  0  0  0  0  0  0  0  0  0  0
   21.7350   15.8420    6.8430 C   0  0  0  0  0  0  0  0  0  0  0  0
   20.5530   16.3340    6.5290 N   0  0  0  0  0  0  0  0  0  0  0  0
   18.9504   19.6134    8.5356 H   0  0  0  0  0  0  0  0  0  0  0  0
   19.8320   19.3891    6.9867 H   0  0  0  0  0  0  0  0  0  0  0  0
   18.0430   19.5504    6.9867 H   0  0  0  0  0  0  0  0  0  0  0  0
   18.2631   17.4234    8.6269 H   0  0  0  0  0  0  0  0  0  0  0  0
   18.1959   17.2769    6.8174 H   0  0  0  0  0  0  0  0  0  0  0  0
   20.9290   17.2037    9.7264 H   0  0  0  0  0  0  0  0  0  0  0  0
   24.4453   16.7206   11.3865 H   0  0  0  0  0  0  0  0  0  0  0  0
   24.0023   18.3344   13.0190 H   0  0  0  0  0  0  0  0  0  0  0  0
   23.9513   18.8800   15.7437 H   0  0  0  0  0  0  0  0  0  0  0  0
   25.4966   17.0481   16.1938 H   0  0  0  0  0  0  0  0  0  0  0  0
   26.6816   17.7273   15.0280 H   0  0  0  0  0  0  0  0  0  0  0  0
   25.6524   19.0551   17.5847 H   0  0  0  0  0  0  0  0  0  0  0  0
   27.3064   18.3827   17.2870 H   0  0  0  0  0  0  0  0  0  0  0  0
   26.2718   21.7104   15.0097 H   0  0  0  0  0  0  0  0  0  0  0  0
   21.9254   14.7915   14.3569 H   0  0  0  0  0  0  0  0  0  0  0  0
   19.1915   13.8785   10.7355 H   0  0  0  0  0  0  0  0  0  0  0  0
   19.8343   12.2131   10.5908 H   0  0  0  0  0  0  0  0  0  0  0  0
   19.6572   13.5928   13.0101 H   0  0  0  0  0  0  0  0  0  0  0  0
   20.7911   12.3118   12.7871 H   0  0  0  0  0  0  0  0  0  0  0  0
   22.3822   15.2770    6.1560 H   0  0  0  0  0  0  0  0  0  0  0  0
  1  2  1  0
  2  3  1  0
  3  4  2  0
  4  5  1  0
  5  6  1  0
  6  7  2  0
  6  8  2  0
  6  9  1  0
  9 10  2  0
 10 11  1  0
 11 12  1  0
 12 13  2  0
 12 14  1  0
 14 15  1  0
 15 16  1  0
 16 17  1  0
 17 18  1  0
 18 19  2  0
 18 20  1  0
 20 21  1  0
 21 22  2  0
 11 23  2  0
 23 24  1  0
 24 25  2  0
 25 26  1  0
 26 27  1  0
 27 28  1  0
  5 29  1  0
 29 30  2  0
 30  3  1  0
 25  9  1  0
 21 15  1  0
 28 24  1  0
  1 31  1  0
  1 32  1  0
  1 33  1  0
  2 34  1  0
  2 35  1  0
  4 36  1  0
 10 37  1  0
 14 38  1  0
 15 39  1  1
 16 40  1  0
 16 41  1  0
 17 42  1  0
 17 43  1  0
 20 44  1  0
 23 45  1  0
 27 46  1  0
 27 47  1  0
 28 48  1  0
 28 49  1  0
 29 50  1  0
M  END
>  <meeko>  (1015) 
{"is_sidechain": [true], "free_energy": -10.32, "intermolecular_energy": 0.0, "internal_energy": -10.32, "cluster_size": 17, "cluster_id": 1, "rank_in_cluster": 1}

>  <_RMSD_MCS_to_ref>  (1015) 
0.4519394010508735

$$$$
ligand
     RDKit          3D

 49 52  0  0  0  0  0  0  0  0999 V2000
   18.9090   19.1540    7.5370 C   0  0  0  0  0  0  0  0  0  0  0  0
   18.7730   17.6460    7.6780 C   0  0  0  0  0  0  0  0  0  0  0  0
   20.0920   16.9580    7.6450 C   0  0  0  0  0  0  0  0  0  0  0  0
   20.7850   16.3560    8.6770 C   0  0  0  0  0  0  0  0  0  0  0  0
   21.9060   15.8550    8.0810 N   0  0  0  0  0  0  0  0  0  0  0  0
   23.2530   15.2300    8.8830 S   0  0  0  0  0  6  0  0  0  0  0  0
   24.1470   16.3630    9.0340 O   0  0  0  0  0  0  0  0  0  0  0  0
   23.6190   14.0540    8.1140 O   0  0  0  0  0  0  0  0  0  0  0  0
   22.7120   14.7590   10.3530 O   0  0  0  0  0  0  0  0  0  0  0  0
   23.6460   14.4790   11.3180 C   0  0  0  0  0  0  0  0  0  0  0  0
   24.2650   13.2260   11.3210 C   0  0  0  0  0  0  0  0  0  0  0  0
   25.2290   12.9290   12.2830 C   0  0  0  0  0  0  0  0  0  0  0  0
   25.5820   13.8870   13.2330 C   0  0  0  0  0  0  0  0  0  0  0  0
   24.9770   15.1500   13.2110 C   0  0  0  0  0  0  0  0  0  0  0  0
   24.0110   15.4640   12.2410 C   0  0  0  0  0  0  0  0  0  0  0  0
   23.3590   16.8160   12.2870 C   0  0  0  0  0  0  0  0  0  0  0  0
   24.2840   17.8350   12.7910 N   0  0  0  0  0  0  0  0  0  0  0  0
   24.8470   17.4570   14.0460 N   0  0  0  0  0  0  0  0  0  0  0  0
   25.1890   18.5450   14.9710 C   0  0  1  0  0  0  0  0  0  0  0  0
   25.6870   18.0570   16.3320 C   0  0  0  0  0  0  0  0  0  0  0  0
   25.9800   19.2560   17.2190 C   0  0  0  0  0  0  0  0  0  0  0  0
   26.9730   20.1930   16.5700 C   0  0  0  0  0  0  0  0  0  0  0  0
   27.6790   20.9540   17.2260 O   0  0  0  0  0  0  0  0  0  0  0  0
   26.9940   20.2140   15.1990 N   0  0  0  0  0  0  0  0  0  0  0  0
   26.1910   19.5110   14.3270 C   0  0  0  0  0  0  0  0  0  0  0  0
   26.2360   19.7450   13.1190 O   0  0  0  0  0  0  0  0  0  0  0  0
   25.3490   16.1630   14.2370 C   0  0  0  0  0  0  0  0  0  0  0  0
   26.0540   15.8400   15.1890 O   0  0  0  0  0  0  0  0  0  0  0  0
   21.9140   16.2210    6.7730 C   0  0  0  0  0  0  0  0  0  0  0  0
   20.8110   16.8720    6.4700 N   0  0  0  0  0  0  0  0  0  0  0  0
   18.9504   19.6134    8.5356 H   0  0  0  0  0  0  0  0  0  0  0  0
   19.8320   19.3891    6.9867 H   0  0  0  0  0  0  0  0  0  0  0  0
   18.0430   19.5504    6.9867 H   0  0  0  0  0  0  0  0  0  0  0  0
   18.2806   17.4226    8.6359 H   0  0  0  0  0  0  0  0  0  0  0  0
   18.1790   17.2792    6.8279 H   0  0  0  0  0  0  0  0  0  0  0  0
   20.4988   16.2944    9.7373 H   0  0  0  0  0  0  0  0  0  0  0  0
   23.9918   12.4750   10.5651 H   0  0  0  0  0  0  0  0  0  0  0  0
   25.7107   11.9401   12.2928 H   0  0  0  0  0  0  0  0  0  0  0  0
   26.3351   13.6508   13.9992 H   0  0  0  0  0  0  0  0  0  0  0  0
   23.0377   17.0938   11.2723 H   0  0  0  0  0  0  0  0  0  0  0  0
   22.4960   16.7629   12.9670 H   0  0  0  0  0  0  0  0  0  0  0  0
   25.0445   17.9633   12.1083 H   0  0  0  0  0  0  0  0  0  0  0  0
   24.2520   19.0852   15.1717 H   0  0  0  0  0  0  0  0  0  0  0  0
   24.9146   17.4314   16.8032 H   0  0  0  0  0  0  0  0  0  0  0  0
   26.6042   17.4647   16.1981 H   0  0  0  0  0  0  0  0  0  0  0  0
   25.0428   19.8009   17.4052 H   0  0  0  0  0  0  0  0  0  0  0  0
   26.4136   18.8913   18.1619 H   0  0  0  0  0  0  0  0  0  0  0  0
   27.6966   20.8314   14.7677 H   0  0  0  0  0  0  0  0  0  0  0  0
   22.7282   16.0038    6.0660 H   0  0  0  0  0  0  0  0  0  0  0  0
  1  2  1  0
  2  3  1  0
  3  4  2  0
  4  5  1  0
  5  6  1  0
  6  7  2  0
  6  8  2  0
  6  9  1  0
  9 10  1  0
 10 11  2  0
 11 12  1  0
 12 13  2  0
 13 14  1  0
 14 15  2  0
 15 16  1  0
 16 17  1  0
 17 18  1  0
 18 19  1  0
 19 20  1  0
 20 21  1  0
 21 22  1  0
 22 23  2  0
 22 24  1  0
 24 25  1  0
 25 26  2  0
 18 27  1  0
 27 28  2  0
  5 29  1  0
 29 30  2  0
 30  3  1  0
 15 10  1  0
 25 19  1  0
 27 14  1  0
  1 31  1  0
  1 32  1  0
  1 33  1  0
  2 34  1  0
  2 35  1  0
  4 36  1  0
 11 37  1  0
 12 38  1  0
 13 39  1  0
 16 40  1  0
 16 41  1  0
 17 42  1  0
 19 43  1  1
 20 44  1  0
 20 45  1  0
 21 46  1  0
 21 47  1  0
 24 48  1  0
 29 49  1  0
M  END
>  <meeko>  (1016) 
{"is_sidechain": [true], "free_energy": -10.32, "intermolecular_energy": 0.0, "internal_energy": -10.32, "cluster_size": 18, "cluster_id": 1, "rank_in_cluster": 1}

>  <_RMSD_MCS_to_ref>  (1016) 
0.8944889291905428

$$$$
ligand
     RDKit          3D

 44 47  0  0  0  0  0  0  0  0999 V2000
   18.9090   19.1540    7.5370 C   0  0  0  0  0  0  0  0  0  0  0  0
   18.7730   17.6460    7.6780 C   0  0  0  0  0  0  0  0  0  0  0  0
   20.0580   16.9990    8.0550 C   0  0  0  0  0  0  0  0  0  0  0  0
   20.3360   16.1840    9.1360 C   0  0  0  0  0  0  0  0  0  0  0  0
   21.6620   15.8870    8.9980 N   0  0  0  0  0  0  0  0  0  0  0  0
   22.5610   14.9200   10.0360 S   0  0  0  0  0  6  0  0  0  0  0  0
   21.6490   14.4300   11.0530 O   0  0  0  0  0  0  0  0  0  0  0  0
   23.2780   14.0110    9.1570 O   0  0  0  0  0  0  0  0  0  0  0  0
   23.7460   15.9630   10.8080 C   0  0  0  0  0  0  0  0  0  0  0  0
   24.9330   16.2730   10.1270 C   0  0  0  0  0  0  0  0  0  0  0  0
   25.8860   17.1060   10.7130 C   0  0  0  0  0  0  0  0  0  0  0  0
   25.6890   17.6490   11.9870 C   0  0  0  0  0  0  0  0  0  0  0  0
   24.5000   17.3200   12.6540 C   0  0  0  0  0  0  0  0  0  0  0  0
   23.5300   16.4890   12.0860 C   0  0  0  0  0  0  0  0  0  0  0  0
   22.4740   16.3240   12.9420 N   0  0  0  0  0  0  0  0  0  0  0  0
   22.7590   17.0430   14.0020 C   0  0  0  0  0  0  0  0  0  0  0  0
   23.9770   17.6570   13.8840 N   0  0  0  0  0  0  0  0  0  0  0  0
   24.5910   18.4630   14.9340 C   0  0  1  0  0  0  0  0  0  0  0  0
   25.7390   17.7180   15.6170 C   0  0  0  0  0  0  0  0  0  0  0  0
   26.3350   18.5850   16.7130 C   0  0  0  0  0  0  0  0  0  0  0  0
   26.7960   19.9140   16.1660 C   0  0  0  0  0  0  0  0  0  0  0  0
   27.6680   20.5830   16.7110 O   0  0  0  0  0  0  0  0  0  0  0  0
   26.1320   20.3800   15.0590 N   0  0  0  0  0  0  0  0  0  0  0  0
   25.0370   19.8290   14.4320 C   0  0  0  0  0  0  0  0  0  0  0  0
   24.4410   20.4660   13.5680 O   0  0  0  0  0  0  0  0  0  0  0  0
   22.1370   16.4800    7.8730 C   0  0  0  0  0  0  0  0  0  0  0  0
   21.1890   17.1790    7.2810 N   0  0  0  0  0  0  0  0  0  0  0  0
   18.9504   19.6134    8.5356 H   0  0  0  0  0  0  0  0  0  0  0  0
   19.8320   19.3891    6.9867 H   0  0  0  0  0  0  0  0  0  0  0  0
   18.0430   19.5504    6.9867 H   0  0  0  0  0  0  0  0  0  0  0  0
   18.0256   17.4288    8.4553 H   0  0  0  0  0  0  0  0  0  0  0  0
   18.4649   17.2420    6.7024 H   0  0  0  0  0  0  0  0  0  0  0  0
   19.6472   15.8509    9.9263 H   0  0  0  0  0  0  0  0  0  0  0  0
   25.1131   15.8566    9.1249 H   0  0  0  0  0  0  0  0  0  0  0  0
   26.8095   17.3402   10.1632 H   0  0  0  0  0  0  0  0  0  0  0  0
   26.4383   18.3091   12.4482 H   0  0  0  0  0  0  0  0  0  0  0  0
   22.1004   17.1404   14.8776 H   0  0  0  0  0  0  0  0  0  0  0  0
   23.8110   18.6409   15.6890 H   0  0  0  0  0  0  0  0  0  0  0  0
   25.3582   16.7843   16.0565 H   0  0  0  0  0  0  0  0  0  0  0  0
   26.5160   17.4876   14.8732 H   0  0  0  0  0  0  0  0  0  0  0  0
   25.5729   18.7601   17.4866 H   0  0  0  0  0  0  0  0  0  0  0  0
   27.2046   18.0619   17.1374 H   0  0  0  0  0  0  0  0  0  0  0  0
   26.4982   21.2497   14.6461 H   0  0  0  0  0  0  0  0  0  0  0  0
   23.1701   16.3897    7.5061 H   0  0  0  0  0  0  0  0  0  0  0  0
  1  2  1  0
  2  3  1  0
  3  4  2  0
  4  5  1  0
  5  6  1  0
  6  7  2  0
  6  8  2  0
  6  9  1  0
  9 10  2  0
 10 11  1  0
 11 12  2  0
 12 13  1  0
 13 14  2  0
 14 15  1  0
 15 16  2  0
 16 17  1  0
 17 18  1  0
 18 19  1  0
 19 20  1  0
 20 21  1  0
 21 22  2  0
 21 23  1  0
 23 24  1  0
 24 25  2  0
  5 26  1  0
 26 27  2  0
 27  3  1  0
 14  9  1  0
 24 18  1  0
 17 13  1  0
  1 28  1  0
  1 29  1  0
  1 30  1  0
  2 31  1  0
  2 32  1  0
  4 33  1  0
 10 34  1  0
 11 35  1  0
 12 36  1  0
 16 37  1  0
 18 38  1  1
 19 39  1  0
 19 40  1  0
 20 41  1  0
 20 42  1  0
 23 43  1  0
 26 44  1  0
M  END
>  <meeko>  (1017) 
{"is_sidechain": [true], "free_energy": -10.32, "intermolecular_energy": 0.0, "internal_energy": -10.32, "cluster_size": 20, "cluster_id": 1, "rank_in_cluster": 1}

>  <_RMSD_MCS_to_ref>  (1017) 
0.3944965849732489

$$$$
ligand
     RDKit          3D

 48 51  0  0  0  0  0  0  0  0999 V2000
   18.9090   19.1540    7.5370 C   0  0  0  0  0  0  0  0  0  0  0  0
   18.7730   17.6460    7.6780 C   0  0  0  0  0  0  0  0  0  0  0  0
   20.0900   16.9570    7.6360 C   0  0  0  0  0  0  0  0  0  0  0  0
   20.7690   16.3170    8.6550 C   0  0  0  0  0  0  0  0  0  0  0  0
   21.9280   15.8910    8.0710 N   0  0  0  0  0  0  0  0  0  0  0  0
   23.0800   14.8930    8.7730 S   0  0  0  0  0  6  0  0  0  0  0  0
   22.6010   13.5400    8.5660 O   0  0  0  0  0  0  0  0  0  0  0  0
   24.3580   15.3640    8.2760 O   0  0  0  0  0  0  0  0  0  0  0  0
   23.1040   15.1450   10.5160 C   0  0  0  0  0  0  0  0  0  0  0  0
   24.5500   15.8160   11.1470 S   0  0  0  0  0  0  0  0  0  0  0  0
   23.9640   15.7980   12.7680 C   0  0  0  0  0  0  0  0  0  0  0  0
   24.8210   16.2900   13.8360 C   0  0  0  0  0  0  0  0  0  0  0  0
   25.3010   15.5850   14.7220 O   0  0  0  0  0  0  0  0  0  0  0  0
   25.0840   17.6430   13.8000 N   0  0  0  0  0  0  0  0  0  0  0  0
   26.0380   18.2710   14.6960 C   0  0  2  0  0  0  0  0  0  0  0  0
   25.7140   18.0050   16.1630 C   0  0  0  0  0  0  0  0  0  0  0  0
   26.7270   18.7160   17.0450 C   0  0  0  0  0  0  0  0  0  0  0  0
   26.7790   20.1940   16.7390 C   0  0  0  0  0  0  0  0  0  0  0  0
   26.9930   21.0390   17.6020 O   0  0  0  0  0  0  0  0  0  0  0  0
   26.6010   20.5570   15.4270 N   0  0  0  0  0  0  0  0  0  0  0  0
   26.0230   19.7830   14.4510 C   0  0  0  0  0  0  0  0  0  0  0  0
   25.5390   20.2950   13.4420 O   0  0  0  0  0  0  0  0  0  0  0  0
   22.6800   15.2960   12.7990 C   0  0  0  0  0  0  0  0  0  0  0  0
   22.2030   14.9020   11.5220 C   0  0  0  0  0  0  0  0  0  0  0  0
   20.9830   14.3620   11.2980 O   0  0  0  0  0  0  0  0  0  0  0  0
   20.3840   13.9210   12.5300 C   0  0  0  0  0  0  0  0  0  0  0  0
   20.5650   14.9550   13.6470 C   0  0  0  0  0  0  0  0  0  0  0  0
   21.9570   15.1790   13.9420 O   0  0  0  0  0  0  0  0  0  0  0  0
   21.9090   16.2210    6.7530 C   0  0  0  0  0  0  0  0  0  0  0  0
   20.8080   16.8810    6.4570 N   0  0  0  0  0  0  0  0  0  0  0  0
   18.9504   19.6134    8.5356 H   0  0  0  0  0  0  0  0  0  0  0  0
   19.8320   19.3891    6.9867 H   0  0  0  0  0  0  0  0  0  0  0  0
   18.0430   19.5504    6.9867 H   0  0  0  0  0  0  0  0  0  0  0  0
   18.2867   17.4225    8.6390 H   0  0  0  0  0  0  0  0  0  0  0  0
   18.1734   17.2803    6.8314 H   0  0  0  0  0  0  0  0  0  0  0  0
   20.4491   16.1814    9.6987 H   0  0  0  0  0  0  0  0  0  0  0  0
   24.5865   18.2282   13.1138 H   0  0  0  0  0  0  0  0  0  0  0  0
   27.0295   17.8424   14.4881 H   0  0  0  0  0  0  0  0  0  0  0  0
   24.7048   18.3798   16.3890 H   0  0  0  0  0  0  0  0  0  0  0  0
   25.7564   16.9230   16.3565 H   0  0  0  0  0  0  0  0  0  0  0  0
   26.4438   18.5780   18.0989 H   0  0  0  0  0  0  0  0  0  0  0  0
   27.7203   18.2857   16.8494 H   0  0  0  0  0  0  0  0  0  0  0  0
   26.9302   21.4929   15.1502 H   0  0  0  0  0  0  0  0  0  0  0  0
   19.3087   13.7575   12.3657 H   0  0  0  0  0  0  0  0  0  0  0  0
   20.8801   12.9894   12.8397 H   0  0  0  0  0  0  0  0  0  0  0  0
   20.1097   15.9052   13.3310 H   0  0  0  0  0  0  0  0  0  0  0  0
   20.0787   14.5691   14.5551 H   0  0  0  0  0  0  0  0  0  0  0  0
   22.7026   15.9717    6.0333 H   0  0  0  0  0  0  0  0  0  0  0  0
  1  2  1  0
  2  3  1  0
  3  4  2  0
  4  5  1  0
  5  6  1  0
  6  7  2  0
  6  8  2  0
  6  9  1  0
  9 10  1  0
 10 11  1  0
 11 12  1  0
 12 13  2  0
 12 14  1  0
 14 15  1  0
 15 16  1  0
 16 17  1  0
 17 18  1  0
 18 19  2  0
 18 20  1  0
 20 21  1  0
 21 22  2  0
 11 23  2  0
 23 24  1  0
 24 25  1  0
 25 26  1  0
 26 27  1  0
 27 28  1  0
  5 29  1  0
 29 30  2  0
 30  3  1  0
 24  9  2  0
 21 15  1  0
 28 23  1  0
  1 31  1  0
  1 32  1  0
  1 33  1  0
  2 34  1  0
  2 35  1  0
  4 36  1  0
 14 37  1  0
 15 38  1  6
 16 39  1  0
 16 40  1  0
 17 41  1  0
 17 42  1  0
 20 43  1  0
 26 44  1  0
 26 45  1  0
 27 46  1  0
 27 47  1  0
 29 48  1  0
M  END
>  <meeko>  (1018) 
{"is_sidechain": [true], "free_energy": -10.32, "intermolecular_energy": 0.0, "internal_energy": -10.32, "cluster_size": 16, "cluster_id": 1, "rank_in_cluster": 1}

>  <_RMSD_MCS_to_ref>  (1018) 
0.7416382017009524

$$$$
ligand
     RDKit          3D

 54 58  0  0  0  0  0  0  0  0999 V2000
   18.9090   19.1540    7.5370 C   0  0  0  0  0  0  0  0  0  0  0  0
   18.7730   17.6460    7.6780 C   0  0  0  0  0  0  0  0  0  0  0  0
   19.9390   16.9220    7.1040 C   0  0  0  0  0  0  0  0  0  0  0  0
   20.4610   15.6940    7.4610 C   0  0  0  0  0  0  0  0  0  0  0  0
   21.5270   15.5310    6.6240 N   0  0  0  0  0  0  0  0  0  0  0  0
   22.5840   14.2250    6.6250 S   0  0  0  0  0  6  0  0  0  0  0  0
   21.7170   13.0640    6.6900 O   0  0  0  0  0  0  0  0  0  0  0  0
   23.5090   14.4300    5.5280 O   0  0  0  0  0  0  0  0  0  0  0  0
   23.4720   14.3660    8.1660 C   0  0  0  0  0  0  0  0  0  0  0  0
   22.9310   15.2660    9.1120 C   0  0  0  0  0  0  0  0  0  0  0  0
   23.6080   15.4760   10.3210 C   0  0  0  0  0  0  0  0  0  0  0  0
   23.3930   16.2780   11.4720 C   0  0  0  0  0  0  0  0  0  0  0  0
   24.4450   16.0370   12.3320 C   0  0  0  0  0  0  0  0  0  0  0  0
   24.7450   16.5760   13.6410 C   0  0  0  0  0  0  0  0  0  0  0  0
   24.6510   15.9320   14.6820 O   0  0  0  0  0  0  0  0  0  0  0  0
   25.1410   17.8940   13.6300 N   0  0  0  0  0  0  0  0  0  0  0  0
   25.3270   18.6610   14.8480 C   0  0  1  0  0  0  0  0  0  0  0  0
   26.3250   18.0050   15.7960 C   0  0  0  0  0  0  0  0  0  0  0  0
   26.4970   18.8730   17.0320 C   0  0  0  0  0  0  0  0  0  0  0  0
   26.9120   20.2780   16.6630 C   0  0  0  0  0  0  0  0  0  0  0  0
   27.6550   20.9530   17.3690 O   0  0  0  0  0  0  0  0  0  0  0  0
   26.3900   20.7860   15.5010 N   0  0  0  0  0  0  0  0  0  0  0  0
   25.8370   20.0580   14.4770 C   0  0  0  0  0  0  0  0  0  0  0  0
   25.7510   20.5220   13.3410 O   0  0  0  0  0  0  0  0  0  0  0  0
   25.2990   15.1260   11.7690 O   0  0  0  0  0  0  0  0  0  0  0  0
   24.7880   14.7850   10.5490 C   0  0  0  0  0  0  0  0  0  0  0  0
   25.3490   13.8700    9.6360 C   0  0  0  0  0  0  0  0  0  0  0  0
   26.5540   13.2190    9.9700 C   0  0  0  0  0  0  0  0  0  0  0  0
   27.1120   12.3010    9.0880 C   0  0  0  0  0  0  0  0  0  0  0  0
   26.4680   12.0240    7.8880 C   0  0  0  0  0  0  0  0  0  0  0  0
   25.2700   12.6710    7.5570 C   0  0  0  0  0  0  0  0  0  0  0  0
   24.6710   13.6330    8.4120 C   0  0  0  0  0  0  0  0  0  0  0  0
   21.6040   16.5910    5.7830 C   0  0  0  0  0  0  0  0  0  0  0  0
   20.6640   17.4690    6.0620 N   0  0  0  0  0  0  0  0  0  0  0  0
   18.9504   19.6134    8.5356 H   0  0  0  0  0  0  0  0  0  0  0  0
   19.8320   19.3891    6.9867 H   0  0  0  0  0  0  0  0  0  0  0  0
   18.0430   19.5504    6.9867 H   0  0  0  0  0  0  0  0  0  0  0  0
   18.6910   17.3957    8.7460 H   0  0  0  0  0  0  0  0  0  0  0  0
   17.8751   17.3340    7.1245 H   0  0  0  0  0  0  0  0  0  0  0  0
   20.1008   15.0061    8.2401 H   0  0  0  0  0  0  0  0  0  0  0  0
   21.9899   15.7953    8.9018 H   0  0  0  0  0  0  0  0  0  0  0  0
   22.5487   16.9614   11.6455 H   0  0  0  0  0  0  0  0  0  0  0  0
   25.3117   18.3530   12.7239 H   0  0  0  0  0  0  0  0  0  0  0  0
   24.3582   18.7143   15.3662 H   0  0  0  0  0  0  0  0  0  0  0  0
   25.9513   17.0140   16.0932 H   0  0  0  0  0  0  0  0  0  0  0  0
   27.2945   17.8946   15.2881 H   0  0  0  0  0  0  0  0  0  0  0  0
   25.5426   18.9129   17.5774 H   0  0  0  0  0  0  0  0  0  0  0  0
   27.2856   18.4316   17.6591 H   0  0  0  0  0  0  0  0  0  0  0  0
   26.4152   21.8092   15.3859 H   0  0  0  0  0  0  0  0  0  0  0  0
   27.0515   13.4370   10.9265 H   0  0  0  0  0  0  0  0  0  0  0  0
   28.0572   11.7970    9.3382 H   0  0  0  0  0  0  0  0  0  0  0  0
   26.9023   11.2909    7.1924 H   0  0  0  0  0  0  0  0  0  0  0  0
   24.7780   12.4257    6.6043 H   0  0  0  0  0  0  0  0  0  0  0  0
   22.3476   16.7020    4.9801 H   0  0  0  0  0  0  0  0  0  0  0  0
  1  2  1  0
  2  3  1  0
  3  4  2  0
  4  5  1  0
  5  6  1  0
  6  7  2  0
  6  8  2  0
  6  9  1  0
  9 10  2  0
 10 11  1  0
 11 12  1  0
 12 13  2  0
 13 14  1  0
 14 15  2  0
 14 16  1  0
 16 17  1  0
 17 18  1  0
 18 19  1  0
 19 20  1  0
 20 21  2  0
 20 22  1  0
 22 23  1  0
 23 24  2  0
 13 25  1  0
 25 26  1  0
 26 27  1  0
 27 28  2  0
 28 29  1  0
 29 30  2  0
 30 31  1  0
 31 32  2  0
  5 33  1  0
 33 34  2  0
 34  3  1  0
 32  9  1  0
 26 11  2  0
 32 27  1  0
 23 17  1  0
  1 35  1  0
  1 36  1  0
  1 37  1  0
  2 38  1  0
  2 39  1  0
  4 40  1  0
 10 41  1  0
 12 42  1  0
 16 43  1  0
 17 44  1  1
 18 45  1  0
 18 46  1  0
 19 47  1  0
 19 48  1  0
 22 49  1  0
 28 50  1  0
 29 51  1  0
 30 52  1  0
 31 53  1  0
 33 54  1  0
M  END
>  <meeko>  (1019) 
{"is_sidechain": [true], "free_energy": -10.32, "intermolecular_energy": 0.0, "internal_energy": -10.32, "cluster_size": 6, "cluster_id": 1, "rank_in_cluster": 1}

>  <_RMSD_MCS_to_ref>  (1019) 
0.654994062738146

$$$$
ligand
     RDKit          3D

 50 53  0  0  0  0  0  0  0  0999 V2000
   18.7970   18.8170    7.7190 C   0  0  0  0  0  0  0  0  0  0  0  0
   18.5280   17.3290    7.8810 C   0  0  0  0  0  0  0  0  0  0  0  0
   19.7250   16.5030    7.5690 C   0  0  0  0  0  0  0  0  0  0  0  0
   20.2310   15.4140    8.2510 C   0  0  0  0  0  0  0  0  0  0  0  0
   21.3180   15.0350    7.5170 N   0  0  0  0  0  0  0  0  0  0  0  0
   22.4690   13.8980    7.9720 S   0  0  0  0  0  6  0  0  0  0  0  0
   22.0080   12.6260    7.4520 O   0  0  0  0  0  0  0  0  0  0  0  0
   23.7500   14.4710    7.6050 O   0  0  0  0  0  0  0  0  0  0  0  0
   22.3470   13.8590    9.7380 C   0  0  0  0  0  0  0  0  0  0  0  0
   21.6110   12.8550   10.3640 C   0  0  0  0  0  0  0  0  0  0  0  0
   21.5260   12.8450   11.7550 C   0  0  0  0  0  0  0  0  0  0  0  0
   22.1690   13.8390   12.5120 C   0  0  0  0  0  0  0  0  0  0  0  0
   22.1040   13.8530   13.9120 C   0  0  0  0  0  0  0  0  0  0  0  0
   22.7530   14.8530   14.6250 C   0  0  0  0  0  0  0  0  0  0  0  0
   23.4480   15.8120   13.9070 C   0  0  0  0  0  0  0  0  0  0  0  0
   24.1740   16.9080   14.6270 C   0  0  0  0  0  0  0  0  0  0  0  0
   23.5960   17.6810   15.3820 O   0  0  0  0  0  0  0  0  0  0  0  0
   25.5270   16.9530   14.3780 N   0  0  0  0  0  0  0  0  0  0  0  0
   26.4290   17.8240   15.1070 C   0  0  2  0  0  0  0  0  0  0  0  0
   26.2300   17.7170   16.6150 C   0  0  0  0  0  0  0  0  0  0  0  0
   27.1860   18.6660   17.3220 C   0  0  0  0  0  0  0  0  0  0  0  0
   27.0120   20.0840   16.8320 C   0  0  0  0  0  0  0  0  0  0  0  0
   27.1780   21.0570   17.5610 O   0  0  0  0  0  0  0  0  0  0  0  0
   26.6900   20.2420   15.5090 N   0  0  0  0  0  0  0  0  0  0  0  0
   26.1900   19.2740   14.6710 C   0  0  0  0  0  0  0  0  0  0  0  0
   25.6080   19.5790   13.6300 O   0  0  0  0  0  0  0  0  0  0  0  0
   23.5340   15.8330   12.5460 N   0  0  0  0  0  0  0  0  0  0  0  0
   22.9040   14.8640   11.8700 C   0  0  0  0  0  0  0  0  0  0  0  0
   22.9760   14.8610   10.4870 C   0  0  0  0  0  0  0  0  0  0  0  0
   21.4740   15.8920    6.4760 C   0  0  0  0  0  0  0  0  0  0  0  0
   20.5140   16.7940    6.4720 N   0  0  0  0  0  0  0  0  0  0  0  0
   18.8815   19.2845    8.7111 H   0  0  0  0  0  0  0  0  0  0  0  0
   19.7359   18.9616    7.1643 H   0  0  0  0  0  0  0  0  0  0  0  0
   17.9682   19.2812    7.1643 H   0  0  0  0  0  0  0  0  0  0  0  0
   18.2253   17.1351    8.9206 H   0  0  0  0  0  0  0  0  0  0  0  0
   17.7330   17.0512    7.1734 H   0  0  0  0  0  0  0  0  0  0  0  0
   19.8463   14.9566    9.1744 H   0  0  0  0  0  0  0  0  0  0  0  0
   21.1042   12.0812    9.7687 H   0  0  0  0  0  0  0  0  0  0  0  0
   20.9528   12.0553   12.2627 H   0  0  0  0  0  0  0  0  0  0  0  0
   21.5400   13.0735   14.4452 H   0  0  0  0  0  0  0  0  0  0  0  0
   22.7162   14.8823   15.7240 H   0  0  0  0  0  0  0  0  0  0  0  0
   25.9147   16.3432   13.6440 H   0  0  0  0  0  0  0  0  0  0  0  0
   27.4587   17.5120   14.8781 H   0  0  0  0  0  0  0  0  0  0  0  0
   25.1936   17.9851   16.8679 H   0  0  0  0  0  0  0  0  0  0  0  0
   26.4317   16.6853   16.9389 H   0  0  0  0  0  0  0  0  0  0  0  0
   26.9887   18.6337   18.4037 H   0  0  0  0  0  0  0  0  0  0  0  0
   28.2162   18.3471   17.1052 H   0  0  0  0  0  0  0  0  0  0  0  0
   26.8371   21.1772   15.1033 H   0  0  0  0  0  0  0  0  0  0  0  0
   23.5343   15.6557    9.9705 H   0  0  0  0  0  0  0  0  0  0  0  0
   22.2885   15.8405    5.7385 H   0  0  0  0  0  0  0  0  0  0  0  0
  1  2  1  0
  2  3  1  0
  3  4  2  0
  4  5  1  0
  5  6  1  0
  6  7  2  0
  6  8  2  0
  6  9  1  0
  9 10  2  0
 10 11  1  0
 11 12  2  0
 12 13  1  0
 13 14  2  0
 14 15  1  0
 15 16  1  0
 16 17  2  0
 16 18  1  0
 18 19  1  0
 19 20  1  0
 20 21  1  0
 21 22  1  0
 22 23  2  0
 22 24  1  0
 24 25  1  0
 25 26  2  0
 15 27  2  0
 27 28  1  0
 28 29  2  0
  5 30  1  0
 30 31  2  0
 31  3  1  0
 29  9  1  0
 28 12  1  0
 25 19  1  0
  1 32  1  0
  1 33  1  0
  1 34  1  0
  2 35  1  0
  2 36  1  0
  4 37  1  0
 10 38  1  0
 11 39  1  0
 13 40  1  0
 14 41  1  0
 18 42  1  0
 19 43  1  1
 20 44  1  0
 20 45  1  0
 21 46  1  0
 21 47  1  0
 24 48  1  0
 29 49  1  0
 30 50  1  0
M  END
>  <meeko>  (1020) 
{"is_sidechain": [true], "free_energy": -10.31, "intermolecular_energy": 0.0, "internal_energy": -10.31, "cluster_size": 5, "cluster_id": 1, "rank_in_cluster": 1}

>  <_RMSD_MCS_to_ref>  (1020) 
0.8628568826868098

$$$$
ligand
     RDKit          3D

 47 50  0  0  0  0  0  0  0  0999 V2000
   18.7970   18.8170    7.7190 C   0  0  0  0  0  0  0  0  0  0  0  0
   18.5280   17.3290    7.8810 C   0  0  0  0  0  0  0  0  0  0  0  0
   19.7830   16.5290    7.8850 C   0  0  0  0  0  0  0  0  0  0  0  0
   20.0730   15.3720    8.5800 C   0  0  0  0  0  0  0  0  0  0  0  0
   21.3510   15.0690    8.2080 N   0  0  0  0  0  0  0  0  0  0  0  0
   22.2910   13.8160    8.8130 S   0  0  0  0  0  6  0  0  0  0  0  0
   21.3580   12.7520    9.1370 O   0  0  0  0  0  0  0  0  0  0  0  0
   23.3670   13.6350    7.8560 O   0  0  0  0  0  0  0  0  0  0  0  0
   22.9870   14.4190   10.3220 C   0  0  0  0  0  0  0  0  0  0  0  0
   24.2330   14.9380   10.2170 N   0  0  0  0  0  0  0  0  0  0  0  0
   24.8240   15.4140   11.3320 C   0  0  0  0  0  0  0  0  0  0  0  0
   24.2480   15.4250   12.5990 C   0  0  0  0  0  0  0  0  0  0  0  0
   25.0450   16.0010   13.7060 C   0  0  0  0  0  0  0  0  0  0  0  0
   25.4180   15.2760   14.6230 O   0  0  0  0  0  0  0  0  0  0  0  0
   25.3750   17.3320   13.6460 N   0  0  0  0  0  0  0  0  0  0  0  0
   26.2580   17.9530   14.6230 C   0  0  2  0  0  0  0  0  0  0  0  0
   25.7520   17.7790   16.0500 C   0  0  0  0  0  0  0  0  0  0  0  0
   26.6980   18.4770   17.0140 C   0  0  0  0  0  0  0  0  0  0  0  0
   26.8730   19.9330   16.6510 C   0  0  0  0  0  0  0  0  0  0  0  0
   27.0350   20.8080   17.4960 O   0  0  0  0  0  0  0  0  0  0  0  0
   26.8700   20.2380   15.3140 N   0  0  0  0  0  0  0  0  0  0  0  0
   26.3610   19.4500   14.3120 C   0  0  0  0  0  0  0  0  0  0  0  0
   26.0210   19.9320   13.2310 O   0  0  0  0  0  0  0  0  0  0  0  0
   22.9550   14.8650   12.6920 C   0  0  0  0  0  0  0  0  0  0  0  0
   21.9490   14.6580   14.0890 S   0  0  0  0  0  0  0  0  0  0  0  0
   20.6890   13.9480   13.2040 C   0  0  0  0  0  0  0  0  0  0  0  0
   20.9990   13.8420   11.8730 C   0  0  0  0  0  0  0  0  0  0  0  0
   22.3060   14.3570   11.5500 C   0  0  0  0  0  0  0  0  0  0  0  0
   21.8080   16.0270    7.3610 C   0  0  0  0  0  0  0  0  0  0  0  0
   20.8700   16.9230    7.1280 N   0  0  0  0  0  0  0  0  0  0  0  0
   18.8815   19.2845    8.7111 H   0  0  0  0  0  0  0  0  0  0  0  0
   19.7359   18.9616    7.1643 H   0  0  0  0  0  0  0  0  0  0  0  0
   17.9682   19.2812    7.1643 H   0  0  0  0  0  0  0  0  0  0  0  0
   18.0005   17.1657    8.8324 H   0  0  0  0  0  0  0  0  0  0  0  0
   17.9201   17.0001    7.0252 H   0  0  0  0  0  0  0  0  0  0  0  0
   19.4228   14.8203    9.2748 H   0  0  0  0  0  0  0  0  0  0  0  0
   25.8394   15.8252   11.2324 H   0  0  0  0  0  0  0  0  0  0  0  0
   24.9861   17.9091   12.8866 H   0  0  0  0  0  0  0  0  0  0  0  0
   27.2396   17.4616   14.5527 H   0  0  0  0  0  0  0  0  0  0  0  0
   24.7479   18.2193   16.1388 H   0  0  0  0  0  0  0  0  0  0  0  0
   25.7064   16.7073   16.2938 H   0  0  0  0  0  0  0  0  0  0  0  0
   26.2876   18.4081   18.0323 H   0  0  0  0  0  0  0  0  0  0  0  0
   27.6795   17.9837   16.9567 H   0  0  0  0  0  0  0  0  0  0  0  0
   27.2867   21.1383   15.0371 H   0  0  0  0  0  0  0  0  0  0  0  0
   19.7383   13.6131   13.6445 H   0  0  0  0  0  0  0  0  0  0  0  0
   20.3184   13.4074   11.1261 H   0  0  0  0  0  0  0  0  0  0  0  0
   22.8196   16.0517    6.9297 H   0  0  0  0  0  0  0  0  0  0  0  0
  1  2  1  0
  2  3  1  0
  3  4  2  0
  4  5  1  0
  5  6  1  0
  6  7  2  0
  6  8  2  0
  6  9  1  0
  9 10  2  0
 10 11  1  0
 11 12  2  0
 12 13  1  0
 13 14  2  0
 13 15  1  0
 15 16  1  0
 16 17  1  0
 17 18  1  0
 18 19  1  0
 19 20  2  0
 19 21  1  0
 21 22  1  0
 22 23  2  0
 12 24  1  0
 24 25  1  0
 25 26  1  0
 26 27  2  0
 27 28  1  0
  5 29  1  0
 29 30  2  0
 30  3  1  0
 28  9  1  0
 22 16  1  0
 28 24  2  0
  1 31  1  0
  1 32  1  0
  1 33  1  0
  2 34  1  0
  2 35  1  0
  4 36  1  0
 11 37  1  0
 15 38  1  0
 16 39  1  1
 17 40  1  0
 17 41  1  0
 18 42  1  0
 18 43  1  0
 21 44  1  0
 26 45  1  0
 27 46  1  0
 29 47  1  0
M  END
>  <meeko>  (1021) 
{"is_sidechain": [true], "free_energy": -10.31, "intermolecular_energy": 0.0, "internal_energy": -10.31, "cluster_size": 15, "cluster_id": 1, "rank_in_cluster": 1}

>  <_RMSD_MCS_to_ref>  (1021) 
0.8014684439618734

$$$$
ligand
     RDKit          3D

 53 57  0  0  0  0  0  0  0  0999 V2000
   18.7970   18.8170    7.7190 C   0  0  0  0  0  0  0  0  0  0  0  0
   18.5280   17.3290    7.8810 C   0  0  0  0  0  0  0  0  0  0  0  0
   19.7360   16.5070    7.5990 C   0  0  0  0  0  0  0  0  0  0  0  0
   20.7600   16.1460    8.4530 C   0  0  0  0  0  0  0  0  0  0  0  0
   21.6030   15.4090    7.6720 N   0  0  0  0  0  0  0  0  0  0  0  0
   22.9670   14.5850    8.1880 S   0  0  0  0  0  6  0  0  0  0  0  0
   23.6420   14.1320    6.9860 O   0  0  0  0  0  0  0  0  0  0  0  0
   23.6050   15.4290    9.1820 O   0  0  0  0  0  0  0  0  0  0  0  0
   22.4860   13.1450    9.0330 C   0  0  0  0  0  0  0  0  0  0  0  0
   21.6680   12.2180    8.4970 N   0  0  0  0  0  0  0  0  0  0  0  0
   21.5840   11.2750    9.4520 N   0  0  0  0  0  0  0  0  0  0  0  0
   22.3150   11.5630   10.5670 C   0  0  0  0  0  0  0  0  0  0  0  0
   22.9140   12.7830   10.3370 C   0  0  0  0  0  0  0  0  0  0  0  0
   23.7830   13.4370   11.2940 C   0  0  0  0  0  0  0  0  0  0  0  0
   25.0900   12.9490   11.5180 C   0  0  0  0  0  0  0  0  0  0  0  0
   25.9470   13.5590   12.4440 C   0  0  0  0  0  0  0  0  0  0  0  0
   25.4790   14.6600   13.1380 C   0  0  0  0  0  0  0  0  0  0  0  0
   24.1920   15.1380   12.9050 C   0  0  0  0  0  0  0  0  0  0  0  0
   23.3250   14.5580   11.9970 C   0  0  0  0  0  0  0  0  0  0  0  0
   23.9770   16.3060   13.7630 C   0  0  0  0  0  0  0  0  0  0  0  0
   22.9780   17.0000   13.7630 O   0  0  0  0  0  0  0  0  0  0  0  0
   25.1170   16.4480   14.5420 N   0  0  0  0  0  0  0  0  0  0  0  0
   25.3630   17.6440   15.3360 C   0  0  1  0  0  0  0  0  0  0  0  0
   26.3100   17.3850   16.5050 C   0  0  0  0  0  0  0  0  0  0  0  0
   26.4460   18.6530   17.3350 C   0  0  0  0  0  0  0  0  0  0  0  0
   26.9030   19.8150   16.4850 C   0  0  0  0  0  0  0  0  0  0  0  0
   27.6590   20.6820   16.9120 O   0  0  0  0  0  0  0  0  0  0  0  0
   26.4160   19.8670   15.2050 N   0  0  0  0  0  0  0  0  0  0  0  0
   25.9210   18.8000   14.4890 C   0  0  0  0  0  0  0  0  0  0  0  0
   25.9520   18.8110   13.2600 O   0  0  0  0  0  0  0  0  0  0  0  0
   26.1630   15.5080   14.1570 C   0  0  0  0  0  0  0  0  0  0  0  0
   21.0700   15.2940    6.4280 C   0  0  0  0  0  0  0  0  0  0  0  0
   19.9450   15.9730    6.3420 N   0  0  0  0  0  0  0  0  0  0  0  0
   18.8815   19.2845    8.7111 H   0  0  0  0  0  0  0  0  0  0  0  0
   19.7359   18.9616    7.1643 H   0  0  0  0  0  0  0  0  0  0  0  0
   17.9682   19.2812    7.1643 H   0  0  0  0  0  0  0  0  0  0  0  0
   18.2025   17.1380    8.9142 H   0  0  0  0  0  0  0  0  0  0  0  0
   17.7492   17.0452    7.1578 H   0  0  0  0  0  0  0  0  0  0  0  0
   20.8708   16.3953    9.5186 H   0  0  0  0  0  0  0  0  0  0  0  0
   21.0218   10.4178    9.3512 H   0  0  0  0  0  0  0  0  0  0  0  0
   22.4081   10.9438   11.4714 H   0  0  0  0  0  0  0  0  0  0  0  0
   25.4419   12.0725   10.9541 H   0  0  0  0  0  0  0  0  0  0  0  0
   26.9630   13.1731   12.6140 H   0  0  0  0  0  0  0  0  0  0  0  0
   22.3149   14.9616   11.8334 H   0  0  0  0  0  0  0  0  0  0  0  0
   24.3794   17.9329   15.7348 H   0  0  0  0  0  0  0  0  0  0  0  0
   25.9060   16.5770   17.1326 H   0  0  0  0  0  0  0  0  0  0  0  0
   27.2973   17.0899   16.1200 H   0  0  0  0  0  0  0  0  0  0  0  0
   25.4704   18.8964   17.7810 H   0  0  0  0  0  0  0  0  0  0  0  0
   27.1975   18.4776   18.1189 H   0  0  0  0  0  0  0  0  0  0  0  0
   26.4207   20.7848   14.7375 H   0  0  0  0  0  0  0  0  0  0  0  0
   27.0273   16.0317   13.7225 H   0  0  0  0  0  0  0  0  0  0  0  0
   26.5686   14.9339   15.0031 H   0  0  0  0  0  0  0  0  0  0  0  0
   21.5161   14.7142    5.6065 H   0  0  0  0  0  0  0  0  0  0  0  0
  1  2  1  0
  2  3  1  0
  3  4  2  0
  4  5  1  0
  5  6  1  0
  6  7  2  0
  6  8  2  0
  6  9  1  0
  9 10  2  0
 10 11  1  0
 11 12  1  0
 12 13  2  0
 13 14  1  0
 14 15  2  0
 15 16  1  0
 16 17  2  0
 17 18  1  0
 18 19  2  0
 18 20  1  0
 20 21  2  0
 20 22  1  0
 22 23  1  0
 23 24  1  0
 24 25  1  0
 25 26  1  0
 26 27  2  0
 26 28  1  0
 28 29  1  0
 29 30  2  0
 22 31  1  0
  5 32  1  0
 32 33  2  0
 33  3  1  0
 13  9  1  0
 19 14  1  0
 29 23  1  0
 31 17  1  0
  1 34  1  0
  1 35  1  0
  1 36  1  0
  2 37  1  0
  2 38  1  0
  4 39  1  0
 11 40  1  0
 12 41  1  0
 15 42  1  0
 16 43  1  0
 19 44  1  0
 23 45  1  1
 24 46  1  0
 24 47  1  0
 25 48  1  0
 25 49  1  0
 28 50  1  0
 31 51  1  0
 31 52  1  0
 32 53  1  0
M  END
>  <meeko>  (1022) 
{"is_sidechain": [true], "free_energy": -10.31, "intermolecular_energy": 0.0, "internal_energy": -10.31, "cluster_size": 19, "cluster_id": 1, "rank_in_cluster": 1}

>  <_RMSD_MCS_to_ref>  (1022) 
1.4109326899450434

$$$$
ligand
     RDKit          3D

 56 60  0  0  0  0  0  0  0  0999 V2000
   18.9090   19.1540    7.5370 C   0  0  0  0  0  0  0  0  0  0  0  0
   18.7730   17.6460    7.6780 C   0  0  0  0  0  0  0  0  0  0  0  0
   19.9050   16.9180    7.0430 C   0  0  0  0  0  0  0  0  0  0  0  0
   21.2210   16.8310    7.4520 C   0  0  0  0  0  0  0  0  0  0  0  0
   21.8180   16.0570    6.4990 N   0  0  0  0  0  0  0  0  0  0  0  0
   23.3660   15.4080    6.5830 S   0  0  0  0  0  6  0  0  0  0  0  0
   23.3560   14.2640    5.6940 O   0  0  0  0  0  0  0  0  0  0  0  0
   24.2790   16.5210    6.4120 O   0  0  0  0  0  0  0  0  0  0  0  0
   23.4900   14.8370    8.2550 C   0  0  0  0  0  0  0  0  0  0  0  0
   22.9430   13.6020    8.6080 C   0  0  0  0  0  0  0  0  0  0  0  0
   23.0560   13.1540    9.9250 C   0  0  0  0  0  0  0  0  0  0  0  0
   23.6830   13.9400   10.9080 C   0  0  0  0  0  0  0  0  0  0  0  0
   24.2390   15.1730   10.5250 C   0  0  0  0  0  0  0  0  0  0  0  0
   24.1540   15.6210    9.2010 C   0  0  0  0  0  0  0  0  0  0  0  0
   24.9070   16.0150   11.5490 C   0  0  0  0  0  0  0  0  0  0  0  0
   25.4150   17.0880   11.2290 O   0  0  0  0  0  0  0  0  0  0  0  0
   24.9200   15.5320   12.9570 C   0  0  0  0  0  0  0  0  0  0  0  0
   25.5150   16.2780   14.1020 C   0  0  0  0  0  0  0  0  0  0  0  0
   25.8870   15.7100   15.1250 O   0  0  0  0  0  0  0  0  0  0  0  0
   25.6160   17.6380   13.9300 N   0  0  0  0  0  0  0  0  0  0  0  0
   26.4620   18.4400   14.7970 C   0  0  2  0  0  0  0  0  0  0  0  0
   26.1900   18.1230   16.2610 C   0  0  0  0  0  0  0  0  0  0  0  0
   27.0860   18.9780   17.1410 C   0  0  0  0  0  0  0  0  0  0  0  0
   26.9080   20.4480   16.8410 C   0  0  0  0  0  0  0  0  0  0  0  0
   26.9990   21.3110   17.7090 O   0  0  0  0  0  0  0  0  0  0  0  0
   26.6650   20.7830   15.5330 N   0  0  0  0  0  0  0  0  0  0  0  0
   26.2010   19.9360   14.5540 C   0  0  0  0  0  0  0  0  0  0  0  0
   25.6290   20.3850   13.5630 O   0  0  0  0  0  0  0  0  0  0  0  0
   24.3470   14.3420   13.1970 C   0  0  0  0  0  0  0  0  0  0  0  0
   23.7690   13.5190   12.2520 N   0  0  0  0  0  0  0  0  0  0  0  0
   22.9820   12.3230   12.5640 C   0  0  0  0  0  0  0  0  0  0  0  0
   23.0350   11.3450   11.3930 C   0  0  0  0  0  0  0  0  0  0  0  0
   22.5030   11.9250   10.1920 O   0  0  0  0  0  0  0  0  0  0  0  0
   20.8840   15.6680    5.5930 C   0  0  0  0  0  0  0  0  0  0  0  0
   19.7090   16.1820    5.8910 N   0  0  0  0  0  0  0  0  0  0  0  0
   18.9504   19.6134    8.5356 H   0  0  0  0  0  0  0  0  0  0  0  0
   19.8320   19.3891    6.9867 H   0  0  0  0  0  0  0  0  0  0  0  0
   18.0430   19.5504    6.9867 H   0  0  0  0  0  0  0  0  0  0  0  0
   18.7435   17.3914    8.7477 H   0  0  0  0  0  0  0  0  0  0  0  0
   17.8470   17.3412    7.1685 H   0  0  0  0  0  0  0  0  0  0  0  0
   21.6829   17.2823    8.3425 H   0  0  0  0  0  0  0  0  0  0  0  0
   22.4277   12.9876    7.8550 H   0  0  0  0  0  0  0  0  0  0  0  0
   24.6056   16.5806    8.9090 H   0  0  0  0  0  0  0  0  0  0  0  0
   25.0842   18.0951   13.1756 H   0  0  0  0  0  0  0  0  0  0  0  0
   27.5101   18.2007   14.5641 H   0  0  0  0  0  0  0  0  0  0  0  0
   25.1363   18.3377   16.4927 H   0  0  0  0  0  0  0  0  0  0  0  0
   26.3985   17.0596   16.4500 H   0  0  0  0  0  0  0  0  0  0  0  0
   26.8332   18.7943   18.1957 H   0  0  0  0  0  0  0  0  0  0  0  0
   28.1326   18.7065   16.9389 H   0  0  0  0  0  0  0  0  0  0  0  0
   26.8469   21.7591   15.2589 H   0  0  0  0  0  0  0  0  0  0  0  0
   24.3373   13.9917   14.2397 H   0  0  0  0  0  0  0  0  0  0  0  0
   23.3942   11.8393   13.4619 H   0  0  0  0  0  0  0  0  0  0  0  0
   21.9369   12.6146   12.7448 H   0  0  0  0  0  0  0  0  0  0  0  0
   24.0818   11.0568   11.2163 H   0  0  0  0  0  0  0  0  0  0  0  0
   22.4228   10.4682   11.6506 H   0  0  0  0  0  0  0  0  0  0  0  0
   21.0816   15.0146    4.7304 H   0  0  0  0  0  0  0  0  0  0  0  0
  1  2  1  0
  2  3  1  0
  3  4  2  0
  4  5  1  0
  5  6  1  0
  6  7  2  0
  6  8  2  0
  6  9  1  0
  9 10  2  0
 10 11  1  0
 11 12  2  0
 12 13  1  0
 13 14  2  0
 13 15  1  0
 15 16  2  0
 15 17  1  0
 17 18  1  0
 18 19  2  0
 18 20  1  0
 20 21  1  0
 21 22  1  0
 22 23  1  0
 23 24  1  0
 24 25  2  0
 24 26  1  0
 26 27  1  0
 27 28  2  0
 17 29  2  0
 29 30  1  0
 30 31  1  0
 31 32  1  0
 32 33  1  0
  5 34  1  0
 34 35  2  0
 35  3  1  0
 14  9  1  0
 27 21  1  0
 33 11  1  0
 30 12  1  0
  1 36  1  0
  1 37  1  0
  1 38  1  0
  2 39  1  0
  2 40  1  0
  4 41  1  0
 10 42  1  0
 14 43  1  0
 20 44  1  0
 21 45  1  6
 22 46  1  0
 22 47  1  0
 23 48  1  0
 23 49  1  0
 26 50  1  0
 29 51  1  0
 31 52  1  0
 31 53  1  0
 32 54  1  0
 32 55  1  0
 34 56  1  0
M  END
>  <meeko>  (1023) 
{"is_sidechain": [true], "free_energy": -10.31, "intermolecular_energy": 0.0, "internal_energy": -10.31, "cluster_size": 20, "cluster_id": 1, "rank_in_cluster": 1}

>  <_RMSD_MCS_to_ref>  (1023) 
1.01708428581138

$$$$
ligand
     RDKit          3D

 47 50  0  0  0  0  0  0  0  0999 V2000
   18.9090   19.1540    7.5370 C   0  0  0  0  0  0  0  0  0  0  0  0
   18.7730   17.6460    7.6780 C   0  0  0  0  0  0  0  0  0  0  0  0
   20.0280   16.9330    7.3170 C   0  0  0  0  0  0  0  0  0  0  0  0
   21.1390   16.6790    8.0960 C   0  0  0  0  0  0  0  0  0  0  0  0
   21.9680   15.9660    7.2780 N   0  0  0  0  0  0  0  0  0  0  0  0
   23.5740   15.5730    7.6010 S   0  0  0  0  0  6  0  0  0  0  0  0
   24.1990   16.8340    7.9550 O   0  0  0  0  0  0  0  0  0  0  0  0
   24.0050   14.8110    6.4430 O   0  0  0  0  0  0  0  0  0  0  0  0
   23.5410   14.5990    8.9070 O   0  0  0  0  0  0  0  0  0  0  0  0
   23.2960   15.0660   10.1750 C   0  0  0  0  0  0  0  0  0  0  0  0
   22.2630   14.6150   11.0200 C   0  0  0  0  0  0  0  0  0  0  0  0
   22.0960   15.1500   12.3070 C   0  0  0  0  0  0  0  0  0  0  0  0
   22.9700   16.1350   12.7260 C   0  0  0  0  0  0  0  0  0  0  0  0
   23.9860   16.5710   11.8800 C   0  0  0  0  0  0  0  0  0  0  0  0
   24.1780   16.0580   10.6110 C   0  0  0  0  0  0  0  0  0  0  0  0
   24.7530   17.6050   12.5820 C   0  0  0  0  0  0  0  0  0  0  0  0
   25.7430   18.1570   12.1440 O   0  0  0  0  0  0  0  0  0  0  0  0
   24.1260   17.8090   13.8030 N   0  0  0  0  0  0  0  0  0  0  0  0
   24.7540   18.5820   14.8680 C   0  0  1  0  0  0  0  0  0  0  0  0
   25.8970   17.8270   15.5400 C   0  0  0  0  0  0  0  0  0  0  0  0
   26.4390   18.6560   16.6950 C   0  0  0  0  0  0  0  0  0  0  0  0
   26.8660   20.0280   16.2270 C   0  0  0  0  0  0  0  0  0  0  0  0
   27.8380   20.6100   16.6980 O   0  0  0  0  0  0  0  0  0  0  0  0
   26.0970   20.6100   15.2520 N   0  0  0  0  0  0  0  0  0  0  0  0
   25.2760   19.9410   14.3710 C   0  0  0  0  0  0  0  0  0  0  0  0
   25.0150   20.4280   13.2740 O   0  0  0  0  0  0  0  0  0  0  0  0
   23.0420   16.8600   14.0290 C   0  0  0  0  0  0  0  0  0  0  0  0
   21.4060   15.8800    6.0450 C   0  0  0  0  0  0  0  0  0  0  0  0
   20.2120   16.4340    6.0420 N   0  0  0  0  0  0  0  0  0  0  0  0
   18.9504   19.6134    8.5356 H   0  0  0  0  0  0  0  0  0  0  0  0
   19.8320   19.3891    6.9867 H   0  0  0  0  0  0  0  0  0  0  0  0
   18.0430   19.5504    6.9867 H   0  0  0  0  0  0  0  0  0  0  0  0
   18.5185   17.4092    8.7216 H   0  0  0  0  0  0  0  0  0  0  0  0
   17.9840   17.3118    6.9882 H   0  0  0  0  0  0  0  0  0  0  0  0
   21.3162   16.9820    9.1385 H   0  0  0  0  0  0  0  0  0  0  0  0
   21.5768   13.8316   10.6659 H   0  0  0  0  0  0  0  0  0  0  0  0
   21.2898   14.7942   12.9654 H   0  0  0  0  0  0  0  0  0  0  0  0
   24.9950   16.4174    9.9681 H   0  0  0  0  0  0  0  0  0  0  0  0
   23.9591   18.7530   15.6089 H   0  0  0  0  0  0  0  0  0  0  0  0
   25.5268   16.8639   15.9213 H   0  0  0  0  0  0  0  0  0  0  0  0
   26.6987   17.6466   14.8088 H   0  0  0  0  0  0  0  0  0  0  0  0
   25.6544   18.7649   17.4582 H   0  0  0  0  0  0  0  0  0  0  0  0
   27.3164   18.1409   17.1131 H   0  0  0  0  0  0  0  0  0  0  0  0
   26.1367   21.6361   15.1715 H   0  0  0  0  0  0  0  0  0  0  0  0
   23.2811   16.1725   14.8537 H   0  0  0  0  0  0  0  0  0  0  0  0
   22.0942   17.3377   14.3178 H   0  0  0  0  0  0  0  0  0  0  0  0
   21.8821   15.4125    5.1705 H   0  0  0  0  0  0  0  0  0  0  0  0
  1  2  1  0
  2  3  1  0
  3  4  2  0
  4  5  1  0
  5  6  1  0
  6  7  2  0
  6  8  2  0
  6  9  1  0
  9 10  1  0
 10 11  2  0
 11 12  1  0
 12 13  2  0
 13 14  1  0
 14 15  2  0
 14 16  1  0
 16 17  2  0
 16 18  1  0
 18 19  1  0
 19 20  1  0
 20 21  1  0
 21 22  1  0
 22 23  2  0
 22 24  1  0
 24 25  1  0
 25 26  2  0
 18 27  1  0
  5 28  1  0
 28 29  2  0
 29  3  1  0
 15 10  1  0
 25 19  1  0
 27 13  1  0
  1 30  1  0
  1 31  1  0
  1 32  1  0
  2 33  1  0
  2 34  1  0
  4 35  1  0
 11 36  1  0
 12 37  1  0
 15 38  1  0
 19 39  1  1
 20 40  1  0
 20 41  1  0
 21 42  1  0
 21 43  1  0
 24 44  1  0
 27 45  1  0
 27 46  1  0
 28 47  1  0
M  END
>  <meeko>  (1024) 
{"is_sidechain": [true], "free_energy": -10.31, "intermolecular_energy": 0.0, "internal_energy": -10.31, "cluster_size": 20, "cluster_id": 1, "rank_in_cluster": 1}

>  <_RMSD_MCS_to_ref>  (1024) 
1.9163606712261188

$$$$
ligand
     RDKit          3D

 48 51  0  0  0  0  0  0  0  0999 V2000
   18.9090   19.1540    7.5370 C   0  0  0  0  0  0  0  0  0  0  0  0
   18.7730   17.6460    7.6780 C   0  0  0  0  0  0  0  0  0  0  0  0
   20.0350   16.9340    7.3400 C   0  0  0  0  0  0  0  0  0  0  0  0
   20.9250   16.2950    8.1810 C   0  0  0  0  0  0  0  0  0  0  0  0
   21.9120   15.8480    7.3480 N   0  0  0  0  0  0  0  0  0  0  0  0
   23.1440   14.7730    7.7770 S   0  0  0  0  0  6  0  0  0  0  0  0
   23.9670   14.6920    6.5810 O   0  0  0  0  0  0  0  0  0  0  0  0
   22.4410   13.5980    8.2640 O   0  0  0  0  0  0  0  0  0  0  0  0
   24.0300   15.5480    9.0750 C   0  0  0  0  0  0  0  0  0  0  0  0
   25.2060   16.1370    8.7730 C   0  0  0  0  0  0  0  0  0  0  0  0
   25.9920   16.8300    9.7800 C   0  0  0  0  0  0  0  0  0  0  0  0
   25.5440   16.8970   11.0510 C   0  0  0  0  0  0  0  0  0  0  0  0
   26.3990   17.6320   12.0340 C   0  0  0  0  0  0  0  0  0  0  0  0
   27.4470   18.1780   11.6930 O   0  0  0  0  0  0  0  0  0  0  0  0
   25.9470   17.6670   13.3230 N   0  0  0  0  0  0  0  0  0  0  0  0
   26.6420   18.3910   14.3740 C   0  0  2  0  0  0  0  0  0  0  0  0
   26.2250   17.9070   15.7600 C   0  0  0  0  0  0  0  0  0  0  0  0
   26.9740   18.6940   16.8220 C   0  0  0  0  0  0  0  0  0  0  0  0
   26.7530   20.1800   16.6610 C   0  0  0  0  0  0  0  0  0  0  0  0
   26.7230   20.9490   17.6160 O   0  0  0  0  0  0  0  0  0  0  0  0
   26.6210   20.6450   15.3760 N   0  0  0  0  0  0  0  0  0  0  0  0
   26.3510   19.8930   14.2580 C   0  0  0  0  0  0  0  0  0  0  0  0
   25.9250   20.4240   13.2340 O   0  0  0  0  0  0  0  0  0  0  0  0
   24.3240   16.2810   11.3730 N   0  0  0  0  0  0  0  0  0  0  0  0
   23.7160   16.2380   12.5950 N   0  0  0  0  0  0  0  0  0  0  0  0
   22.5980   15.5390   12.4100 C   0  0  0  0  0  0  0  0  0  0  0  0
   22.4410   15.1130   11.0860 C   0  0  0  0  0  0  0  0  0  0  0  0
   23.5440   15.5990   10.4210 C   0  0  0  0  0  0  0  0  0  0  0  0
   21.5850   16.1570    6.0670 C   0  0  0  0  0  0  0  0  0  0  0  0
   20.4530   16.8290    6.0280 N   0  0  0  0  0  0  0  0  0  0  0  0
   18.9504   19.6134    8.5356 H   0  0  0  0  0  0  0  0  0  0  0  0
   19.8320   19.3891    6.9867 H   0  0  0  0  0  0  0  0  0  0  0  0
   18.0430   19.5504    6.9867 H   0  0  0  0  0  0  0  0  0  0  0  0
   18.5008   17.4105    8.7174 H   0  0  0  0  0  0  0  0  0  0  0  0
   17.9967   17.3097    6.9750 H   0  0  0  0  0  0  0  0  0  0  0  0
   20.8553   16.1736    9.2721 H   0  0  0  0  0  0  0  0  0  0  0  0
   25.5789   16.0915    7.7391 H   0  0  0  0  0  0  0  0  0  0  0  0
   26.9491   17.2984    9.5069 H   0  0  0  0  0  0  0  0  0  0  0  0
   25.0812   17.1613   13.5586 H   0  0  0  0  0  0  0  0  0  0  0  0
   27.7187   18.2038   14.2489 H   0  0  0  0  0  0  0  0  0  0  0  0
   25.1428   18.0558   15.8894 H   0  0  0  0  0  0  0  0  0  0  0  0
   26.4646   16.8382   15.8608 H   0  0  0  0  0  0  0  0  0  0  0  0
   26.6178   18.3842   17.8156 H   0  0  0  0  0  0  0  0  0  0  0  0
   28.0492   18.4887   16.7130 H   0  0  0  0  0  0  0  0  0  0  0  0
   26.7358   21.6589   15.2359 H   0  0  0  0  0  0  0  0  0  0  0  0
   21.8762   15.3201   13.2107 H   0  0  0  0  0  0  0  0  0  0  0  0
   21.6153   14.5187   10.6676 H   0  0  0  0  0  0  0  0  0  0  0  0
   22.1824   15.8841    5.1846 H   0  0  0  0  0  0  0  0  0  0  0  0
  1  2  1  0
  2  3  1  0
  3  4  2  0
  4  5  1  0
  5  6  1  0
  6  7  2  0
  6  8  2  0
  6  9  1  0
  9 10  2  0
 10 11  1  0
 11 12  2  0
 12 13  1  0
 13 14  2  0
 13 15  1  0
 15 16  1  0
 16 17  1  0
 17 18  1  0
 18 19  1  0
 19 20  2  0
 19 21  1  0
 21 22  1  0
 22 23  2  0
 12 24  1  0
 24 25  1  0
 25 26  2  0
 26 27  1  0
 27 28  2  0
  5 29  1  0
 29 30  2  0
 30  3  1  0
 28  9  1  0
 22 16  1  0
 28 24  1  0
  1 31  1  0
  1 32  1  0
  1 33  1  0
  2 34  1  0
  2 35  1  0
  4 36  1  0
 10 37  1  0
 11 38  1  0
 15 39  1  0
 16 40  1  6
 17 41  1  0
 17 42  1  0
 18 43  1  0
 18 44  1  0
 21 45  1  0
 26 46  1  0
 27 47  1  0
 29 48  1  0
M  END
>  <meeko>  (1025) 
{"is_sidechain": [true], "free_energy": -10.31, "intermolecular_energy": 0.0, "internal_energy": -10.31, "cluster_size": 17, "cluster_id": 1, "rank_in_cluster": 1}

>  <_RMSD_MCS_to_ref>  (1025) 
1.0605982588457639

$$$$
ligand
     RDKit          3D

 48 51  0  0  0  0  0  0  0  0999 V2000
   18.9090   19.1540    7.5370 C   0  0  0  0  0  0  0  0  0  0  0  0
   18.7730   17.6460    7.6780 C   0  0  0  0  0  0  0  0  0  0  0  0
   20.0220   16.9310    7.2950 C   0  0  0  0  0  0  0  0  0  0  0  0
   20.6290   15.8530    7.9090 C   0  0  0  0  0  0  0  0  0  0  0  0
   21.7450   15.6250    7.1560 N   0  0  0  0  0  0  0  0  0  0  0  0
   22.7380   14.2790    7.2680 S   0  0  0  0  0  6  0  0  0  0  0  0
   21.9870   13.2750    7.9930 O   0  0  0  0  0  0  0  0  0  0  0  0
   23.2770   14.0570    5.9440 O   0  0  0  0  0  0  0  0  0  0  0  0
   24.1160   14.6460    8.2740 C   0  0  0  0  0  0  0  0  0  0  0  0
   25.4770   14.5210    8.0710 C   0  0  0  0  0  0  0  0  0  0  0  0
   26.1910   14.9380    9.1590 N   0  0  0  0  0  0  0  0  0  0  0  0
   25.2920   15.3260   10.0360 C   0  0  0  0  0  0  0  0  0  0  0  0
   25.4450   15.8560   11.3480 C   0  0  0  0  0  0  0  0  0  0  0  0
   24.3570   16.1660   12.0830 C   0  0  0  0  0  0  0  0  0  0  0  0
   24.6010   16.7210   13.4510 C   0  0  0  0  0  0  0  0  0  0  0  0
   24.3010   16.1060   14.4680 O   0  0  0  0  0  0  0  0  0  0  0  0
   25.1360   17.9840   13.4680 N   0  0  0  0  0  0  0  0  0  0  0  0
   25.2650   18.7330   14.7100 C   0  0  1  0  0  0  0  0  0  0  0  0
   26.1870   18.0430   15.7100 C   0  0  0  0  0  0  0  0  0  0  0  0
   26.3080   18.8990   16.9610 C   0  0  0  0  0  0  0  0  0  0  0  0
   26.7830   20.2950   16.6270 C   0  0  0  0  0  0  0  0  0  0  0  0
   27.5080   20.9410   17.3770 O   0  0  0  0  0  0  0  0  0  0  0  0
   26.3380   20.8270   15.4440 N   0  0  0  0  0  0  0  0  0  0  0  0
   25.8340   20.1180   14.3830 C   0  0  0  0  0  0  0  0  0  0  0  0
   25.8380   20.5820   13.2440 O   0  0  0  0  0  0  0  0  0  0  0  0
   23.0120   16.0040   11.5340 C   0  0  0  0  0  0  0  0  0  0  0  0
   22.8640   15.5090   10.2930 C   0  0  0  0  0  0  0  0  0  0  0  0
   23.9960   15.1670    9.5460 N   0  0  0  0  0  0  0  0  0  0  0  0
   21.7620   16.4890    6.1100 C   0  0  0  0  0  0  0  0  0  0  0  0
   20.7340   17.3100    6.1740 N   0  0  0  0  0  0  0  0  0  0  0  0
   18.9504   19.6134    8.5356 H   0  0  0  0  0  0  0  0  0  0  0  0
   19.8320   19.3891    6.9867 H   0  0  0  0  0  0  0  0  0  0  0  0
   18.0430   19.5504    6.9867 H   0  0  0  0  0  0  0  0  0  0  0  0
   18.5354   17.4080    8.7253 H   0  0  0  0  0  0  0  0  0  0  0  0
   17.9723   17.3140    7.0008 H   0  0  0  0  0  0  0  0  0  0  0  0
   20.2909   15.3040    8.8002 H   0  0  0  0  0  0  0  0  0  0  0  0
   25.9303   14.1333    7.1468 H   0  0  0  0  0  0  0  0  0  0  0  0
   26.4515   16.0130   11.7632 H   0  0  0  0  0  0  0  0  0  0  0  0
   25.4524   18.4106   12.5855 H   0  0  0  0  0  0  0  0  0  0  0  0
   24.2688   18.8039   15.1711 H   0  0  0  0  0  0  0  0  0  0  0  0
   25.7696   17.0608   15.9766 H   0  0  0  0  0  0  0  0  0  0  0  0
   27.1816   17.9084   15.2598 H   0  0  0  0  0  0  0  0  0  0  0  0
   25.3240   18.9623   17.4485 H   0  0  0  0  0  0  0  0  0  0  0  0
   27.0449   18.4324   17.6313 H   0  0  0  0  0  0  0  0  0  0  0  0
   26.3865   21.8509   15.3429 H   0  0  0  0  0  0  0  0  0  0  0  0
   22.1307   16.2840   12.1298 H   0  0  0  0  0  0  0  0  0  0  0  0
   21.8587   15.3737    9.8675 H   0  0  0  0  0  0  0  0  0  0  0  0
   22.5269   16.5020    5.3195 H   0  0  0  0  0  0  0  0  0  0  0  0
  1  2  1  0
  2  3  1  0
  3  4  2  0
  4  5  1  0
  5  6  1  0
  6  7  2  0
  6  8  2  0
  6  9  1  0
  9 10  2  0
 10 11  1  0
 11 12  2  0
 12 13  1  0
 13 14  2  0
 14 15  1  0
 15 16  2  0
 15 17  1  0
 17 18  1  0
 18 19  1  0
 19 20  1  0
 20 21  1  0
 21 22  2  0
 21 23  1  0
 23 24  1  0
 24 25  2  0
 14 26  1  0
 26 27  2  0
 27 28  1  0
  5 29  1  0
 29 30  2  0
 30  3  1  0
 28  9  1  0
 28 12  1  0
 24 18  1  0
  1 31  1  0
  1 32  1  0
  1 33  1  0
  2 34  1  0
  2 35  1  0
  4 36  1  0
 10 37  1  0
 13 38  1  0
 17 39  1  0
 18 40  1  1
 19 41  1  0
 19 42  1  0
 20 43  1  0
 20 44  1  0
 23 45  1  0
 26 46  1  0
 27 47  1  0
 29 48  1  0
M  END
>  <meeko>  (1026) 
{"is_sidechain": [true], "free_energy": -10.31, "intermolecular_energy": 0.0, "internal_energy": -10.31, "cluster_size": 19, "cluster_id": 1, "rank_in_cluster": 1}

>  <_RMSD_MCS_to_ref>  (1026) 
0.6578959728643364

$$$$
ligand
     RDKit          3D

 47 50  0  0  0  0  0  0  0  0999 V2000
   18.9090   19.1540    7.5370 C   0  0  0  0  0  0  0  0  0  0  0  0
   18.7730   17.6460    7.6780 C   0  0  0  0  0  0  0  0  0  0  0  0
   20.0510   16.9370    7.3980 C   0  0  0  0  0  0  0  0  0  0  0  0
   20.7920   16.1200    8.2290 C   0  0  0  0  0  0  0  0  0  0  0  0
   21.8780   15.7720    7.4770 N   0  0  0  0  0  0  0  0  0  0  0  0
   22.9970   14.5630    7.8560 S   0  0  0  0  0  6  0  0  0  0  0  0
   23.6290   14.2500    6.5870 O   0  0  0  0  0  0  0  0  0  0  0  0
   22.2050   13.5590    8.5430 O   0  0  0  0  0  0  0  0  0  0  0  0
   24.1390   15.2800    8.9310 C   0  0  0  0  0  0  0  0  0  0  0  0
   25.3170   15.7140    8.4390 C   0  0  0  0  0  0  0  0  0  0  0  0
   26.3250   16.2700    9.2110 N   0  0  0  0  0  0  0  0  0  0  0  0
   26.1290   16.3810   10.4960 C   0  0  0  0  0  0  0  0  0  0  0  0
   24.9020   15.9410   11.0950 C   0  0  0  0  0  0  0  0  0  0  0  0
   24.4210   15.9130   12.3850 C   0  0  0  0  0  0  0  0  0  0  0  0
   25.0960   16.3700   13.5970 C   0  0  0  0  0  0  0  0  0  0  0  0
   25.3190   15.6400   14.5550 O   0  0  0  0  0  0  0  0  0  0  0  0
   25.4610   17.6920   13.5420 N   0  0  0  0  0  0  0  0  0  0  0  0
   26.2820   18.3170   14.5620 C   0  0  2  0  0  0  0  0  0  0  0  0
   25.8150   17.9600   15.9690 C   0  0  0  0  0  0  0  0  0  0  0  0
   26.6970   18.6610   16.9910 C   0  0  0  0  0  0  0  0  0  0  0  0
   26.7130   20.1550   16.7690 C   0  0  0  0  0  0  0  0  0  0  0  0
   26.8120   20.9570   17.6920 O   0  0  0  0  0  0  0  0  0  0  0  0
   26.6440   20.5810   15.4670 N   0  0  0  0  0  0  0  0  0  0  0  0
   26.2300   19.8390   14.3890 C   0  0  0  0  0  0  0  0  0  0  0  0
   25.8630   20.3840   13.3490 O   0  0  0  0  0  0  0  0  0  0  0  0
   23.1450   15.3700   12.3870 N   0  0  0  0  0  0  0  0  0  0  0  0
   22.8730   15.0960   11.1270 C   0  0  0  0  0  0  0  0  0  0  0  0
   23.9180   15.4040   10.2930 N   0  0  0  0  0  0  0  0  0  0  0  0
   21.7520   16.3140    6.2380 C   0  0  0  0  0  0  0  0  0  0  0  0
   20.6540   17.0360    6.1600 N   0  0  0  0  0  0  0  0  0  0  0  0
   18.9504   19.6134    8.5356 H   0  0  0  0  0  0  0  0  0  0  0  0
   19.8320   19.3891    6.9867 H   0  0  0  0  0  0  0  0  0  0  0  0
   18.0430   19.5504    6.9867 H   0  0  0  0  0  0  0  0  0  0  0  0
   18.4569   17.4135    8.7056 H   0  0  0  0  0  0  0  0  0  0  0  0
   18.0295   17.3041    6.9430 H   0  0  0  0  0  0  0  0  0  0  0  0
   20.5605   15.8183    9.2612 H   0  0  0  0  0  0  0  0  0  0  0  0
   25.4889   15.6209    7.3565 H   0  0  0  0  0  0  0  0  0  0  0  0
   26.9154   16.8180   11.1289 H   0  0  0  0  0  0  0  0  0  0  0  0
   25.1399   18.2620   12.7464 H   0  0  0  0  0  0  0  0  0  0  0  0
   27.3100   17.9447   14.4408 H   0  0  0  0  0  0  0  0  0  0  0  0
   24.7721   18.2834   16.1019 H   0  0  0  0  0  0  0  0  0  0  0  0
   25.8833   16.8715   16.1121 H   0  0  0  0  0  0  0  0  0  0  0  0
   26.3115   18.4527   18.0000 H   0  0  0  0  0  0  0  0  0  0  0  0
   27.7240   18.2826   16.8811 H   0  0  0  0  0  0  0  0  0  0  0  0
   26.9308   21.5524   15.2800 H   0  0  0  0  0  0  0  0  0  0  0  0
   21.9188   14.6698   10.7837 H   0  0  0  0  0  0  0  0  0  0  0  0
   22.4673   16.1698    5.4149 H   0  0  0  0  0  0  0  0  0  0  0  0
  1  2  1  0
  2  3  1  0
  3  4  2  0
  4  5  1  0
  5  6  1  0
  6  7  2  0
  6  8  2  0
  6  9  1  0
  9 10  2  0
 10 11  1  0
 11 12  2  0
 12 13  1  0
 13 14  2  0
 14 15  1  0
 15 16  2  0
 15 17  1  0
 17 18  1  0
 18 19  1  0
 19 20  1  0
 20 21  1  0
 21 22  2  0
 21 23  1  0
 23 24  1  0
 24 25  2  0
 14 26  1  0
 26 27  2  0
 27 28  1  0
  5 29  1  0
 29 30  2  0
 30  3  1  0
 28  9  1  0
 28 13  1  0
 24 18  1  0
  1 31  1  0
  1 32  1  0
  1 33  1  0
  2 34  1  0
  2 35  1  0
  4 36  1  0
 10 37  1  0
 12 38  1  0
 17 39  1  0
 18 40  1  6
 19 41  1  0
 19 42  1  0
 20 43  1  0
 20 44  1  0
 23 45  1  0
 27 46  1  0
 29 47  1  0
M  END
>  <meeko>  (1027) 
{"is_sidechain": [true], "free_energy": -10.31, "intermolecular_energy": 0.0, "internal_energy": -10.31, "cluster_size": 17, "cluster_id": 1, "rank_in_cluster": 1}

>  <_RMSD_MCS_to_ref>  (1027) 
0.8881961745270263

$$$$
ligand
     RDKit          3D

 42 44  0  0  0  0  0  0  0  0999 V2000
   18.9090   19.1540    7.5370 C   0  0  0  0  0  0  0  0  0  0  0  0
   18.7730   17.6460    7.6780 C   0  0  0  0  0  0  0  0  0  0  0  0
   20.0920   16.9580    7.6470 C   0  0  0  0  0  0  0  0  0  0  0  0
   20.9570   16.6950    8.6920 C   0  0  0  0  0  0  0  0  0  0  0  0
   22.0080   16.0530    8.1020 N   0  0  0  0  0  0  0  0  0  0  0  0
   23.4690   15.6830    8.8310 S   0  0  0  0  0  6  0  0  0  0  0  0
   23.8190   14.3390    8.4150 O   0  0  0  0  0  0  0  0  0  0  0  0
   24.3360   16.8290    8.6320 O   0  0  0  0  0  0  0  0  0  0  0  0
   23.2290   15.5860   10.5450 C   0  0  0  0  0  0  0  0  0  0  0  0
   22.3640   14.7340   11.2020 C   0  0  0  0  0  0  0  0  0  0  0  0
   22.5250   15.0200   12.5300 N   0  0  0  0  0  0  0  0  0  0  0  0
   23.4610   16.0190   12.6400 C   0  0  0  0  0  0  0  0  0  0  0  0
   23.8960   16.5980   13.8960 C   0  0  0  0  0  0  0  0  0  0  0  0
   23.7470   16.0450   14.9800 O   0  0  0  0  0  0  0  0  0  0  0  0
   24.4840   17.8320   13.7580 N   0  0  0  0  0  0  0  0  0  0  0  0
   24.8680   18.6510   14.8910 C   0  0  1  0  0  0  0  0  0  0  0  0
   25.9030   17.9540   15.7680 C   0  0  0  0  0  0  0  0  0  0  0  0
   26.2870   18.8640   16.9230 C   0  0  0  0  0  0  0  0  0  0  0  0
   26.7830   20.2030   16.4280 C   0  0  0  0  0  0  0  0  0  0  0  0
   27.6340   20.8520   17.0280 O   0  0  0  0  0  0  0  0  0  0  0  0
   26.2040   20.6880   15.2820 N   0  0  0  0  0  0  0  0  0  0  0  0
   25.4460   19.9760   14.3830 C   0  0  0  0  0  0  0  0  0  0  0  0
   25.2360   20.4100   13.2510 O   0  0  0  0  0  0  0  0  0  0  0  0
   23.9080   16.3820   11.4490 N   0  0  0  0  0  0  0  0  0  0  0  0
   21.7930   15.9870    6.7630 C   0  0  0  0  0  0  0  0  0  0  0  0
   20.6230   16.5060    6.4540 N   0  0  0  0  0  0  0  0  0  0  0  0
   18.9504   19.6134    8.5356 H   0  0  0  0  0  0  0  0  0  0  0  0
   19.8320   19.3891    6.9867 H   0  0  0  0  0  0  0  0  0  0  0  0
   18.0430   19.5504    6.9867 H   0  0  0  0  0  0  0  0  0  0  0  0
   18.2793   17.4227    8.6353 H   0  0  0  0  0  0  0  0  0  0  0  0
   18.1803   17.2791    6.8271 H   0  0  0  0  0  0  0  0  0  0  0  0
   20.8285   16.9454    9.7554 H   0  0  0  0  0  0  0  0  0  0  0  0
   21.6914   13.9873   10.7548 H   0  0  0  0  0  0  0  0  0  0  0  0
   22.0306   14.5655   13.3110 H   0  0  0  0  0  0  0  0  0  0  0  0
   24.6596   18.1908   12.8086 H   0  0  0  0  0  0  0  0  0  0  0  0
   23.9705   18.8293   15.5015 H   0  0  0  0  0  0  0  0  0  0  0  0
   25.4783   17.0196   16.1635 H   0  0  0  0  0  0  0  0  0  0  0  0
   26.7969   17.7269   15.1685 H   0  0  0  0  0  0  0  0  0  0  0  0
   25.4058   19.0226   17.5620 H   0  0  0  0  0  0  0  0  0  0  0  0
   27.0977   18.3820   17.4891 H   0  0  0  0  0  0  0  0  0  0  0  0
   26.3524   21.6860   15.0747 H   0  0  0  0  0  0  0  0  0  0  0  0
   22.4991   15.5588    6.0363 H   0  0  0  0  0  0  0  0  0  0  0  0
  1  2  1  0
  2  3  1  0
  3  4  2  0
  4  5  1  0
  5  6  1  0
  6  7  2  0
  6  8  2  0
  6  9  1  0
  9 10  2  0
 10 11  1  0
 11 12  1  0
 12 13  1  0
 13 14  2  0
 13 15  1  0
 15 16  1  0
 16 17  1  0
 17 18  1  0
 18 19  1  0
 19 20  2  0
 19 21  1  0
 21 22  1  0
 22 23  2  0
 12 24  2  0
  5 25  1  0
 25 26  2  0
 26  3  1  0
 24  9  1  0
 22 16  1  0
  1 27  1  0
  1 28  1  0
  1 29  1  0
  2 30  1  0
  2 31  1  0
  4 32  1  0
 10 33  1  0
 11 34  1  0
 15 35  1  0
 16 36  1  1
 17 37  1  0
 17 38  1  0
 18 39  1  0
 18 40  1  0
 21 41  1  0
 25 42  1  0
M  END
>  <meeko>  (1028) 
{"is_sidechain": [true], "free_energy": -10.31, "intermolecular_energy": 0.0, "internal_energy": -10.31, "cluster_size": 20, "cluster_id": 1, "rank_in_cluster": 1}

>  <_RMSD_MCS_to_ref>  (1028) 
0.38701909226519826

$$$$
ligand
     RDKit          3D

 41 43  0  0  0  0  0  0  0  0999 V2000
   18.9090   19.1540    7.5370 C   0  0  0  0  0  0  0  0  0  0  0  0
   18.7730   17.6460    7.6780 C   0  0  0  0  0  0  0  0  0  0  0  0
   20.0950   16.9660    7.7430 C   0  0  0  0  0  0  0  0  0  0  0  0
   20.7580   16.4570    8.8420 C   0  0  0  0  0  0  0  0  0  0  0  0
   21.9280   15.9710    8.3320 N   0  0  0  0  0  0  0  0  0  0  0  0
   23.0800   15.0950    9.1710 S   0  0  0  0  0  6  0  0  0  0  0  0
   24.3730   15.5850    8.7350 O   0  0  0  0  0  0  0  0  0  0  0  0
   22.6930   13.7010    9.0760 O   0  0  0  0  0  0  0  0  0  0  0  0
   23.0030   15.4680   10.8510 C   0  0  0  0  0  0  0  0  0  0  0  0
   24.0040   16.1500   11.5710 C   0  0  0  0  0  0  0  0  0  0  0  0
   23.5140   16.2130   12.8570 C   0  0  0  0  0  0  0  0  0  0  0  0
   24.0620   16.7850   14.0620 C   0  0  0  0  0  0  0  0  0  0  0  0
   24.1210   16.1740   15.1260 O   0  0  0  0  0  0  0  0  0  0  0  0
   24.5120   18.0800   13.9440 N   0  0  0  0  0  0  0  0  0  0  0  0
   24.9550   18.8520   15.0950 C   0  0  1  0  0  0  0  0  0  0  0  0
   25.9790   18.0960   15.9350 C   0  0  0  0  0  0  0  0  0  0  0  0
   26.4250   18.9690   17.0980 C   0  0  0  0  0  0  0  0  0  0  0  0
   26.9610   20.2960   16.6140 C   0  0  0  0  0  0  0  0  0  0  0  0
   27.8750   20.8840   17.1850 O   0  0  0  0  0  0  0  0  0  0  0  0
   26.3540   20.8370   15.5090 N   0  0  0  0  0  0  0  0  0  0  0  0
   25.5830   20.1580   14.6000 C   0  0  0  0  0  0  0  0  0  0  0  0
   25.4080   20.5900   13.4620 O   0  0  0  0  0  0  0  0  0  0  0  0
   22.2930   15.6040   12.8930 O   0  0  0  0  0  0  0  0  0  0  0  0
   21.9670   15.1310   11.6310 N   0  0  0  0  0  0  0  0  0  0  0  0
   21.9270   16.1330    6.9840 C   0  0  0  0  0  0  0  0  0  0  0  0
   20.8340   16.7570    6.5950 N   0  0  0  0  0  0  0  0  0  0  0  0
   18.9504   19.6134    8.5356 H   0  0  0  0  0  0  0  0  0  0  0  0
   19.8320   19.3891    6.9867 H   0  0  0  0  0  0  0  0  0  0  0  0
   18.0430   19.5504    6.9867 H   0  0  0  0  0  0  0  0  0  0  0  0
   18.2154   17.4253    8.6002 H   0  0  0  0  0  0  0  0  0  0  0  0
   18.2433   17.2702    6.7902 H   0  0  0  0  0  0  0  0  0  0  0  0
   20.4209   16.4456    9.8890 H   0  0  0  0  0  0  0  0  0  0  0  0
   24.9592   16.5427   11.1924 H   0  0  0  0  0  0  0  0  0  0  0  0
   24.5360   18.5166   13.0114 H   0  0  0  0  0  0  0  0  0  0  0  0
   24.0787   19.0476   15.7305 H   0  0  0  0  0  0  0  0  0  0  0  0
   25.5248   17.1724   16.3230 H   0  0  0  0  0  0  0  0  0  0  0  0
   26.8494   17.8430   15.3117 H   0  0  0  0  0  0  0  0  0  0  0  0
   25.5657   19.1497   17.7605 H   0  0  0  0  0  0  0  0  0  0  0  0
   27.2285   18.4456   17.6369 H   0  0  0  0  0  0  0  0  0  0  0  0
   26.4896   21.8451   15.3471 H   0  0  0  0  0  0  0  0  0  0  0  0
   22.7270   15.7910    6.3109 H   0  0  0  0  0  0  0  0  0  0  0  0
  1  2  1  0
  2  3  1  0
  3  4  2  0
  4  5  1  0
  5  6  1  0
  6  7  2  0
  6  8  2  0
  6  9  1  0
  9 10  1  0
 10 11  2  0
 11 12  1  0
 12 13  2  0
 12 14  1  0
 14 15  1  0
 15 16  1  0
 16 17  1  0
 17 18  1  0
 18 19  2  0
 18 20  1  0
 20 21  1  0
 21 22  2  0
 11 23  1  0
 23 24  1  0
  5 25  1  0
 25 26  2  0
 26  3  1  0
 24  9  2  0
 21 15  1  0
  1 27  1  0
  1 28  1  0
  1 29  1  0
  2 30  1  0
  2 31  1  0
  4 32  1  0
 10 33  1  0
 14 34  1  0
 15 35  1  1
 16 36  1  0
 16 37  1  0
 17 38  1  0
 17 39  1  0
 20 40  1  0
 25 41  1  0
M  END
>  <meeko>  (1029) 
{"is_sidechain": [true], "free_energy": -10.31, "intermolecular_energy": 0.0, "internal_energy": -10.31, "cluster_size": 20, "cluster_id": 1, "rank_in_cluster": 1}

>  <_RMSD_MCS_to_ref>  (1029) 
0.6198138609471574

$$$$
ligand
     RDKit          3D

 53 57  0  0  0  0  0  0  0  0999 V2000
   18.9090   19.1540    7.5370 C   0  0  0  0  0  0  0  0  0  0  0  0
   18.7730   17.6460    7.6780 C   0  0  0  0  0  0  0  0  0  0  0  0
   20.0960   16.9680    7.7660 C   0  0  0  0  0  0  0  0  0  0  0  0
   20.9460   16.5890    6.7480 C   0  0  0  0  0  0  0  0  0  0  0  0
   22.0110   16.0290    7.3930 N   0  0  0  0  0  0  0  0  0  0  0  0
   23.2860   15.2320    6.6540 S   0  0  0  0  0  6  0  0  0  0  0  0
   22.7290   14.5810    5.4840 O   0  0  0  0  0  0  0  0  0  0  0  0
   24.3900   16.1630    6.5860 O   0  0  0  0  0  0  0  0  0  0  0  0
   23.8370   13.9150    7.6660 C   0  0  0  0  0  0  0  0  0  0  0  0
   23.5110   12.6320    7.3200 N   0  0  0  0  0  0  0  0  0  0  0  0
   23.9320   11.7040    8.1980 N   0  0  0  0  0  0  0  0  0  0  0  0
   24.5840   12.4170    9.1180 C   0  0  0  0  0  0  0  0  0  0  0  0
   24.5670   13.7970    8.8350 C   0  0  0  0  0  0  0  0  0  0  0  0
   25.1020   14.9100    9.5820 C   0  0  0  0  0  0  0  0  0  0  0  0
   26.1590   15.6690    9.0330 C   0  0  0  0  0  0  0  0  0  0  0  0
   26.7420   16.7220    9.7500 C   0  0  0  0  0  0  0  0  0  0  0  0
   26.2510   16.9990   11.0130 C   0  0  0  0  0  0  0  0  0  0  0  0
   25.1950   16.2540   11.5350 C   0  0  0  0  0  0  0  0  0  0  0  0
   24.5970   15.2140   10.8510 C   0  0  0  0  0  0  0  0  0  0  0  0
   24.8920   16.7700   12.8740 C   0  0  0  0  0  0  0  0  0  0  0  0
   23.9700   16.3870   13.5650 O   0  0  0  0  0  0  0  0  0  0  0  0
   25.8330   17.7490   13.1490 N   0  0  0  0  0  0  0  0  0  0  0  0
   25.7670   18.6610   14.2850 C   0  0  2  0  0  0  0  0  0  0  0  0
   26.5390   19.9640   14.0770 C   0  0  0  0  0  0  0  0  0  0  0  0
   26.3520   20.8600   15.2900 C   0  0  0  0  0  0  0  0  0  0  0  0
   26.7840   20.1620   16.5600 C   0  0  0  0  0  0  0  0  0  0  0  0
   27.1150   20.7810   17.5660 O   0  0  0  0  0  0  0  0  0  0  0  0
   26.7100   18.7920   16.5660 N   0  0  0  0  0  0  0  0  0  0  0  0
   26.2180   17.9680   15.5800 C   0  0  0  0  0  0  0  0  0  0  0  0
   26.0640   16.7650   15.7940 O   0  0  0  0  0  0  0  0  0  0  0  0
   26.6720   18.0400   11.9930 C   0  0  0  0  0  0  0  0  0  0  0  0
   21.7850   16.0530    8.7310 C   0  0  0  0  0  0  0  0  0  0  0  0
   20.6260   16.6220    8.9930 N   0  0  0  0  0  0  0  0  0  0  0  0
   18.9504   19.6134    8.5356 H   0  0  0  0  0  0  0  0  0  0  0  0
   19.8320   19.3891    6.9867 H   0  0  0  0  0  0  0  0  0  0  0  0
   18.0430   19.5504    6.9867 H   0  0  0  0  0  0  0  0  0  0  0  0
   18.2005   17.4257    8.5911 H   0  0  0  0  0  0  0  0  0  0  0  0
   18.2586   17.2680    6.7822 H   0  0  0  0  0  0  0  0  0  0  0  0
   20.7994   16.7102    5.6646 H   0  0  0  0  0  0  0  0  0  0  0  0
   22.9895   12.3976    6.4633 H   0  0  0  0  0  0  0  0  0  0  0  0
   25.0783   11.9776    9.9970 H   0  0  0  0  0  0  0  0  0  0  0  0
   26.5306   15.4294    8.0258 H   0  0  0  0  0  0  0  0  0  0  0  0
   27.5660   17.3111    9.3211 H   0  0  0  0  0  0  0  0  0  0  0  0
   23.7593   14.6486   11.2853 H   0  0  0  0  0  0  0  0  0  0  0  0
   24.7075   18.9424   14.3757 H   0  0  0  0  0  0  0  0  0  0  0  0
   27.6082   19.7405   13.9471 H   0  0  0  0  0  0  0  0  0  0  0  0
   26.1610   20.4761   13.1799 H   0  0  0  0  0  0  0  0  0  0  0  0
   26.9545   21.7709   15.1590 H   0  0  0  0  0  0  0  0  0  0  0  0
   25.2841   21.1091   15.3765 H   0  0  0  0  0  0  0  0  0  0  0  0
   27.0660   18.3234   17.4113 H   0  0  0  0  0  0  0  0  0  0  0  0
   26.4774   19.0511   11.6060 H   0  0  0  0  0  0  0  0  0  0  0  0
   27.7485   18.0181   12.2181 H   0  0  0  0  0  0  0  0  0  0  0  0
   22.4732   15.6533    9.4904 H   0  0  0  0  0  0  0  0  0  0  0  0
  1  2  1  0
  2  3  1  0
  3  4  2  0
  4  5  1  0
  5  6  1  0
  6  7  2  0
  6  8  2  0
  6  9  1  0
  9 10  1  0
 10 11  1  0
 11 12  2  0
 12 13  1  0
 13 14  1  0
 14 15  2  0
 15 16  1  0
 16 17  2  0
 17 18  1  0
 18 19  2  0
 18 20  1  0
 20 21  2  0
 20 22  1  0
 22 23  1  0
 23 24  1  0
 24 25  1  0
 25 26  1  0
 26 27  2  0
 26 28  1  0
 28 29  1  0
 29 30  2  0
 22 31  1  0
  5 32  1  0
 32 33  2  0
 33  3  1  0
 13  9  2  0
 19 14  1  0
 29 23  1  0
 31 17  1  0
  1 34  1  0
  1 35  1  0
  1 36  1  0
  2 37  1  0
  2 38  1  0
  4 39  1  0
 10 40  1  0
 12 41  1  0
 15 42  1  0
 16 43  1  0
 19 44  1  0
 23 45  1  1
 24 46  1  0
 24 47  1  0
 25 48  1  0
 25 49  1  0
 28 50  1  0
 31 51  1  0
 31 52  1  0
 32 53  1  0
M  END
>  <meeko>  (1030) 
{"is_sidechain": [true], "free_energy": -10.31, "intermolecular_energy": 0.0, "internal_energy": -10.31, "cluster_size": 18, "cluster_id": 1, "rank_in_cluster": 1}

>  <_RMSD_MCS_to_ref>  (1030) 
1.9018924931645202

$$$$
ligand
     RDKit          3D

 55 59  0  0  0  0  0  0  0  0999 V2000
   18.9090   19.1540    7.5370 C   0  0  0  0  0  0  0  0  0  0  0  0
   18.7730   17.6460    7.6780 C   0  0  0  0  0  0  0  0  0  0  0  0
   19.5770   16.9120    6.6630 C   0  0  0  0  0  0  0  0  0  0  0  0
   20.9480   16.8530    6.5170 C   0  0  0  0  0  0  0  0  0  0  0  0
   21.1350   16.0600    5.4210 N   0  0  0  0  0  0  0  0  0  0  0  0
   22.6050   15.4360    4.8980 S   0  0  0  0  0  6  0  0  0  0  0  0
   22.2790   14.4650    3.8720 O   0  0  0  0  0  0  0  0  0  0  0  0
   23.4530   16.5830    4.6420 O   0  0  0  0  0  0  0  0  0  0  0  0
   23.2140   14.5840    6.3060 C   0  0  0  0  0  0  0  0  0  0  0  0
   23.6220   13.2710    6.1800 C   0  0  0  0  0  0  0  0  0  0  0  0
   24.1190   12.5590    7.2140 N   0  0  0  0  0  0  0  0  0  0  0  0
   24.1840   13.1850    8.4170 C   0  0  0  0  0  0  0  0  0  0  0  0
   23.7840   14.5030    8.6540 C   0  0  0  0  0  0  0  0  0  0  0  0
   23.8870   15.1190    9.9840 C   0  0  0  0  0  0  0  0  0  0  0  0
   22.9140   14.8460   10.9800 C   0  0  0  0  0  0  0  0  0  0  0  0
   22.9890   15.4190   12.2540 C   0  0  0  0  0  0  0  0  0  0  0  0
   24.0470   16.2680   12.5050 C   0  0  0  0  0  0  0  0  0  0  0  0
   25.0190   16.5590   11.5530 C   0  0  0  0  0  0  0  0  0  0  0  0
   24.9530   15.9910   10.2910 C   0  0  0  0  0  0  0  0  0  0  0  0
   26.0350   17.4900   12.1290 C   0  0  0  0  0  0  0  0  0  0  0  0
   25.4980   17.7660   13.4550 N   0  0  0  0  0  0  0  0  0  0  0  0
   26.2580   18.4280   14.5080 C   0  0  2  0  0  0  0  0  0  0  0  0
   25.8050   18.0130   15.9050 C   0  0  0  0  0  0  0  0  0  0  0  0
   26.7000   18.6740   16.9430 C   0  0  0  0  0  0  0  0  0  0  0  0
   26.7130   20.1760   16.7750 C   0  0  0  0  0  0  0  0  0  0  0  0
   26.7700   20.9430   17.7300 O   0  0  0  0  0  0  0  0  0  0  0  0
   26.6760   20.6480   15.4880 N   0  0  0  0  0  0  0  0  0  0  0  0
   26.1920   19.9610   14.3980 C   0  0  0  0  0  0  0  0  0  0  0  0
   25.7380   20.5700   13.4310 O   0  0  0  0  0  0  0  0  0  0  0  0
   24.3760   16.9990   13.7330 C   0  0  0  0  0  0  0  0  0  0  0  0
   23.7610   16.9230   14.7780 O   0  0  0  0  0  0  0  0  0  0  0  0
   23.2820   15.2080    7.5530 C   0  0  0  0  0  0  0  0  0  0  0  0
   19.9270   15.6340    4.9690 C   0  0  0  0  0  0  0  0  0  0  0  0
   18.9560   16.1410    5.6990 N   0  0  0  0  0  0  0  0  0  0  0  0
   18.9504   19.6134    8.5356 H   0  0  0  0  0  0  0  0  0  0  0  0
   19.8320   19.3891    6.9867 H   0  0  0  0  0  0  0  0  0  0  0  0
   18.0430   19.5504    6.9867 H   0  0  0  0  0  0  0  0  0  0  0  0
   19.1149   17.3517    8.6812 H   0  0  0  0  0  0  0  0  0  0  0  0
   17.7153   17.3862    7.5235 H   0  0  0  0  0  0  0  0  0  0  0  0
   21.7151   17.3348    7.1410 H   0  0  0  0  0  0  0  0  0  0  0  0
   23.5387   12.7850    5.1967 H   0  0  0  0  0  0  0  0  0  0  0  0
   24.5809   12.6124    9.2682 H   0  0  0  0  0  0  0  0  0  0  0  0
   22.0807   14.1675   10.7447 H   0  0  0  0  0  0  0  0  0  0  0  0
   22.2348   15.2014   13.0246 H   0  0  0  0  0  0  0  0  0  0  0  0
   25.7221   16.2170    9.5377 H   0  0  0  0  0  0  0  0  0  0  0  0
   27.0226   17.0098   12.1927 H   0  0  0  0  0  0  0  0  0  0  0  0
   26.1920   18.3949   11.5236 H   0  0  0  0  0  0  0  0  0  0  0  0
   27.2981   18.1014   14.3613 H   0  0  0  0  0  0  0  0  0  0  0  0
   24.7636   18.3304   16.0626 H   0  0  0  0  0  0  0  0  0  0  0  0
   25.8728   16.9195   16.0038 H   0  0  0  0  0  0  0  0  0  0  0  0
   26.3262   18.4284   17.9480 H   0  0  0  0  0  0  0  0  0  0  0  0
   27.7254   18.2992   16.8088 H   0  0  0  0  0  0  0  0  0  0  0  0
   27.0413   21.5968   15.3231 H   0  0  0  0  0  0  0  0  0  0  0  0
   22.9431   16.2479    7.6701 H   0  0  0  0  0  0  0  0  0  0  0  0
   19.7806   14.9595    4.1125 H   0  0  0  0  0  0  0  0  0  0  0  0
  1  2  1  0
  2  3  1  0
  3  4  2  0
  4  5  1  0
  5  6  1  0
  6  7  2  0
  6  8  2  0
  6  9  1  0
  9 10  2  0
 10 11  1  0
 11 12  2  0
 12 13  1  0
 13 14  1  0
 14 15  2  0
 15 16  1  0
 16 17  2  0
 17 18  1  0
 18 19  2  0
 18 20  1  0
 20 21  1  0
 21 22  1  0
 22 23  1  0
 23 24  1  0
 24 25  1  0
 25 26  2  0
 25 27  1  0
 27 28  1  0
 28 29  2  0
 21 30  1  0
 30 31  2  0
 13 32  2  0
  5 33  1  0
 33 34  2  0
 34  3  1  0
 32  9  1  0
 19 14  1  0
 28 22  1  0
 30 17  1  0
  1 35  1  0
  1 36  1  0
  1 37  1  0
  2 38  1  0
  2 39  1  0
  4 40  1  0
 10 41  1  0
 12 42  1  0
 15 43  1  0
 16 44  1  0
 19 45  1  0
 20 46  1  0
 20 47  1  0
 22 48  1  6
 23 49  1  0
 23 50  1  0
 24 51  1  0
 24 52  1  0
 27 53  1  0
 32 54  1  0
 33 55  1  0
M  END
>  <meeko>  (1031) 
{"is_sidechain": [true], "free_energy": -10.31, "intermolecular_energy": 0.0, "internal_energy": -10.31, "cluster_size": 19, "cluster_id": 1, "rank_in_cluster": 1}

>  <_RMSD_MCS_to_ref>  (1031) 
0.918678973067064

$$$$
ligand
     RDKit          3D

 55 59  0  0  0  0  0  0  0  0999 V2000
   18.8250   19.0170    7.5350 C   0  0  0  0  0  0  0  0  0  0  0  0
   18.5200   17.5420    7.7330 C   0  0  0  0  0  0  0  0  0  0  0  0
   19.5400   16.6650    7.0950 C   0  0  0  0  0  0  0  0  0  0  0  0
   20.9090   16.8370    7.0270 C   0  0  0  0  0  0  0  0  0  0  0  0
   21.3500   15.7410    6.3440 N   0  0  0  0  0  0  0  0  0  0  0  0
   22.9320   15.4520    5.8560 S   0  0  0  0  0  6  0  0  0  0  0  0
   22.8980   14.1550    5.2060 O   0  0  0  0  0  0  0  0  0  0  0  0
   23.3710   16.6520    5.1700 O   0  0  0  0  0  0  0  0  0  0  0  0
   23.8500   15.3170    7.3620 C   0  0  0  0  0  0  0  0  0  0  0  0
   25.2230   15.0700    7.3230 C   0  0  0  0  0  0  0  0  0  0  0  0
   25.9230   14.9320    8.5190 C   0  0  0  0  0  0  0  0  0  0  0  0
   25.2510   15.0300    9.7420 C   0  0  0  0  0  0  0  0  0  0  0  0
   23.8690   15.2840    9.7940 C   0  0  0  0  0  0  0  0  0  0  0  0
   23.1570   15.3380   11.0770 C   0  0  0  0  0  0  0  0  0  0  0  0
   21.9380   14.6520   11.2630 C   0  0  0  0  0  0  0  0  0  0  0  0
   21.2450   14.6840   12.4910 C   0  0  0  0  0  0  0  0  0  0  0  0
   21.7480   15.4030   13.5750 C   0  0  0  0  0  0  0  0  0  0  0  0
   22.9400   16.0730   13.3860 C   0  0  0  0  0  0  0  0  0  0  0  0
   23.6250   16.0500   12.1800 C   0  0  0  0  0  0  0  0  0  0  0  0
   24.8150   16.8930   12.3570 C   0  0  0  0  0  0  0  0  0  0  0  0
   25.6060   17.1790   11.4790 O   0  0  0  0  0  0  0  0  0  0  0  0
   24.8270   17.2990   13.6650 N   0  0  0  0  0  0  0  0  0  0  0  0
   25.7920   18.2330   14.2290 C   0  0  1  0  0  0  0  0  0  0  0  0
   25.2530   19.6530   14.3830 C   0  0  0  0  0  0  0  0  0  0  0  0
   26.3260   20.5430   14.9890 C   0  0  0  0  0  0  0  0  0  0  0  0
   26.8030   19.9930   16.3120 C   0  0  0  0  0  0  0  0  0  0  0  0
   27.1970   20.7140   17.2230 O   0  0  0  0  0  0  0  0  0  0  0  0
   26.8250   18.6250   16.4340 N   0  0  0  0  0  0  0  0  0  0  0  0
   26.2830   17.6950   15.5760 C   0  0  0  0  0  0  0  0  0  0  0  0
   26.2640   16.5040   15.8840 O   0  0  0  0  0  0  0  0  0  0  0  0
   23.7030   16.8940   14.3240 C   0  0  0  0  0  0  0  0  0  0  0  0
   23.3590   17.1280   15.4660 O   0  0  0  0  0  0  0  0  0  0  0  0
   23.1830   15.4580    8.5820 C   0  0  0  0  0  0  0  0  0  0  0  0
   20.2840   14.9730    5.9990 C   0  0  0  0  0  0  0  0  0  0  0  0
   19.1650   15.5010    6.4500 N   0  0  0  0  0  0  0  0  0  0  0  0
   18.9260   19.5054    8.5155 H   0  0  0  0  0  0  0  0  0  0  0  0
   19.7645   19.1250    6.9731 H   0  0  0  0  0  0  0  0  0  0  0  0
   18.0054   19.4887    6.9731 H   0  0  0  0  0  0  0  0  0  0  0  0
   18.4936   17.3276    8.8116 H   0  0  0  0  0  0  0  0  0  0  0  0
   17.5502   17.3316    7.2585 H   0  0  0  0  0  0  0  0  0  0  0  0
   21.5068   17.6674    7.4309 H   0  0  0  0  0  0  0  0  0  0  0  0
   25.7461   14.9853    6.3590 H   0  0  0  0  0  0  0  0  0  0  0  0
   27.0069   14.7455    8.5020 H   0  0  0  0  0  0  0  0  0  0  0  0
   25.8134   14.9062   10.6792 H   0  0  0  0  0  0  0  0  0  0  0  0
   21.5161   14.0758   10.4263 H   0  0  0  0  0  0  0  0  0  0  0  0
   20.2971   14.1357   12.5949 H   0  0  0  0  0  0  0  0  0  0  0  0
   21.2181   15.4348   14.5384 H   0  0  0  0  0  0  0  0  0  0  0  0
   26.6266   18.3080   13.5164 H   0  0  0  0  0  0  0  0  0  0  0  0
   24.9668   20.0450   13.3959 H   0  0  0  0  0  0  0  0  0  0  0  0
   24.3733   19.6401   15.0433 H   0  0  0  0  0  0  0  0  0  0  0  0
   27.1781   20.6018   14.2958 H   0  0  0  0  0  0  0  0  0  0  0  0
   25.8974   21.5417   15.1592 H   0  0  0  0  0  0  0  0  0  0  0  0
   27.3036   18.2509   17.2658 H   0  0  0  0  0  0  0  0  0  0  0  0
   22.1117   15.7074    8.5924 H   0  0  0  0  0  0  0  0  0  0  0  0
   20.3468   14.0385    5.4222 H   0  0  0  0  0  0  0  0  0  0  0  0
  1  2  1  0
  2  3  1  0
  3  4  2  0
  4  5  1  0
  5  6  1  0
  6  7  2  0
  6  8  2  0
  6  9  1  0
  9 10  2  0
 10 11  1  0
 11 12  2  0
 12 13  1  0
 13 14  1  0
 14 15  2  0
 15 16  1  0
 16 17  2  0
 17 18  1  0
 18 19  2  0
 19 20  1  0
 20 21  2  0
 20 22  1  0
 22 23  1  0
 23 24  1  0
 24 25  1  0
 25 26  1  0
 26 27  2  0
 26 28  1  0
 28 29  1  0
 29 30  2  0
 22 31  1  0
 31 32  2  0
 13 33  2  0
  5 34  1  0
 34 35  2  0
 35  3  1  0
 33  9  1  0
 19 14  1  0
 29 23  1  0
 31 18  1  0
  1 36  1  0
  1 37  1  0
  1 38  1  0
  2 39  1  0
  2 40  1  0
  4 41  1  0
 10 42  1  0
 11 43  1  0
 12 44  1  0
 15 45  1  0
 16 46  1  0
 17 47  1  0
 23 48  1  6
 24 49  1  0
 24 50  1  0
 25 51  1  0
 25 52  1  0
 28 53  1  0
 33 54  1  0
 34 55  1  0
M  END
>  <meeko>  (1032) 
{"is_sidechain": [true], "free_energy": -10.3, "intermolecular_energy": 0.0, "internal_energy": -10.3, "cluster_size": 19, "cluster_id": 1, "rank_in_cluster": 1}

>  <_RMSD_MCS_to_ref>  (1032) 
1.9625294336080104

$$$$
ligand
     RDKit          3D

 44 47  0  0  0  0  0  0  0  0999 V2000
   18.8250   19.0170    7.5350 C   0  0  0  0  0  0  0  0  0  0  0  0
   18.5200   17.5420    7.7330 C   0  0  0  0  0  0  0  0  0  0  0  0
   19.7080   16.6820    7.4800 C   0  0  0  0  0  0  0  0  0  0  0  0
   20.7880   16.4300    8.3040 C   0  0  0  0  0  0  0  0  0  0  0  0
   21.5760   15.5880    7.5730 N   0  0  0  0  0  0  0  0  0  0  0  0
   23.1710   15.1660    7.9400 S   0  0  0  0  0  6  0  0  0  0  0  0
   23.6010   14.3570    6.8160 O   0  0  0  0  0  0  0  0  0  0  0  0
   23.8310   16.4200    8.2590 O   0  0  0  0  0  0  0  0  0  0  0  0
   23.1760   14.2320    9.2770 O   0  0  0  0  0  0  0  0  0  0  0  0
   23.0390   14.8800   10.4670 C   0  0  0  0  0  0  0  0  0  0  0  0
   21.8510   14.7850   11.2120 C   0  0  0  0  0  0  0  0  0  0  0  0
   21.6960   15.3790   12.4270 N   0  0  0  0  0  0  0  0  0  0  0  0
   22.7830   16.0730   12.8160 C   0  0  0  0  0  0  0  0  0  0  0  0
   23.9310   16.1750   12.0740 C   0  0  0  0  0  0  0  0  0  0  0  0
   24.1180   15.5910   10.8730 N   0  0  0  0  0  0  0  0  0  0  0  0
   24.8790   16.9980   12.8230 C   0  0  0  0  0  0  0  0  0  0  0  0
   25.9680   17.3620   12.4200 O   0  0  0  0  0  0  0  0  0  0  0  0
   24.2730   17.2960   14.0180 N   0  0  0  0  0  0  0  0  0  0  0  0
   24.7960   18.2300   15.0070 C   0  0  1  0  0  0  0  0  0  0  0  0
   25.9540   17.6880   15.8380 C   0  0  0  0  0  0  0  0  0  0  0  0
   26.3850   18.7460   16.8440 C   0  0  0  0  0  0  0  0  0  0  0  0
   26.7490   20.0430   16.1560 C   0  0  0  0  0  0  0  0  0  0  0  0
   27.5720   20.8240   16.6230 O   0  0  0  0  0  0  0  0  0  0  0  0
   26.0710   20.3370   14.9990 N   0  0  0  0  0  0  0  0  0  0  0  0
   25.2170   19.5200   14.2950 C   0  0  0  0  0  0  0  0  0  0  0  0
   24.7960   19.8520   13.1880 O   0  0  0  0  0  0  0  0  0  0  0  0
   22.9860   16.8190   14.0580 C   0  0  0  0  0  0  0  0  0  0  0  0
   22.1620   16.9740   14.9390 O   0  0  0  0  0  0  0  0  0  0  0  0
   20.9970   15.3720    6.3620 C   0  0  0  0  0  0  0  0  0  0  0  0
   19.8570   16.0240    6.2730 N   0  0  0  0  0  0  0  0  0  0  0  0
   18.9260   19.5054    8.5155 H   0  0  0  0  0  0  0  0  0  0  0  0
   19.7645   19.1250    6.9731 H   0  0  0  0  0  0  0  0  0  0  0  0
   18.0054   19.4887    6.9731 H   0  0  0  0  0  0  0  0  0  0  0  0
   18.1841   17.3859    8.7688 H   0  0  0  0  0  0  0  0  0  0  0  0
   17.7394   17.2593    7.0114 H   0  0  0  0  0  0  0  0  0  0  0  0
   20.9710   16.8186    9.3167 H   0  0  0  0  0  0  0  0  0  0  0  0
   21.0123   14.2072   10.7964 H   0  0  0  0  0  0  0  0  0  0  0  0
   23.9845   18.4157   15.7260 H   0  0  0  0  0  0  0  0  0  0  0  0
   25.6315   16.7820   16.3720 H   0  0  0  0  0  0  0  0  0  0  0  0
   26.7982   17.4391   15.1782 H   0  0  0  0  0  0  0  0  0  0  0  0
   25.5578   18.9321   17.5448 H   0  0  0  0  0  0  0  0  0  0  0  0
   27.2723   18.3757   17.3785 H   0  0  0  0  0  0  0  0  0  0  0  0
   26.2192   21.2802   14.6126 H   0  0  0  0  0  0  0  0  0  0  0  0
   21.4218   14.7407    5.5677 H   0  0  0  0  0  0  0  0  0  0  0  0
  1  2  1  0
  2  3  1  0
  3  4  2  0
  4  5  1  0
  5  6  1  0
  6  7  2  0
  6  8  2  0
  6  9  1  0
  9 10  1  0
 10 11  2  0
 11 12  1  0
 12 13  2  0
 13 14  1  0
 14 15  2  0
 14 16  1  0
 16 17  2  0
 16 18  1  0
 18 19  1  0
 19 20  1  0
 20 21  1  0
 21 22  1  0
 22 23  2  0
 22 24  1  0
 24 25  1  0
 25 26  2  0
 18 27  1  0
 27 28  2  0
  5 29  1  0
 29 30  2  0
 30  3  1  0
 15 10  1  0
 25 19  1  0
 27 13  1  0
  1 31  1  0
  1 32  1  0
  1 33  1  0
  2 34  1  0
  2 35  1  0
  4 36  1  0
 11 37  1  0
 19 38  1  1
 20 39  1  0
 20 40  1  0
 21 41  1  0
 21 42  1  0
 24 43  1  0
 29 44  1  0
M  END
>  <meeko>  (1033) 
{"is_sidechain": [true], "free_energy": -10.3, "intermolecular_energy": 0.0, "internal_energy": -10.3, "cluster_size": 20, "cluster_id": 1, "rank_in_cluster": 1}

>  <_RMSD_MCS_to_ref>  (1033) 
0.39362654527211105

$$$$
ligand
     RDKit          3D

 45 48  0  0  0  0  0  0  0  0999 V2000
   18.8250   19.0170    7.5350 C   0  0  0  0  0  0  0  0  0  0  0  0
   18.5200   17.5420    7.7330 C   0  0  0  0  0  0  0  0  0  0  0  0
   19.6840   16.7960    8.2850 C   0  0  0  0  0  0  0  0  0  0  0  0
   19.8010   16.1430    9.4970 C   0  0  0  0  0  0  0  0  0  0  0  0
   21.0790   15.6620    9.4950 N   0  0  0  0  0  0  0  0  0  0  0  0
   21.7260   14.5870   10.6160 S   0  0  0  0  0  6  0  0  0  0  0  0
   20.8680   14.6670   11.7820 O   0  0  0  0  0  0  0  0  0  0  0  0
   21.9330   13.3490    9.8860 O   0  0  0  0  0  0  0  0  0  0  0  0
   23.2810   15.2980   11.0070 C   0  0  0  0  0  0  0  0  0  0  0  0
   24.3370   15.2510   10.0860 C   0  0  0  0  0  0  0  0  0  0  0  0
   25.5900   15.8030   10.4140 C   0  0  0  0  0  0  0  0  0  0  0  0
   25.8090   16.4100   11.6560 C   0  0  0  0  0  0  0  0  0  0  0  0
   24.7530   16.4530   12.5440 C   0  0  0  0  0  0  0  0  0  0  0  0
   23.5050   15.9130   12.2190 C   0  0  0  0  0  0  0  0  0  0  0  0
   22.6460   16.1520   13.2890 N   0  0  0  0  0  0  0  0  0  0  0  0
   23.3270   16.8700   14.2790 C   0  0  0  0  0  0  0  0  0  0  0  0
   22.8390   17.2970   15.3120 O   0  0  0  0  0  0  0  0  0  0  0  0
   24.6600   17.0030   13.8340 N   0  0  0  0  0  0  0  0  0  0  0  0
   25.6810   17.7880   14.4990 C   0  0  2  0  0  0  0  0  0  0  0  0
   25.5840   17.7460   16.0250 C   0  0  0  0  0  0  0  0  0  0  0  0
   26.7110   18.5710   16.6250 C   0  0  0  0  0  0  0  0  0  0  0  0
   26.6850   19.9910   16.1120 C   0  0  0  0  0  0  0  0  0  0  0  0
   27.1970   20.9200   16.7310 O   0  0  0  0  0  0  0  0  0  0  0  0
   26.1310   20.1880   14.8720 N   0  0  0  0  0  0  0  0  0  0  0  0
   25.6480   19.2380   13.9990 C   0  0  0  0  0  0  0  0  0  0  0  0
   25.3170   19.5610   12.8600 O   0  0  0  0  0  0  0  0  0  0  0  0
   21.6710   15.9750    8.3130 C   0  0  0  0  0  0  0  0  0  0  0  0
   20.8510   16.6730    7.5570 N   0  0  0  0  0  0  0  0  0  0  0  0
   18.9260   19.5054    8.5155 H   0  0  0  0  0  0  0  0  0  0  0  0
   19.7645   19.1250    6.9731 H   0  0  0  0  0  0  0  0  0  0  0  0
   18.0054   19.4887    6.9731 H   0  0  0  0  0  0  0  0  0  0  0  0
   17.6746   17.4456    8.4302 H   0  0  0  0  0  0  0  0  0  0  0  0
   18.2791   17.1121    6.7496 H   0  0  0  0  0  0  0  0  0  0  0  0
   19.0393   16.0353   10.2833 H   0  0  0  0  0  0  0  0  0  0  0  0
   24.1860   14.7809    9.1030 H   0  0  0  0  0  0  0  0  0  0  0  0
   26.4101   15.7565    9.6823 H   0  0  0  0  0  0  0  0  0  0  0  0
   26.7886   16.8379   11.9155 H   0  0  0  0  0  0  0  0  0  0  0  0
   21.6634   15.8480   13.3433 H   0  0  0  0  0  0  0  0  0  0  0  0
   26.6458   17.3283   14.2388 H   0  0  0  0  0  0  0  0  0  0  0  0
   24.6160   18.1608   16.3428 H   0  0  0  0  0  0  0  0  0  0  0  0
   25.6666   16.7048   16.3701 H   0  0  0  0  0  0  0  0  0  0  0  0
   26.6024   18.5834   17.7196 H   0  0  0  0  0  0  0  0  0  0  0  0
   27.6684   18.1143   16.3339 H   0  0  0  0  0  0  0  0  0  0  0  0
   26.0687   21.1661   14.5552 H   0  0  0  0  0  0  0  0  0  0  0  0
   22.6931   15.6853    8.0278 H   0  0  0  0  0  0  0  0  0  0  0  0
  1  2  1  0
  2  3  1  0
  3  4  2  0
  4  5  1  0
  5  6  1  0
  6  7  2  0
  6  8  2  0
  6  9  1  0
  9 10  2  0
 10 11  1  0
 11 12  2  0
 12 13  1  0
 13 14  2  0
 14 15  1  0
 15 16  1  0
 16 17  2  0
 16 18  1  0
 18 19  1  0
 19 20  1  0
 20 21  1  0
 21 22  1  0
 22 23  2  0
 22 24  1  0
 24 25  1  0
 25 26  2  0
  5 27  1  0
 27 28  2  0
 28  3  1  0
 14  9  1  0
 25 19  1  0
 18 13  1  0
  1 29  1  0
  1 30  1  0
  1 31  1  0
  2 32  1  0
  2 33  1  0
  4 34  1  0
 10 35  1  0
 11 36  1  0
 12 37  1  0
 15 38  1  0
 19 39  1  1
 20 40  1  0
 20 41  1  0
 21 42  1  0
 21 43  1  0
 24 44  1  0
 27 45  1  0
M  END
>  <meeko>  (1034) 
{"is_sidechain": [true], "free_energy": -10.3, "intermolecular_energy": 0.0, "internal_energy": -10.3, "cluster_size": 20, "cluster_id": 1, "rank_in_cluster": 1}

>  <_RMSD_MCS_to_ref>  (1034) 
0.7210151793748102

$$$$
ligand
     RDKit          3D

 51 54  0  0  0  0  0  0  0  0999 V2000
   18.7970   18.8170    7.7190 C   0  0  0  0  0  0  0  0  0  0  0  0
   18.5280   17.3290    7.8810 C   0  0  0  0  0  0  0  0  0  0  0  0
   19.6500   16.4950    7.3700 C   0  0  0  0  0  0  0  0  0  0  0  0
   20.8360   16.1600    7.9920 C   0  0  0  0  0  0  0  0  0  0  0  0
   21.4940   15.4000    7.0690 N   0  0  0  0  0  0  0  0  0  0  0  0
   22.9010   14.5210    7.3370 S   0  0  0  0  0  6  0  0  0  0  0  0
   23.9980   15.4380    7.0830 O   0  0  0  0  0  0  0  0  0  0  0  0
   22.7370   13.2830    6.6000 O   0  0  0  0  0  0  0  0  0  0  0  0
   22.8460   14.1700    9.0720 C   0  0  0  0  0  0  0  0  0  0  0  0
   21.9510   13.2170    9.5580 C   0  0  0  0  0  0  0  0  0  0  0  0
   21.9120   12.9480   10.9260 C   0  0  0  0  0  0  0  0  0  0  0  0
   22.7660   13.6210   11.8160 C   0  0  0  0  0  0  0  0  0  0  0  0
   22.7380   13.3560   13.1940 C   0  0  0  0  0  0  0  0  0  0  0  0
   23.5940   14.0270   14.0710 C   0  0  0  0  0  0  0  0  0  0  0  0
   24.4890   14.9820   13.5810 C   0  0  0  0  0  0  0  0  0  0  0  0
   25.4250   15.7260   14.4710 C   0  0  0  0  0  0  0  0  0  0  0  0
   26.2120   15.1200   15.1900 O   0  0  0  0  0  0  0  0  0  0  0  0
   25.3780   17.1010   14.4110 N   0  0  0  0  0  0  0  0  0  0  0  0
   26.3550   17.9160   15.1220 C   0  0  2  0  0  0  0  0  0  0  0  0
   26.2400   17.7680   16.6350 C   0  0  0  0  0  0  0  0  0  0  0  0
   27.2570   18.6740   17.3120 C   0  0  0  0  0  0  0  0  0  0  0  0
   27.0880   20.1100   16.8740 C   0  0  0  0  0  0  0  0  0  0  0  0
   27.3030   21.0580   17.6230 O   0  0  0  0  0  0  0  0  0  0  0  0
   26.7080   20.3140   15.5720 N   0  0  0  0  0  0  0  0  0  0  0  0
   26.1250   19.3840   14.7470 C   0  0  0  0  0  0  0  0  0  0  0  0
   25.4710   19.7240   13.7620 O   0  0  0  0  0  0  0  0  0  0  0  0
   24.5370   15.2440   12.2050 C   0  0  0  0  0  0  0  0  0  0  0  0
   23.6810   14.5770   11.3140 C   0  0  0  0  0  0  0  0  0  0  0  0
   23.7170   14.8410    9.9360 C   0  0  0  0  0  0  0  0  0  0  0  0
   20.7090   15.2540    5.9690 C   0  0  0  0  0  0  0  0  0  0  0  0
   19.5830   15.9190    6.1160 N   0  0  0  0  0  0  0  0  0  0  0  0
   18.8815   19.2845    8.7111 H   0  0  0  0  0  0  0  0  0  0  0  0
   19.7359   18.9616    7.1643 H   0  0  0  0  0  0  0  0  0  0  0  0
   17.9682   19.2812    7.1643 H   0  0  0  0  0  0  0  0  0  0  0  0
   18.3818   17.1098    8.9490 H   0  0  0  0  0  0  0  0  0  0  0  0
   17.6304   17.0827    7.2947 H   0  0  0  0  0  0  0  0  0  0  0  0
   21.1734   16.4412    9.0005 H   0  0  0  0  0  0  0  0  0  0  0  0
   21.2816   12.6821    8.8682 H   0  0  0  0  0  0  0  0  0  0  0  0
   21.2042   12.2000   11.3128 H   0  0  0  0  0  0  0  0  0  0  0  0
   22.0326   12.6100   13.5888 H   0  0  0  0  0  0  0  0  0  0  0  0
   23.5635   13.8035   15.1476 H   0  0  0  0  0  0  0  0  0  0  0  0
   24.6419   17.5600   13.8557 H   0  0  0  0  0  0  0  0  0  0  0  0
   27.3602   17.5775   14.8304 H   0  0  0  0  0  0  0  0  0  0  0  0
   25.2264   18.0511   16.9551 H   0  0  0  0  0  0  0  0  0  0  0  0
   26.4351   16.7228   16.9170 H   0  0  0  0  0  0  0  0  0  0  0  0
   27.1218   18.6133   18.4020 H   0  0  0  0  0  0  0  0  0  0  0  0
   28.2653   18.3396   17.0264 H   0  0  0  0  0  0  0  0  0  0  0  0
   26.8752   21.2504   15.1770 H   0  0  0  0  0  0  0  0  0  0  0  0
   25.2549   15.9821   11.8179 H   0  0  0  0  0  0  0  0  0  0  0  0
   24.4307   15.5760    9.5355 H   0  0  0  0  0  0  0  0  0  0  0  0
   20.9772   14.6631    5.0808 H   0  0  0  0  0  0  0  0  0  0  0  0
  1  2  1  0
  2  3  1  0
  3  4  2  0
  4  5  1  0
  5  6  1  0
  6  7  2  0
  6  8  2  0
  6  9  1  0
  9 10  2  0
 10 11  1  0
 11 12  2  0
 12 13  1  0
 13 14  2  0
 14 15  1  0
 15 16  1  0
 16 17  2  0
 16 18  1  0
 18 19  1  0
 19 20  1  0
 20 21  1  0
 21 22  1  0
 22 23  2  0
 22 24  1  0
 24 25  1  0
 25 26  2  0
 15 27  2  0
 27 28  1  0
 28 29  2  0
  5 30  1  0
 30 31  2  0
 31  3  1  0
 29  9  1  0
 28 12  1  0
 25 19  1  0
  1 32  1  0
  1 33  1  0
  1 34  1  0
  2 35  1  0
  2 36  1  0
  4 37  1  0
 10 38  1  0
 11 39  1  0
 13 40  1  0
 14 41  1  0
 18 42  1  0
 19 43  1  6
 20 44  1  0
 20 45  1  0
 21 46  1  0
 21 47  1  0
 24 48  1  0
 27 49  1  0
 29 50  1  0
 30 51  1  0
M  END
>  <meeko>  (1035) 
{"is_sidechain": [true], "free_energy": -10.3, "intermolecular_energy": 0.0, "internal_energy": -10.3, "cluster_size": 16, "cluster_id": 1, "rank_in_cluster": 1}

>  <_RMSD_MCS_to_ref>  (1035) 
0.8125994639974167

$$$$
ligand
     RDKit          3D

 50 53  0  0  0  0  0  0  0  0999 V2000
   18.7970   18.8170    7.7190 C   0  0  0  0  0  0  0  0  0  0  0  0
   18.5280   17.3290    7.8810 C   0  0  0  0  0  0  0  0  0  0  0  0
   19.7830   16.5430    8.0190 C   0  0  0  0  0  0  0  0  0  0  0  0
   20.4060   16.0960    9.1680 C   0  0  0  0  0  0  0  0  0  0  0  0
   21.5020   15.4180    8.7130 N   0  0  0  0  0  0  0  0  0  0  0  0
   22.7020   14.7200    9.6570 S   0  0  0  0  0  6  0  0  0  0  0  0
   23.4350   15.8300   10.2400 O   0  0  0  0  0  0  0  0  0  0  0  0
   23.3480   13.7400    8.8000 O   0  0  0  0  0  0  0  0  0  0  0  0
   21.8660   13.8540   10.9620 C   0  0  0  0  0  0  0  0  0  0  0  0
   20.7990   13.1310   10.5290 N   0  0  0  0  0  0  0  0  0  0  0  0
   20.1190   12.4520   11.4680 C   0  0  0  0  0  0  0  0  0  0  0  0
   20.4550   12.4620   12.8100 C   0  0  0  0  0  0  0  0  0  0  0  0
   21.5590   13.2140   13.2370 C   0  0  0  0  0  0  0  0  0  0  0  0
   21.9120   13.2470   14.5950 C   0  0  0  0  0  0  0  0  0  0  0  0
   23.0080   13.9930   15.0330 C   0  0  0  0  0  0  0  0  0  0  0  0
   23.7750   14.7140   14.1180 C   0  0  0  0  0  0  0  0  0  0  0  0
   24.9300   15.5030   14.6300 C   0  0  0  0  0  0  0  0  0  0  0  0
   26.0210   14.9680   14.7880 O   0  0  0  0  0  0  0  0  0  0  0  0
   24.7070   16.8400   14.8710 N   0  0  0  0  0  0  0  0  0  0  0  0
   25.8030   17.7240   15.2450 C   0  0  2  0  0  0  0  0  0  0  0  0
   26.0820   17.6880   16.7430 C   0  0  0  0  0  0  0  0  0  0  0  0
   27.2090   18.6540   17.0740 C   0  0  0  0  0  0  0  0  0  0  0  0
   26.8930   20.0510   16.5950 C   0  0  0  0  0  0  0  0  0  0  0  0
   27.2850   21.0540   17.1850 O   0  0  0  0  0  0  0  0  0  0  0  0
   26.1690   20.1550   15.4340 N   0  0  0  0  0  0  0  0  0  0  0  0
   25.4430   19.1550   14.8360 C   0  0  0  0  0  0  0  0  0  0  0  0
   24.5710   19.4110   14.0060 O   0  0  0  0  0  0  0  0  0  0  0  0
   23.4240   14.7030   12.7620 C   0  0  0  0  0  0  0  0  0  0  0  0
   22.3130   13.9490   12.2950 C   0  0  0  0  0  0  0  0  0  0  0  0
   21.5430   15.4990    7.3580 C   0  0  0  0  0  0  0  0  0  0  0  0
   20.5010   16.1630    6.9010 N   0  0  0  0  0  0  0  0  0  0  0  0
   18.8815   19.2845    8.7111 H   0  0  0  0  0  0  0  0  0  0  0  0
   19.7359   18.9616    7.1643 H   0  0  0  0  0  0  0  0  0  0  0  0
   17.9682   19.2812    7.1643 H   0  0  0  0  0  0  0  0  0  0  0  0
   17.9135   17.1760    8.7804 H   0  0  0  0  0  0  0  0  0  0  0  0
   18.0083   16.9794    6.9768 H   0  0  0  0  0  0  0  0  0  0  0  0
   20.0918   16.2504   10.2108 H   0  0  0  0  0  0  0  0  0  0  0  0
   19.2492   11.8567   11.1531 H   0  0  0  0  0  0  0  0  0  0  0  0
   19.8618   11.8856   13.5352 H   0  0  0  0  0  0  0  0  0  0  0  0
   21.3171   12.6774   15.3242 H   0  0  0  0  0  0  0  0  0  0  0  0
   23.2671   14.0121   16.1019 H   0  0  0  0  0  0  0  0  0  0  0  0
   23.7535   17.2200   14.7858 H   0  0  0  0  0  0  0  0  0  0  0  0
   26.7107   17.3808   14.7270 H   0  0  0  0  0  0  0  0  0  0  0  0
   25.1749   17.9815   17.2917 H   0  0  0  0  0  0  0  0  0  0  0  0
   26.3754   16.6692   17.0361 H   0  0  0  0  0  0  0  0  0  0  0  0
   27.3556   18.6736   18.1640 H   0  0  0  0  0  0  0  0  0  0  0  0
   28.1214   18.3105   16.5646 H   0  0  0  0  0  0  0  0  0  0  0  0
   26.1704   21.0724   14.9657 H   0  0  0  0  0  0  0  0  0  0  0  0
   24.0188   15.2884   12.0455 H   0  0  0  0  0  0  0  0  0  0  0  0
   22.3366   15.0695    6.7290 H   0  0  0  0  0  0  0  0  0  0  0  0
  1  2  1  0
  2  3  1  0
  3  4  2  0
  4  5  1  0
  5  6  1  0
  6  7  2  0
  6  8  2  0
  6  9  1  0
  9 10  2  0
 10 11  1  0
 11 12  2  0
 12 13  1  0
 13 14  2  0
 14 15  1  0
 15 16  2  0
 16 17  1  0
 17 18  2  0
 17 19  1  0
 19 20  1  0
 20 21  1  0
 21 22  1  0
 22 23  1  0
 23 24  2  0
 23 25  1  0
 25 26  1  0
 26 27  2  0
 16 28  1  0
 28 29  2  0
  5 30  1  0
 30 31  2  0
 31  3  1  0
 29  9  1  0
 29 13  1  0
 26 20  1  0
  1 32  1  0
  1 33  1  0
  1 34  1  0
  2 35  1  0
  2 36  1  0
  4 37  1  0
 11 38  1  0
 12 39  1  0
 14 40  1  0
 15 41  1  0
 19 42  1  0
 20 43  1  6
 21 44  1  0
 21 45  1  0
 22 46  1  0
 22 47  1  0
 25 48  1  0
 28 49  1  0
 30 50  1  0
M  END
>  <meeko>  (1036) 
{"is_sidechain": [true], "free_energy": -10.3, "intermolecular_energy": 0.0, "internal_energy": -10.3, "cluster_size": 17, "cluster_id": 1, "rank_in_cluster": 1}

>  <_RMSD_MCS_to_ref>  (1036) 
0.7422167997140572

$$$$
ligand
     RDKit          3D

 52 56  0  0  0  0  0  0  0  0999 V2000
   18.7970   18.8170    7.7190 C   0  0  0  0  0  0  0  0  0  0  0  0
   18.5280   17.3290    7.8810 C   0  0  0  0  0  0  0  0  0  0  0  0
   19.7760   16.5210    7.8090 C   0  0  0  0  0  0  0  0  0  0  0  0
   20.6420   16.1710    8.8270 C   0  0  0  0  0  0  0  0  0  0  0  0
   21.6080   15.4340    8.2040 N   0  0  0  0  0  0  0  0  0  0  0  0
   22.9120   14.6620    8.9280 S   0  0  0  0  0  6  0  0  0  0  0  0
   23.1420   13.5100    8.0750 O   0  0  0  0  0  0  0  0  0  0  0  0
   23.9300   15.6730    9.1400 O   0  0  0  0  0  0  0  0  0  0  0  0
   22.3460   14.1020   10.4980 C   0  0  0  0  0  0  0  0  0  0  0  0
   21.2270   13.2870   10.5840 C   0  0  0  0  0  0  0  0  0  0  0  0
   20.7600   12.8240   11.7910 C   0  0  0  0  0  0  0  0  0  0  0  0
   21.3540   13.1340   12.9990 C   0  0  0  0  0  0  0  0  0  0  0  0
   22.4760   13.9700   12.9200 C   0  0  0  0  0  0  0  0  0  0  0  0
   23.2670   14.4640   13.9290 N   0  0  0  0  0  0  0  0  0  0  0  0
   24.2740   15.2590   13.4320 C   0  0  0  0  0  0  0  0  0  0  0  0
   25.2300   15.8920   14.3100 C   0  0  0  0  0  0  0  0  0  0  0  0
   26.0010   15.2440   15.0120 O   0  0  0  0  0  0  0  0  0  0  0  0
   25.2290   17.2640   14.2980 N   0  0  0  0  0  0  0  0  0  0  0  0
   26.2250   18.0340   15.0270 C   0  0  2  0  0  0  0  0  0  0  0  0
   26.1150   17.8350   16.5350 C   0  0  0  0  0  0  0  0  0  0  0  0
   27.1600   18.6900   17.2370 C   0  0  0  0  0  0  0  0  0  0  0  0
   27.0280   20.1450   16.8510 C   0  0  0  0  0  0  0  0  0  0  0  0
   27.2850   21.0580   17.6290 O   0  0  0  0  0  0  0  0  0  0  0  0
   26.6370   20.4050   15.5610 N   0  0  0  0  0  0  0  0  0  0  0  0
   26.0320   19.5190   14.7040 C   0  0  0  0  0  0  0  0  0  0  0  0
   25.3900   19.9120   13.7320 O   0  0  0  0  0  0  0  0  0  0  0  0
   24.1110   15.2770   12.0570 C   0  0  0  0  0  0  0  0  0  0  0  0
   22.9870   14.4640   11.7100 C   0  0  0  0  0  0  0  0  0  0  0  0
   19.6550   12.0370   11.6620 O   0  0  0  0  0  0  0  0  0  0  0  0
   19.4670   12.0560   10.2360 C   0  0  0  0  0  0  0  0  0  0  0  0
   20.4560   12.8490    9.5510 O   0  0  0  0  0  0  0  0  0  0  0  0
   21.3300   15.3640    6.8770 C   0  0  0  0  0  0  0  0  0  0  0  0
   20.2100   16.0040    6.6040 N   0  0  0  0  0  0  0  0  0  0  0  0
   18.8815   19.2845    8.7111 H   0  0  0  0  0  0  0  0  0  0  0  0
   19.7359   18.9616    7.1643 H   0  0  0  0  0  0  0  0  0  0  0  0
   17.9682   19.2812    7.1643 H   0  0  0  0  0  0  0  0  0  0  0  0
   18.0520   17.1594    8.8581 H   0  0  0  0  0  0  0  0  0  0  0  0
   17.8727   17.0125    7.0561 H   0  0  0  0  0  0  0  0  0  0  0  0
   20.5699   16.4272    9.8943 H   0  0  0  0  0  0  0  0  0  0  0  0
   20.9726   12.7510   13.9570 H   0  0  0  0  0  0  0  0  0  0  0  0
   23.1244   14.2647   14.9294 H   0  0  0  0  0  0  0  0  0  0  0  0
   24.5052   17.7611   13.7596 H   0  0  0  0  0  0  0  0  0  0  0  0
   27.2203   17.6849   14.7148 H   0  0  0  0  0  0  0  0  0  0  0  0
   25.1111   18.1328   16.8719 H   0  0  0  0  0  0  0  0  0  0  0  0
   26.2842   16.7757   16.7784 H   0  0  0  0  0  0  0  0  0  0  0  0
   27.0291   18.5946   18.3250 H   0  0  0  0  0  0  0  0  0  0  0  0
   28.1572   18.3391   16.9329 H   0  0  0  0  0  0  0  0  0  0  0  0
   26.8141   21.3541   15.2022 H   0  0  0  0  0  0  0  0  0  0  0  0
   24.7442   15.8280   11.3461 H   0  0  0  0  0  0  0  0  0  0  0  0
   19.5234   11.0236    9.8607 H   0  0  0  0  0  0  0  0  0  0  0  0
   18.4848   12.5101   10.0384 H   0  0  0  0  0  0  0  0  0  0  0  0
   21.9526   14.8455    6.1330 H   0  0  0  0  0  0  0  0  0  0  0  0
  1  2  1  0
  2  3  1  0
  3  4  2  0
  4  5  1  0
  5  6  1  0
  6  7  2  0
  6  8  2  0
  6  9  1  0
  9 10  2  0
 10 11  1  0
 11 12  2  0
 12 13  1  0
 13 14  1  0
 14 15  1  0
 15 16  1  0
 16 17  2  0
 16 18  1  0
 18 19  1  0
 19 20  1  0
 20 21  1  0
 21 22  1  0
 22 23  2  0
 22 24  1  0
 24 25  1  0
 25 26  2  0
 15 27  2  0
 27 28  1  0
 11 29  1  0
 29 30  1  0
 30 31  1  0
  5 32  1  0
 32 33  2  0
 33  3  1  0
 28  9  1  0
 31 10  1  0
 28 13  2  0
 25 19  1  0
  1 34  1  0
  1 35  1  0
  1 36  1  0
  2 37  1  0
  2 38  1  0
  4 39  1  0
 12 40  1  0
 14 41  1  0
 18 42  1  0
 19 43  1  6
 20 44  1  0
 20 45  1  0
 21 46  1  0
 21 47  1  0
 24 48  1  0
 27 49  1  0
 30 50  1  0
 30 51  1  0
 32 52  1  0
M  END
>  <meeko>  (1037) 
{"is_sidechain": [true], "free_energy": -10.3, "intermolecular_energy": 0.0, "internal_energy": -10.3, "cluster_size": 17, "cluster_id": 1, "rank_in_cluster": 1}

>  <_RMSD_MCS_to_ref>  (1037) 
0.7060411638141223

$$$$
ligand
     RDKit          3D

 56 60  0  0  0  0  0  0  0  0999 V2000
   18.7970   18.8170    7.7190 C   0  0  0  0  0  0  0  0  0  0  0  0
   18.5280   17.3290    7.8810 C   0  0  0  0  0  0  0  0  0  0  0  0
   19.7770   16.5220    7.8080 C   0  0  0  0  0  0  0  0  0  0  0  0
   20.2590   15.5860    8.7020 C   0  0  0  0  0  0  0  0  0  0  0  0
   21.4180   15.1450    8.1310 N   0  0  0  0  0  0  0  0  0  0  0  0
   22.5620   14.1560    8.8640 S   0  0  0  0  0  6  0  0  0  0  0  0
   22.0060   12.8180    8.8410 O   0  0  0  0  0  0  0  0  0  0  0  0
   23.8280   14.4810    8.2370 O   0  0  0  0  0  0  0  0  0  0  0  0
   22.5930   14.7280   10.5410 C   0  0  0  0  0  0  0  0  0  0  0  0
   23.4210   15.7990   10.8800 C   0  0  0  0  0  0  0  0  0  0  0  0
   23.3980   16.2010   12.2000 C   0  0  0  0  0  0  0  0  0  0  0  0
   22.6000   15.5940   13.1710 C   0  0  0  0  0  0  0  0  0  0  0  0
   21.7630   14.5300   12.8440 C   0  0  0  0  0  0  0  0  0  0  0  0
   20.9150   13.8720   13.8390 C   0  0  0  0  0  0  0  0  0  0  0  0
   19.8180   14.5430   14.4060 C   0  0  0  0  0  0  0  0  0  0  0  0
   19.0060   13.9130   15.3520 C   0  0  0  0  0  0  0  0  0  0  0  0
   19.2800   12.6050   15.7460 C   0  0  0  0  0  0  0  0  0  0  0  0
   20.3660   11.9270   15.1960 C   0  0  0  0  0  0  0  0  0  0  0  0
   21.1790   12.5580   14.2510 C   0  0  0  0  0  0  0  0  0  0  0  0
   21.7650   14.1070   11.5010 C   0  0  0  0  0  0  0  0  0  0  0  0
   22.8160   16.2660   14.4910 C   0  0  0  0  0  0  0  0  0  0  0  0
   23.7370   17.3450   14.1550 N   0  0  0  0  0  0  0  0  0  0  0  0
   24.4630   18.1170   15.1570 C   0  0  1  0  0  0  0  0  0  0  0  0
   25.7350   17.4170   15.6270 C   0  0  0  0  0  0  0  0  0  0  0  0
   26.3880   18.2420   16.7260 C   0  0  0  0  0  0  0  0  0  0  0  0
   26.6600   19.6530   16.2600 C   0  0  0  0  0  0  0  0  0  0  0  0
   27.6530   20.2820   16.6140 O   0  0  0  0  0  0  0  0  0  0  0  0
   25.7280   20.2150   15.4250 N   0  0  0  0  0  0  0  0  0  0  0  0
   24.8270   19.5230   14.6480 C   0  0  0  0  0  0  0  0  0  0  0  0
   24.3760   20.0280   13.6220 O   0  0  0  0  0  0  0  0  0  0  0  0
   24.1590   17.2800   12.8370 C   0  0  0  0  0  0  0  0  0  0  0  0
   24.9990   17.9590   12.2800 O   0  0  0  0  0  0  0  0  0  0  0  0
   21.6350   15.8290    6.9780 C   0  0  0  0  0  0  0  0  0  0  0  0
   20.6480   16.6680    6.7460 N   0  0  0  0  0  0  0  0  0  0  0  0
   18.8815   19.2845    8.7111 H   0  0  0  0  0  0  0  0  0  0  0  0
   19.7359   18.9616    7.1643 H   0  0  0  0  0  0  0  0  0  0  0  0
   17.9682   19.2812    7.1643 H   0  0  0  0  0  0  0  0  0  0  0  0
   18.0527   17.1590    8.8583 H   0  0  0  0  0  0  0  0  0  0  0  0
   17.8718   17.0121    7.0570 H   0  0  0  0  0  0  0  0  0  0  0  0
   19.8116   15.2686    9.6555 H   0  0  0  0  0  0  0  0  0  0  0  0
   24.0584   16.2966   10.1343 H   0  0  0  0  0  0  0  0  0  0  0  0
   19.5962   15.5764   14.1013 H   0  0  0  0  0  0  0  0  0  0  0  0
   18.1497   14.4499   15.7862 H   0  0  0  0  0  0  0  0  0  0  0  0
   18.6400   12.1083   16.4901 H   0  0  0  0  0  0  0  0  0  0  0  0
   20.5834   10.8942   15.5060 H   0  0  0  0  0  0  0  0  0  0  0  0
   22.0369   12.0172   13.8249 H   0  0  0  0  0  0  0  0  0  0  0  0
   21.1099   13.2782   11.1945 H   0  0  0  0  0  0  0  0  0  0  0  0
   21.8719   16.6615   14.8939 H   0  0  0  0  0  0  0  0  0  0  0  0
   23.2018   15.5889   15.2673 H   0  0  0  0  0  0  0  0  0  0  0  0
   23.7749   18.2065   16.0105 H   0  0  0  0  0  0  0  0  0  0  0  0
   25.4827   16.4199   16.0171 H   0  0  0  0  0  0  0  0  0  0  0  0
   26.4314   17.3131   14.7819 H   0  0  0  0  0  0  0  0  0  0  0  0
   25.7171   18.2747   17.5971 H   0  0  0  0  0  0  0  0  0  0  0  0
   27.3461   17.7719   16.9924 H   0  0  0  0  0  0  0  0  0  0  0  0
   25.7000   21.2434   15.3752 H   0  0  0  0  0  0  0  0  0  0  0  0
   22.5133   15.6998    6.3285 H   0  0  0  0  0  0  0  0  0  0  0  0
  1  2  1  0
  2  3  1  0
  3  4  2  0
  4  5  1  0
  5  6  1  0
  6  7  2  0
  6  8  2  0
  6  9  1  0
  9 10  2  0
 10 11  1  0
 11 12  2  0
 12 13  1  0
 13 14  1  0
 14 15  2  0
 15 16  1  0
 16 17  2  0
 17 18  1  0
 18 19  2  0
 13 20  2  0
 12 21  1  0
 21 22  1  0
 22 23  1  0
 23 24  1  0
 24 25  1  0
 25 26  1  0
 26 27  2  0
 26 28  1  0
 28 29  1  0
 29 30  2  0
 22 31  1  0
 31 32  2  0
  5 33  1  0
 33 34  2  0
 34  3  1  0
 20  9  1  0
 29 23  1  0
 31 11  1  0
 19 14  1  0
  1 35  1  0
  1 36  1  0
  1 37  1  0
  2 38  1  0
  2 39  1  0
  4 40  1  0
 10 41  1  0
 15 42  1  0
 16 43  1  0
 17 44  1  0
 18 45  1  0
 19 46  1  0
 20 47  1  0
 21 48  1  0
 21 49  1  0
 23 50  1  1
 24 51  1  0
 24 52  1  0
 25 53  1  0
 25 54  1  0
 28 55  1  0
 33 56  1  0
M  END
>  <meeko>  (1038) 
{"is_sidechain": [true], "free_energy": -10.3, "intermolecular_energy": 0.0, "internal_energy": -10.3, "cluster_size": 13, "cluster_id": 1, "rank_in_cluster": 1}

>  <_RMSD_MCS_to_ref>  (1038) 
1.9619882206011778

$$$$
ligand
     RDKit          3D

 48 51  0  0  0  0  0  0  0  0999 V2000
   18.9090   19.1540    7.5370 C   0  0  0  0  0  0  0  0  0  0  0  0
   18.7730   17.6460    7.6780 C   0  0  0  0  0  0  0  0  0  0  0  0
   20.0690   16.9430    7.4730 C   0  0  0  0  0  0  0  0  0  0  0  0
   20.8290   16.2390    8.3850 C   0  0  0  0  0  0  0  0  0  0  0  0
   21.8950   15.7930    7.6590 N   0  0  0  0  0  0  0  0  0  0  0  0
   23.2700   15.0420    8.2670 S   0  0  0  0  0  6  0  0  0  0  0  0
   23.4470   13.8260    7.4980 O   0  0  0  0  0  0  0  0  0  0  0  0
   24.2820   16.0810    8.3110 O   0  0  0  0  0  0  0  0  0  0  0  0
   22.8190   14.6130    9.9240 C   0  0  0  0  0  0  0  0  0  0  0  0
   21.9250   13.5440   10.1310 C   0  0  0  0  0  0  0  0  0  0  0  0
   21.5540   13.1600   11.4200 C   0  0  0  0  0  0  0  0  0  0  0  0
   22.0540   13.8270   12.5420 C   0  0  0  0  0  0  0  0  0  0  0  0
   22.9230   14.8910   12.3030 C   0  0  0  0  0  0  0  0  0  0  0  0
   23.4960   15.6550   13.2690 O   0  0  0  0  0  0  0  0  0  0  0  0
   24.2680   16.5950   12.6400 C   0  0  0  0  0  0  0  0  0  0  0  0
   25.0060   17.5560   13.4300 C   0  0  0  0  0  0  0  0  0  0  0  0
   26.1680   17.8770   13.1990 O   0  0  0  0  0  0  0  0  0  0  0  0
   24.2990   18.0810   14.4870 N   0  0  0  0  0  0  0  0  0  0  0  0
   24.9140   18.9370   15.4860 C   0  0  1  0  0  0  0  0  0  0  0  0
   25.9730   18.2010   16.3010 C   0  0  0  0  0  0  0  0  0  0  0  0
   26.5980   19.1560   17.3040 C   0  0  0  0  0  0  0  0  0  0  0  0
   27.1650   20.3770   16.6190 C   0  0  0  0  0  0  0  0  0  0  0  0
   28.1690   20.9550   17.0260 O   0  0  0  0  0  0  0  0  0  0  0  0
   26.4820   20.8380   15.5220 N   0  0  0  0  0  0  0  0  0  0  0  0
   25.5700   20.1290   14.7810 C   0  0  0  0  0  0  0  0  0  0  0  0
   25.2990   20.4560   13.6260 O   0  0  0  0  0  0  0  0  0  0  0  0
   24.1810   16.4230   11.2720 C   0  0  0  0  0  0  0  0  0  0  0  0
   23.3210   15.3150   11.0390 C   0  0  0  0  0  0  0  0  0  0  0  0
   21.7840   16.2410    6.3830 C   0  0  0  0  0  0  0  0  0  0  0  0
   20.6800   16.9430    6.2330 N   0  0  0  0  0  0  0  0  0  0  0  0
   18.9504   19.6134    8.5356 H   0  0  0  0  0  0  0  0  0  0  0  0
   19.8320   19.3891    6.9867 H   0  0  0  0  0  0  0  0  0  0  0  0
   18.0430   19.5504    6.9867 H   0  0  0  0  0  0  0  0  0  0  0  0
   18.4014   17.4167    8.6876 H   0  0  0  0  0  0  0  0  0  0  0  0
   18.0731   17.2963    6.9048 H   0  0  0  0  0  0  0  0  0  0  0  0
   20.6226   16.0749    9.4529 H   0  0  0  0  0  0  0  0  0  0  0  0
   21.5140   13.0049    9.2647 H   0  0  0  0  0  0  0  0  0  0  0  0
   20.8574   12.3195   11.5554 H   0  0  0  0  0  0  0  0  0  0  0  0
   21.7757   13.5273   13.5631 H   0  0  0  0  0  0  0  0  0  0  0  0
   23.2969   17.8588   14.5729 H   0  0  0  0  0  0  0  0  0  0  0  0
   24.1260   19.2686   16.1782 H   0  0  0  0  0  0  0  0  0  0  0  0
   25.5051   17.3619   16.8367 H   0  0  0  0  0  0  0  0  0  0  0  0
   26.7526   17.8177   15.6262 H   0  0  0  0  0  0  0  0  0  0  0  0
   25.8291   19.4735   18.0237 H   0  0  0  0  0  0  0  0  0  0  0  0
   27.4186   18.6330   17.8168 H   0  0  0  0  0  0  0  0  0  0  0  0
   26.6714   21.8065   15.2271 H   0  0  0  0  0  0  0  0  0  0  0  0
   24.6838   17.0306   10.5052 H   0  0  0  0  0  0  0  0  0  0  0  0
   22.5149   16.0450    5.5846 H   0  0  0  0  0  0  0  0  0  0  0  0
  1  2  1  0
  2  3  1  0
  3  4  2  0
  4  5  1  0
  5  6  1  0
  6  7  2  0
  6  8  2  0
  6  9  1  0
  9 10  2  0
 10 11  1  0
 11 12  2  0
 12 13  1  0
 13 14  1  0
 14 15  1  0
 15 16  1  0
 16 17  2  0
 16 18  1  0
 18 19  1  0
 19 20  1  0
 20 21  1  0
 21 22  1  0
 22 23  2  0
 22 24  1  0
 24 25  1  0
 25 26  2  0
 15 27  2  0
 27 28  1  0
  5 29  1  0
 29 30  2  0
 30  3  1  0
 28  9  1  0
 28 13  2  0
 25 19  1  0
  1 31  1  0
  1 32  1  0
  1 33  1  0
  2 34  1  0
  2 35  1  0
  4 36  1  0
 10 37  1  0
 11 38  1  0
 12 39  1  0
 18 40  1  0
 19 41  1  1
 20 42  1  0
 20 43  1  0
 21 44  1  0
 21 45  1  0
 24 46  1  0
 27 47  1  0
 29 48  1  0
M  END
>  <meeko>  (1039) 
{"is_sidechain": [true], "free_energy": -10.3, "intermolecular_energy": 0.0, "internal_energy": -10.3, "cluster_size": 20, "cluster_id": 1, "rank_in_cluster": 1}

>  <_RMSD_MCS_to_ref>  (1039) 
0.8375383241645985

$$$$
ligand
     RDKit          3D

 47 50  0  0  0  0  0  0  0  0999 V2000
   18.9090   19.1540    7.5370 C   0  0  0  0  0  0  0  0  0  0  0  0
   18.7730   17.6460    7.6780 C   0  0  0  0  0  0  0  0  0  0  0  0
   20.0160   16.9300    7.2840 C   0  0  0  0  0  0  0  0  0  0  0  0
   21.1840   16.7600    8.0000 C   0  0  0  0  0  0  0  0  0  0  0  0
   21.9730   16.0070    7.1770 N   0  0  0  0  0  0  0  0  0  0  0  0
   23.5900   15.6140    7.4430 S   0  0  0  0  0  6  0  0  0  0  0  0
   24.3410   16.6470    6.7510 O   0  0  0  0  0  0  0  0  0  0  0  0
   23.7040   14.2230    7.0340 O   0  0  0  0  0  0  0  0  0  0  0  0
   23.9000   15.7360    9.1760 C   0  0  0  0  0  0  0  0  0  0  0  0
   23.0250   15.0820    9.9690 C   0  0  0  0  0  0  0  0  0  0  0  0
   23.2230   15.1370   11.3330 N   0  0  0  0  0  0  0  0  0  0  0  0
   22.5360   14.6000   12.3860 C   0  0  0  0  0  0  0  0  0  0  0  0
   23.0920   14.9150   13.5390 N   0  0  0  0  0  0  0  0  0  0  0  0
   24.1970   15.6980   13.2190 C   0  0  0  0  0  0  0  0  0  0  0  0
   25.0930   16.2610   14.2240 C   0  0  0  0  0  0  0  0  0  0  0  0
   25.6840   15.5770   15.0530 O   0  0  0  0  0  0  0  0  0  0  0  0
   25.2120   17.6250   14.1340 N   0  0  0  0  0  0  0  0  0  0  0  0
   26.1620   18.3810   14.9260 C   0  0  2  0  0  0  0  0  0  0  0  0
   25.9750   18.1410   16.4210 C   0  0  0  0  0  0  0  0  0  0  0  0
   26.9820   18.9740   17.2000 C   0  0  0  0  0  0  0  0  0  0  0  0
   26.8720   20.4380   16.8490 C   0  0  0  0  0  0  0  0  0  0  0  0
   27.0910   21.3290   17.6650 O   0  0  0  0  0  0  0  0  0  0  0  0
   26.5430   20.7350   15.5510 N   0  0  0  0  0  0  0  0  0  0  0  0
   25.9920   19.8750   14.6320 C   0  0  0  0  0  0  0  0  0  0  0  0
   25.4200   20.3020   13.6310 O   0  0  0  0  0  0  0  0  0  0  0  0
   24.2800   15.8360   11.8510 C   0  0  0  0  0  0  0  0  0  0  0  0
   25.1710   16.5040   10.9530 C   0  0  0  0  0  0  0  0  0  0  0  0
   24.9900   16.4580    9.6600 N   0  0  0  0  0  0  0  0  0  0  0  0
   21.3240   15.8010    6.0030 C   0  0  0  0  0  0  0  0  0  0  0  0
   20.1180   16.3300    6.0430 N   0  0  0  0  0  0  0  0  0  0  0  0
   18.9504   19.6134    8.5356 H   0  0  0  0  0  0  0  0  0  0  0  0
   19.8320   19.3891    6.9867 H   0  0  0  0  0  0  0  0  0  0  0  0
   18.0430   19.5504    6.9867 H   0  0  0  0  0  0  0  0  0  0  0  0
   18.5444   17.4076    8.7272 H   0  0  0  0  0  0  0  0  0  0  0  0
   17.9662   17.3157    7.0072 H   0  0  0  0  0  0  0  0  0  0  0  0
   21.4243   17.1429    9.0028 H   0  0  0  0  0  0  0  0  0  0  0  0
   22.1803   14.5225    9.5407 H   0  0  0  0  0  0  0  0  0  0  0  0
   21.6318   13.9820   12.2838 H   0  0  0  0  0  0  0  0  0  0  0  0
   24.6017   18.1321   13.4773 H   0  0  0  0  0  0  0  0  0  0  0  0
   27.1725   18.0442   14.6513 H   0  0  0  0  0  0  0  0  0  0  0  0
   24.9551   18.4309   16.7138 H   0  0  0  0  0  0  0  0  0  0  0  0
   26.1321   17.0751   16.6430 H   0  0  0  0  0  0  0  0  0  0  0  0
   26.7941   18.8486   18.2766 H   0  0  0  0  0  0  0  0  0  0  0  0
   27.9934   18.6296   16.9385 H   0  0  0  0  0  0  0  0  0  0  0  0
   26.7271   21.6975   15.2340 H   0  0  0  0  0  0  0  0  0  0  0  0
   26.0245   17.0669   11.3588 H   0  0  0  0  0  0  0  0  0  0  0  0
   21.7459   15.2670    5.1388 H   0  0  0  0  0  0  0  0  0  0  0  0
  1  2  1  0
  2  3  1  0
  3  4  2  0
  4  5  1  0
  5  6  1  0
  6  7  2  0
  6  8  2  0
  6  9  1  0
  9 10  2  0
 10 11  1  0
 11 12  1  0
 12 13  2  0
 13 14  1  0
 14 15  1  0
 15 16  2  0
 15 17  1  0
 17 18  1  0
 18 19  1  0
 19 20  1  0
 20 21  1  0
 21 22  2  0
 21 23  1  0
 23 24  1  0
 24 25  2  0
 14 26  2  0
 26 27  1  0
 27 28  2  0
  5 29  1  0
 29 30  2  0
 30  3  1  0
 28  9  1  0
 26 11  1  0
 24 18  1  0
  1 31  1  0
  1 32  1  0
  1 33  1  0
  2 34  1  0
  2 35  1  0
  4 36  1  0
 10 37  1  0
 12 38  1  0
 17 39  1  0
 18 40  1  6
 19 41  1  0
 19 42  1  0
 20 43  1  0
 20 44  1  0
 23 45  1  0
 27 46  1  0
 29 47  1  0
M  END
>  <meeko>  (1040) 
{"is_sidechain": [true], "free_energy": -10.3, "intermolecular_energy": 0.0, "internal_energy": -10.3, "cluster_size": 19, "cluster_id": 1, "rank_in_cluster": 1}

>  <_RMSD_MCS_to_ref>  (1040) 
0.8873697087460217

$$$$
ligand
     RDKit          3D

 47 50  0  0  0  0  0  0  0  0999 V2000
   18.9090   19.1540    7.5370 C   0  0  0  0  0  0  0  0  0  0  0  0
   18.7730   17.6460    7.6780 C   0  0  0  0  0  0  0  0  0  0  0  0
   19.9960   16.9260    7.2280 C   0  0  0  0  0  0  0  0  0  0  0  0
   21.2360   16.8600    7.8320 C   0  0  0  0  0  0  0  0  0  0  0  0
   21.9810   16.0920    6.9830 N   0  0  0  0  0  0  0  0  0  0  0  0
   23.5110   15.4760    7.2980 S   0  0  0  0  0  6  0  0  0  0  0  0
   24.4470   16.4040    6.6990 O   0  0  0  0  0  0  0  0  0  0  0  0
   23.4550   14.0750    6.9240 O   0  0  0  0  0  0  0  0  0  0  0  0
   23.6520   15.5820    9.0470 C   0  0  0  0  0  0  0  0  0  0  0  0
   24.7810   16.1700    9.5950 C   0  0  0  0  0  0  0  0  0  0  0  0
   25.0030   16.3220   10.9180 N   0  0  0  0  0  0  0  0  0  0  0  0
   24.0350   15.8310   11.7320 C   0  0  0  0  0  0  0  0  0  0  0  0
   23.9070   15.7950   13.1470 C   0  0  0  0  0  0  0  0  0  0  0  0
   24.8400   16.3240   14.1490 C   0  0  0  0  0  0  0  0  0  0  0  0
   25.4580   15.6360   14.9560 O   0  0  0  0  0  0  0  0  0  0  0  0
   24.9810   17.6960   14.0920 N   0  0  0  0  0  0  0  0  0  0  0  0
   25.9800   18.4090   14.8630 C   0  0  2  0  0  0  0  0  0  0  0  0
   25.8420   18.1450   16.3590 C   0  0  0  0  0  0  0  0  0  0  0  0
   26.9000   18.9340   17.1140 C   0  0  0  0  0  0  0  0  0  0  0  0
   26.8160   20.4080   16.7950 C   0  0  0  0  0  0  0  0  0  0  0  0
   27.0870   21.2770   17.6190 O   0  0  0  0  0  0  0  0  0  0  0  0
   26.4500   20.7390   15.5150 N   0  0  0  0  0  0  0  0  0  0  0  0
   25.8380   19.9120   14.6050 C   0  0  0  0  0  0  0  0  0  0  0  0
   25.2370   20.3760   13.6360 O   0  0  0  0  0  0  0  0  0  0  0  0
   22.7540   15.1870   13.5160 N   0  0  0  0  0  0  0  0  0  0  0  0
   22.1770   14.8500   12.3490 N   0  0  0  0  0  0  0  0  0  0  0  0
   22.8900   15.2120   11.2430 C   0  0  0  0  0  0  0  0  0  0  0  0
   22.6550   15.0610    9.8750 C   0  0  0  0  0  0  0  0  0  0  0  0
   21.1990   15.6860    5.9490 C   0  0  0  0  0  0  0  0  0  0  0  0
   19.9870   16.1840    6.0640 N   0  0  0  0  0  0  0  0  0  0  0  0
   18.9504   19.6134    8.5356 H   0  0  0  0  0  0  0  0  0  0  0  0
   19.8320   19.3891    6.9867 H   0  0  0  0  0  0  0  0  0  0  0  0
   18.0430   19.5504    6.9867 H   0  0  0  0  0  0  0  0  0  0  0  0
   18.5886   17.4044    8.7352 H   0  0  0  0  0  0  0  0  0  0  0  0
   17.9368   17.3216    7.0411 H   0  0  0  0  0  0  0  0  0  0  0  0
   21.5516   17.3205    8.7798 H   0  0  0  0  0  0  0  0  0  0  0  0
   25.5515   16.5394    8.9023 H   0  0  0  0  0  0  0  0  0  0  0  0
   24.3523   18.2335   13.4782 H   0  0  0  0  0  0  0  0  0  0  0  0
   26.9699   18.0500   14.5449 H   0  0  0  0  0  0  0  0  0  0  0  0
   24.8424   18.4573   16.6955 H   0  0  0  0  0  0  0  0  0  0  0  0
   25.9768   17.0711   16.5552 H   0  0  0  0  0  0  0  0  0  0  0  0
   26.7501   18.7919   18.1944 H   0  0  0  0  0  0  0  0  0  0  0  0
   27.8910   18.5680   16.8076 H   0  0  0  0  0  0  0  0  0  0  0  0
   26.6538   21.7004   15.2066 H   0  0  0  0  0  0  0  0  0  0  0  0
   21.2728   14.3598   12.2944 H   0  0  0  0  0  0  0  0  0  0  0  0
   21.7538   14.5695    9.4796 H   0  0  0  0  0  0  0  0  0  0  0  0
   21.5328   15.0321    5.1299 H   0  0  0  0  0  0  0  0  0  0  0  0
  1  2  1  0
  2  3  1  0
  3  4  2  0
  4  5  1  0
  5  6  1  0
  6  7  2  0
  6  8  2  0
  6  9  1  0
  9 10  2  0
 10 11  1  0
 11 12  2  0
 12 13  1  0
 13 14  1  0
 14 15  2  0
 14 16  1  0
 16 17  1  0
 17 18  1  0
 18 19  1  0
 19 20  1  0
 20 21  2  0
 20 22  1  0
 22 23  1  0
 23 24  2  0
 13 25  2  0
 25 26  1  0
 26 27  1  0
 27 28  2  0
  5 29  1  0
 29 30  2  0
 30  3  1  0
 28  9  1  0
 27 12  1  0
 23 17  1  0
  1 31  1  0
  1 32  1  0
  1 33  1  0
  2 34  1  0
  2 35  1  0
  4 36  1  0
 10 37  1  0
 16 38  1  0
 17 39  1  6
 18 40  1  0
 18 41  1  0
 19 42  1  0
 19 43  1  0
 22 44  1  0
 26 45  1  0
 28 46  1  0
 29 47  1  0
M  END
>  <meeko>  (1041) 
{"is_sidechain": [true], "free_energy": -10.3, "intermolecular_energy": 0.0, "internal_energy": -10.3, "cluster_size": 20, "cluster_id": 1, "rank_in_cluster": 1}

>  <_RMSD_MCS_to_ref>  (1041) 
0.7719805697036687

$$$$
ligand
     RDKit          3D

 53 56  0  0  0  0  0  0  0  0999 V2000
   18.9090   19.1540    7.5370 C   0  0  0  0  0  0  0  0  0  0  0  0
   18.7730   17.6460    7.6780 C   0  0  0  0  0  0  0  0  0  0  0  0
   20.0950   16.9630    7.6850 C   0  0  0  0  0  0  0  0  0  0  0  0
   20.9800   16.7960    8.7330 C   0  0  0  0  0  0  0  0  0  0  0  0
   22.0170   16.0960    8.1850 N   0  0  0  0  0  0  0  0  0  0  0  0
   23.3200   15.4390    9.0160 S   0  0  0  0  0  6  0  0  0  0  0  0
   24.3470   16.4620    9.0040 O   0  0  0  0  0  0  0  0  0  0  0  0
   23.5100   14.1310    8.4190 O   0  0  0  0  0  0  0  0  0  0  0  0
   22.8260   15.2000   10.7120 C   0  0  0  0  0  0  0  0  0  0  0  0
   23.5030   15.8650   11.7440 C   0  0  0  0  0  0  0  0  0  0  0  0
   23.1190   15.6780   13.0790 C   0  0  0  0  0  0  0  0  0  0  0  0
   23.8770   16.4020   14.1370 C   0  0  0  0  0  0  0  0  0  0  0  0
   24.2820   15.7970   15.1230 O   0  0  0  0  0  0  0  0  0  0  0  0
   24.0560   17.7550   13.9650 N   0  0  0  0  0  0  0  0  0  0  0  0
   24.6570   18.5720   15.0120 C   0  0  1  0  0  0  0  0  0  0  0  0
   25.8060   17.8550   15.7150 C   0  0  0  0  0  0  0  0  0  0  0  0
   26.4100   18.7740   16.7650 C   0  0  0  0  0  0  0  0  0  0  0  0
   26.8520   20.0860   16.1570 C   0  0  0  0  0  0  0  0  0  0  0  0
   27.8310   20.7040   16.5660 O   0  0  0  0  0  0  0  0  0  0  0  0
   26.0830   20.5790   15.1340 N   0  0  0  0  0  0  0  0  0  0  0  0
   25.1860   19.8630   14.3810 C   0  0  0  0  0  0  0  0  0  0  0  0
   24.8270   20.2570   13.2720 O   0  0  0  0  0  0  0  0  0  0  0  0
   22.0330   14.8530   13.3730 C   0  0  0  0  0  0  0  0  0  0  0  0
   21.3560   14.1920   12.3470 C   0  0  0  0  0  0  0  0  0  0  0  0
   21.7560   14.3250   11.0070 C   0  0  0  0  0  0  0  0  0  0  0  0
   21.0190   13.5550    9.9390 C   0  0  0  0  0  0  0  0  0  0  0  0
   20.1890   12.4280   10.5380 C   0  0  0  0  0  0  0  0  0  0  0  0
   19.4290   12.9700   11.7310 C   0  0  0  0  0  0  0  0  0  0  0  0
   20.3180   13.4010   12.7640 O   0  0  0  0  0  0  0  0  0  0  0  0
   21.7470   15.8470    6.8780 C   0  0  0  0  0  0  0  0  0  0  0  0
   20.5860   16.3660    6.5410 N   0  0  0  0  0  0  0  0  0  0  0  0
   18.9504   19.6134    8.5356 H   0  0  0  0  0  0  0  0  0  0  0  0
   19.8320   19.3891    6.9867 H   0  0  0  0  0  0  0  0  0  0  0  0
   18.0430   19.5504    6.9867 H   0  0  0  0  0  0  0  0  0  0  0  0
   18.2538   17.4234    8.6218 H   0  0  0  0  0  0  0  0  0  0  0  0
   18.2045   17.2748    6.8126 H   0  0  0  0  0  0  0  0  0  0  0  0
   20.8738   17.1463    9.7703 H   0  0  0  0  0  0  0  0  0  0  0  0
   24.3402   16.5372   11.5047 H   0  0  0  0  0  0  0  0  0  0  0  0
   23.7609   18.1975   13.0830 H   0  0  0  0  0  0  0  0  0  0  0  0
   23.8844   18.7828   15.7660 H   0  0  0  0  0  0  0  0  0  0  0  0
   25.4273   16.9432   16.1999 H   0  0  0  0  0  0  0  0  0  0  0  0
   26.5760   17.5851   14.9772 H   0  0  0  0  0  0  0  0  0  0  0  0
   25.6573   18.9744   17.5417 H   0  0  0  0  0  0  0  0  0  0  0  0
   27.2911   18.2767   17.1966 H   0  0  0  0  0  0  0  0  0  0  0  0
   26.1883   21.5788   14.9100 H   0  0  0  0  0  0  0  0  0  0  0  0
   21.7094   14.7231   14.4163 H   0  0  0  0  0  0  0  0  0  0  0  0
   20.3517   14.2424    9.3985 H   0  0  0  0  0  0  0  0  0  0  0  0
   21.7607   13.1134    9.2571 H   0  0  0  0  0  0  0  0  0  0  0  0
   19.4796   12.0504    9.7869 H   0  0  0  0  0  0  0  0  0  0  0  0
   20.8457   11.6038   10.8533 H   0  0  0  0  0  0  0  0  0  0  0  0
   18.8161   13.8240   11.4069 H   0  0  0  0  0  0  0  0  0  0  0  0
   18.7959   12.1652   12.1328 H   0  0  0  0  0  0  0  0  0  0  0  0
   22.4064   15.2896    6.1965 H   0  0  0  0  0  0  0  0  0  0  0  0
  1  2  1  0
  2  3  1  0
  3  4  2  0
  4  5  1  0
  5  6  1  0
  6  7  2  0
  6  8  2  0
  6  9  1  0
  9 10  2  0
 10 11  1  0
 11 12  1  0
 12 13  2  0
 12 14  1  0
 14 15  1  0
 15 16  1  0
 16 17  1  0
 17 18  1  0
 18 19  2  0
 18 20  1  0
 20 21  1  0
 21 22  2  0
 11 23  2  0
 23 24  1  0
 24 25  2  0
 25 26  1  0
 26 27  1  0
 27 28  1  0
 28 29  1  0
  5 30  1  0
 30 31  2  0
 31  3  1  0
 25  9  1  0
 21 15  1  0
 29 24  1  0
  1 32  1  0
  1 33  1  0
  1 34  1  0
  2 35  1  0
  2 36  1  0
  4 37  1  0
 10 38  1  0
 14 39  1  0
 15 40  1  1
 16 41  1  0
 16 42  1  0
 17 43  1  0
 17 44  1  0
 20 45  1  0
 23 46  1  0
 26 47  1  0
 26 48  1  0
 27 49  1  0
 27 50  1  0
 28 51  1  0
 28 52  1  0
 30 53  1  0
M  END
>  <meeko>  (1042) 
{"is_sidechain": [true], "free_energy": -10.3, "intermolecular_energy": 0.0, "internal_energy": -10.3, "cluster_size": 19, "cluster_id": 1, "rank_in_cluster": 1}

>  <_RMSD_MCS_to_ref>  (1042) 
0.43699008379290866

$$$$
ligand
     RDKit          3D

 45 47  0  0  0  0  0  0  0  0999 V2000
   18.9090   19.1540    7.5370 C   0  0  0  0  0  0  0  0  0  0  0  0
   18.7730   17.6460    7.6780 C   0  0  0  0  0  0  0  0  0  0  0  0
   20.0830   16.9500    7.5540 C   0  0  0  0  0  0  0  0  0  0  0  0
   21.0930   16.8310    8.4870 C   0  0  0  0  0  0  0  0  0  0  0  0
   22.0580   16.1100    7.8450 N   0  0  0  0  0  0  0  0  0  0  0  0
   23.4380   15.4540    8.5480 S   0  0  0  0  0  6  0  0  0  0  0  0
   24.4790   16.4500    8.4050 O   0  0  0  0  0  0  0  0  0  0  0  0
   23.5510   14.1200    7.9910 O   0  0  0  0  0  0  0  0  0  0  0  0
   23.0210   15.3230   10.2660 C   0  0  0  0  0  0  0  0  0  0  0  0
   21.8270   14.7040   10.6460 C   0  0  0  0  0  0  0  0  0  0  0  0
   21.5090   14.6000   12.0000 C   0  0  0  0  0  0  0  0  0  0  0  0
   22.3780   15.1120   12.9680 C   0  0  0  0  0  0  0  0  0  0  0  0
   23.5740   15.7370   12.5870 C   0  0  0  0  0  0  0  0  0  0  0  0
   24.5370   16.2950   13.5780 C   0  0  0  0  0  0  0  0  0  0  0  0
   25.1240   15.5500   14.3530 O   0  0  0  0  0  0  0  0  0  0  0  0
   24.7510   17.6550   13.5420 N   0  0  0  0  0  0  0  0  0  0  0  0
   25.7860   18.2720   14.3650 C   0  0  2  0  0  0  0  0  0  0  0  0
   25.6260   17.9390   15.8430 C   0  0  0  0  0  0  0  0  0  0  0  0
   26.7070   18.6490   16.6430 C   0  0  0  0  0  0  0  0  0  0  0  0
   26.6820   20.1390   16.3960 C   0  0  0  0  0  0  0  0  0  0  0  0
   26.9660   20.9570   17.2660 O   0  0  0  0  0  0  0  0  0  0  0  0
   26.3520   20.5470   15.1290 N   0  0  0  0  0  0  0  0  0  0  0  0
   25.7010   19.7910   14.1850 C   0  0  0  0  0  0  0  0  0  0  0  0
   25.0990   20.3170   13.2480 O   0  0  0  0  0  0  0  0  0  0  0  0
   23.9020   15.8250   11.2270 C   0  0  0  0  0  0  0  0  0  0  0  0
   21.6180   15.7840    6.6030 C   0  0  0  0  0  0  0  0  0  0  0  0
   20.4200   16.2870    6.3900 N   0  0  0  0  0  0  0  0  0  0  0  0
   18.9504   19.6134    8.5356 H   0  0  0  0  0  0  0  0  0  0  0  0
   19.8320   19.3891    6.9867 H   0  0  0  0  0  0  0  0  0  0  0  0
   18.0430   19.5504    6.9867 H   0  0  0  0  0  0  0  0  0  0  0  0
   18.3435   17.4197    8.6651 H   0  0  0  0  0  0  0  0  0  0  0  0
   18.1219   17.2880    6.8669 H   0  0  0  0  0  0  0  0  0  0  0  0
   21.1153   17.2266    9.5131 H   0  0  0  0  0  0  0  0  0  0  0  0
   21.1436   14.3021    9.8835 H   0  0  0  0  0  0  0  0  0  0  0  0
   20.5714   14.1136   12.3072 H   0  0  0  0  0  0  0  0  0  0  0  0
   22.1222   15.0241   14.0342 H   0  0  0  0  0  0  0  0  0  0  0  0
   24.1729   18.2443   12.9261 H   0  0  0  0  0  0  0  0  0  0  0  0
   26.7613   17.8794   14.0414 H   0  0  0  0  0  0  0  0  0  0  0  0
   24.6361   18.2716   16.1886 H   0  0  0  0  0  0  0  0  0  0  0  0
   25.7185   16.8522   15.9859 H   0  0  0  0  0  0  0  0  0  0  0  0
   26.5425   18.4604   17.7141 H   0  0  0  0  0  0  0  0  0  0  0  0
   27.6860   18.2605   16.3257 H   0  0  0  0  0  0  0  0  0  0  0  0
   26.6159   21.5060   14.8614 H   0  0  0  0  0  0  0  0  0  0  0  0
   24.8505   16.2881   10.9173 H   0  0  0  0  0  0  0  0  0  0  0  0
   22.1836   15.1832    5.8756 H   0  0  0  0  0  0  0  0  0  0  0  0
  1  2  1  0
  2  3  1  0
  3  4  2  0
  4  5  1  0
  5  6  1  0
  6  7  2  0
  6  8  2  0
  6  9  1  0
  9 10  2  0
 10 11  1  0
 11 12  2  0
 12 13  1  0
 13 14  1  0
 14 15  2  0
 14 16  1  0
 16 17  1  0
 17 18  1  0
 18 19  1  0
 19 20  1  0
 20 21  2  0
 20 22  1  0
 22 23  1  0
 23 24  2  0
 13 25  2  0
  5 26  1  0
 26 27  2  0
 27  3  1  0
 25  9  1  0
 23 17  1  0
  1 28  1  0
  1 29  1  0
  1 30  1  0
  2 31  1  0
  2 32  1  0
  4 33  1  0
 10 34  1  0
 11 35  1  0
 12 36  1  0
 16 37  1  0
 17 38  1  6
 18 39  1  0
 18 40  1  0
 19 41  1  0
 19 42  1  0
 22 43  1  0
 25 44  1  0
 26 45  1  0
M  END
>  <meeko>  (1043) 
{"is_sidechain": [true], "free_energy": -10.3, "intermolecular_energy": 0.0, "internal_energy": -10.3, "cluster_size": 20, "cluster_id": 1, "rank_in_cluster": 1}

>  <_RMSD_MCS_to_ref>  (1043) 
0.5310808685020476

$$$$
ligand
     RDKit          3D

 48 51  0  0  0  0  0  0  0  0999 V2000
   18.9090   19.1540    7.5370 C   0  0  0  0  0  0  0  0  0  0  0  0
   18.7730   17.6460    7.6780 C   0  0  0  0  0  0  0  0  0  0  0  0
   20.0380   16.9350    7.3500 C   0  0  0  0  0  0  0  0  0  0  0  0
   21.1310   16.6870    8.1570 C   0  0  0  0  0  0  0  0  0  0  0  0
   22.0040   16.0200    7.3460 N   0  0  0  0  0  0  0  0  0  0  0  0
   23.4780   15.3900    7.8280 S   0  0  0  0  0  6  0  0  0  0  0  0
   23.3550   13.9460    7.8640 O   0  0  0  0  0  0  0  0  0  0  0  0
   24.4660   16.0630    7.0050 O   0  0  0  0  0  0  0  0  0  0  0  0
   23.8050   15.8840    9.4630 C   0  0  0  0  0  0  0  0  0  0  0  0
   24.8690   16.7040    9.8040 N   0  0  0  0  0  0  0  0  0  0  0  0
   24.8240   16.8190   11.1140 C   0  0  0  0  0  0  0  0  0  0  0  0
   23.7770   16.1160   11.6580 N   0  0  0  0  0  0  0  0  0  0  0  0
   23.3770   15.9240   12.9830 C   0  0  0  0  0  0  0  0  0  0  0  0
   24.0860   16.5590   14.1270 C   0  0  0  0  0  0  0  0  0  0  0  0
   24.3800   15.9150   15.1270 O   0  0  0  0  0  0  0  0  0  0  0  0
   24.3310   17.9030   14.0000 N   0  0  0  0  0  0  0  0  0  0  0  0
   24.8570   18.6870   15.1130 C   0  0  1  0  0  0  0  0  0  0  0  0
   25.9540   17.9530   15.8760 C   0  0  0  0  0  0  0  0  0  0  0  0
   26.4880   18.8490   16.9830 C   0  0  0  0  0  0  0  0  0  0  0  0
   26.9710   20.1710   16.4330 C   0  0  0  0  0  0  0  0  0  0  0  0
   27.9360   20.7680   16.9010 O   0  0  0  0  0  0  0  0  0  0  0  0
   26.2590   20.6970   15.3850 N   0  0  0  0  0  0  0  0  0  0  0  0
   25.4330   19.9890   14.5490 C   0  0  0  0  0  0  0  0  0  0  0  0
   25.1710   20.3880   13.4140 O   0  0  0  0  0  0  0  0  0  0  0  0
   22.2700   15.1860   13.2090 C   0  0  0  0  0  0  0  0  0  0  0  0
   21.5750   14.6200   12.1570 N   0  0  0  0  0  0  0  0  0  0  0  0
   21.9160   14.7620   10.8210 C   0  0  0  0  0  0  0  0  0  0  0  0
   21.2250   14.2750    9.9380 O   0  0  0  0  0  0  0  0  0  0  0  0
   23.0980   15.5410   10.5980 C   0  0  0  0  0  0  0  0  0  0  0  0
   21.4400   15.8580    6.1230 C   0  0  0  0  0  0  0  0  0  0  0  0
   20.2430   16.4090    6.0900 N   0  0  0  0  0  0  0  0  0  0  0  0
   18.9504   19.6134    8.5356 H   0  0  0  0  0  0  0  0  0  0  0  0
   19.8320   19.3891    6.9867 H   0  0  0  0  0  0  0  0  0  0  0  0
   18.0430   19.5504    6.9867 H   0  0  0  0  0  0  0  0  0  0  0  0
   18.4932   17.4109    8.7155 H   0  0  0  0  0  0  0  0  0  0  0  0
   18.0022   17.3085    6.9695 H   0  0  0  0  0  0  0  0  0  0  0  0
   21.2673   16.9638    9.2128 H   0  0  0  0  0  0  0  0  0  0  0  0
   25.5408   17.4089   11.7041 H   0  0  0  0  0  0  0  0  0  0  0  0
   24.1399   18.3680   13.1011 H   0  0  0  0  0  0  0  0  0  0  0  0
   24.0343   18.8754   15.8184 H   0  0  0  0  0  0  0  0  0  0  0  0
   25.5420   17.0327   16.3158 H   0  0  0  0  0  0  0  0  0  0  0  0
   26.7713   17.6957   15.1862 H   0  0  0  0  0  0  0  0  0  0  0  0
   25.6854   19.0356   17.7117 H   0  0  0  0  0  0  0  0  0  0  0  0
   27.3376   18.3406   17.4623 H   0  0  0  0  0  0  0  0  0  0  0  0
   26.3523   21.7079   15.2112 H   0  0  0  0  0  0  0  0  0  0  0  0
   21.9176   15.0336   14.2398 H   0  0  0  0  0  0  0  0  0  0  0  0
   20.7452   14.0527   12.3816 H   0  0  0  0  0  0  0  0  0  0  0  0
   21.9150   15.3394    5.2772 H   0  0  0  0  0  0  0  0  0  0  0  0
  1  2  1  0
  2  3  1  0
  3  4  2  0
  4  5  1  0
  5  6  1  0
  6  7  2  0
  6  8  2  0
  6  9  1  0
  9 10  1  0
 10 11  2  0
 11 12  1  0
 12 13  1  0
 13 14  1  0
 14 15  2  0
 14 16  1  0
 16 17  1  0
 17 18  1  0
 18 19  1  0
 19 20  1  0
 20 21  2  0
 20 22  1  0
 22 23  1  0
 23 24  2  0
 13 25  2  0
 25 26  1  0
 26 27  1  0
 27 28  2  0
 27 29  1  0
  5 30  1  0
 30 31  2  0
 31  3  1  0
 29  9  2  0
 29 12  1  0
 23 17  1  0
  1 32  1  0
  1 33  1  0
  1 34  1  0
  2 35  1  0
  2 36  1  0
  4 37  1  0
 11 38  1  0
 16 39  1  0
 17 40  1  1
 18 41  1  0
 18 42  1  0
 19 43  1  0
 19 44  1  0
 22 45  1  0
 25 46  1  0
 26 47  1  0
 30 48  1  0
M  END
>  <meeko>  (1044) 
{"is_sidechain": [true], "free_energy": -10.3, "intermolecular_energy": 0.0, "internal_energy": -10.3, "cluster_size": 14, "cluster_id": 1, "rank_in_cluster": 1}

>  <_RMSD_MCS_to_ref>  (1044) 
0.49546925008296705

$$$$
ligand
     RDKit          3D

 53 57  0  0  0  0  0  0  0  0999 V2000
   18.9090   19.1540    7.5370 C   0  0  0  0  0  0  0  0  0  0  0  0
   18.7730   17.6460    7.6780 C   0  0  0  0  0  0  0  0  0  0  0  0
   20.0610   16.9400    7.4400 C   0  0  0  0  0  0  0  0  0  0  0  0
   20.6580   15.9440    8.1860 C   0  0  0  0  0  0  0  0  0  0  0  0
   21.8010   15.6500    7.5000 N   0  0  0  0  0  0  0  0  0  0  0  0
   23.0420   14.6550    8.0390 S   0  0  0  0  0  6  0  0  0  0  0  0
   24.2070   15.0070    7.2540 O   0  0  0  0  0  0  0  0  0  0  0  0
   22.4950   13.3110    8.0580 O   0  0  0  0  0  0  0  0  0  0  0  0
   23.3010   15.1790    9.7120 C   0  0  0  0  0  0  0  0  0  0  0  0
   24.4530   15.8990   10.0350 C   0  0  0  0  0  0  0  0  0  0  0  0
   24.6020   16.2630   11.3590 C   0  0  0  0  0  0  0  0  0  0  0  0
   23.6710   15.9460   12.3530 C   0  0  0  0  0  0  0  0  0  0  0  0
   22.5310   15.2220   12.0370 C   0  0  0  0  0  0  0  0  0  0  0  0
   21.5490   14.8690   13.0380 C   0  0  0  0  0  0  0  0  0  0  0  0
   21.5230   15.0840   14.4340 C   0  0  0  0  0  0  0  0  0  0  0  0
   20.4330   14.5750   15.0100 N   0  0  0  0  0  0  0  0  0  0  0  0
   19.7430   14.0530   13.9810 N   0  0  0  0  0  0  0  0  0  0  0  0
   20.3720   14.2030   12.7780 C   0  0  0  0  0  0  0  0  0  0  0  0
   22.3540   14.8290   10.6980 C   0  0  0  0  0  0  0  0  0  0  0  0
   24.1440   16.4840   13.6670 C   0  0  0  0  0  0  0  0  0  0  0  0
   25.4450   17.0520   13.3360 N   0  0  0  0  0  0  0  0  0  0  0  0
   26.1810   17.9410   14.2290 C   0  0  2  0  0  0  0  0  0  0  0  0
   25.8600   17.6910   15.6990 C   0  0  0  0  0  0  0  0  0  0  0  0
   26.7270   18.5930   16.5640 C   0  0  0  0  0  0  0  0  0  0  0  0
   26.5520   20.0460   16.1850 C   0  0  0  0  0  0  0  0  0  0  0  0
   26.5830   20.9500   17.0140 O   0  0  0  0  0  0  0  0  0  0  0  0
   26.3750   20.3160   14.8510 N   0  0  0  0  0  0  0  0  0  0  0  0
   25.9240   19.4230   13.9070 C   0  0  0  0  0  0  0  0  0  0  0  0
   25.3500   19.8220   12.8960 O   0  0  0  0  0  0  0  0  0  0  0  0
   25.7010   17.0110   11.9760 C   0  0  0  0  0  0  0  0  0  0  0  0
   26.6380   17.4900   11.3690 O   0  0  0  0  0  0  0  0  0  0  0  0
   21.9010   16.4750    6.4260 C   0  0  0  0  0  0  0  0  0  0  0  0
   20.8500   17.2650    6.3530 N   0  0  0  0  0  0  0  0  0  0  0  0
   18.9504   19.6134    8.5356 H   0  0  0  0  0  0  0  0  0  0  0  0
   19.8320   19.3891    6.9867 H   0  0  0  0  0  0  0  0  0  0  0  0
   18.0430   19.5504    6.9867 H   0  0  0  0  0  0  0  0  0  0  0  0
   18.4257   17.4154    8.6959 H   0  0  0  0  0  0  0  0  0  0  0  0
   18.0537   17.2999    6.9211 H   0  0  0  0  0  0  0  0  0  0  0  0
   20.2954   15.4905    9.1203 H   0  0  0  0  0  0  0  0  0  0  0  0
   25.2028   16.1626    9.2745 H   0  0  0  0  0  0  0  0  0  0  0  0
   22.3145   15.6129   14.9852 H   0  0  0  0  0  0  0  0  0  0  0  0
   18.8311   13.5865   14.0891 H   0  0  0  0  0  0  0  0  0  0  0  0
   20.0106   13.8603   11.7972 H   0  0  0  0  0  0  0  0  0  0  0  0
   21.4673   14.2422   10.4163 H   0  0  0  0  0  0  0  0  0  0  0  0
   23.4599   17.2567   14.0478 H   0  0  0  0  0  0  0  0  0  0  0  0
   24.1913   15.7207   14.4577 H   0  0  0  0  0  0  0  0  0  0  0  0
   27.2431   17.7118   14.0574 H   0  0  0  0  0  0  0  0  0  0  0  0
   24.7988   17.9122   15.8860 H   0  0  0  0  0  0  0  0  0  0  0  0
   26.0624   16.6384   15.9462 H   0  0  0  0  0  0  0  0  0  0  0  0
   26.4427   18.4604   17.6183 H   0  0  0  0  0  0  0  0  0  0  0  0
   27.7804   18.3168   16.4089 H   0  0  0  0  0  0  0  0  0  0  0  0
   26.5990   21.2685   14.5294 H   0  0  0  0  0  0  0  0  0  0  0  0
   22.7418   16.4823    5.7167 H   0  0  0  0  0  0  0  0  0  0  0  0
  1  2  1  0
  2  3  1  0
  3  4  2  0
  4  5  1  0
  5  6  1  0
  6  7  2  0
  6  8  2  0
  6  9  1  0
  9 10  2  0
 10 11  1  0
 11 12  2  0
 12 13  1  0
 13 14  1  0
 14 15  1  0
 15 16  2  0
 16 17  1  0
 17 18  1  0
 13 19  2  0
 12 20  1  0
 20 21  1  0
 21 22  1  0
 22 23  1  0
 23 24  1  0
 24 25  1  0
 25 26  2  0
 25 27  1  0
 27 28  1  0
 28 29  2  0
 21 30  1  0
 30 31  2  0
  5 32  1  0
 32 33  2  0
 33  3  1  0
 19  9  1  0
 28 22  1  0
 30 11  1  0
 18 14  2  0
  1 34  1  0
  1 35  1  0
  1 36  1  0
  2 37  1  0
  2 38  1  0
  4 39  1  0
 10 40  1  0
 15 41  1  0
 17 42  1  0
 18 43  1  0
 19 44  1  0
 20 45  1  0
 20 46  1  0
 22 47  1  1
 23 48  1  0
 23 49  1  0
 24 50  1  0
 24 51  1  0
 27 52  1  0
 32 53  1  0
M  END
>  <meeko>  (1045) 
{"is_sidechain": [true], "free_energy": -10.3, "intermolecular_energy": 0.0, "internal_energy": -10.3, "cluster_size": 17, "cluster_id": 1, "rank_in_cluster": 1}

>  <_RMSD_MCS_to_ref>  (1045) 
1.981519464675755

$$$$
ligand
     RDKit          3D

 54 58  0  0  0  0  0  0  0  0999 V2000
   18.9090   19.1540    7.5370 C   0  0  0  0  0  0  0  0  0  0  0  0
   18.7730   17.6460    7.6780 C   0  0  0  0  0  0  0  0  0  0  0  0
   20.0930   16.9720    7.8080 C   0  0  0  0  0  0  0  0  0  0  0  0
   20.8650   16.7900    8.9400 C   0  0  0  0  0  0  0  0  0  0  0  0
   21.9790   16.1440    8.4820 N   0  0  0  0  0  0  0  0  0  0  0  0
   23.2010   15.4900    9.4300 S   0  0  0  0  0  6  0  0  0  0  0  0
   23.4150   14.1720    8.8570 O   0  0  0  0  0  0  0  0  0  0  0  0
   24.2800   16.4560    9.4660 O   0  0  0  0  0  0  0  0  0  0  0  0
   22.5340   15.2970   11.0680 C   0  0  0  0  0  0  0  0  0  0  0  0
   21.4470   14.4230   11.3250 C   0  0  0  0  0  0  0  0  0  0  0  0
   20.8500   13.5420   10.3170 C   0  0  0  0  0  0  0  0  0  0  0  0
   19.7410   13.9870    9.7040 N   0  0  0  0  0  0  0  0  0  0  0  0
   19.2360   13.1930    8.7400 C   0  0  0  0  0  0  0  0  0  0  0  0
   19.7990   11.9930    8.3740 C   0  0  0  0  0  0  0  0  0  0  0  0
   20.9400   11.6430    9.0540 C   0  0  0  0  0  0  0  0  0  0  0  0
   21.4970   12.4020   10.0170 N   0  0  0  0  0  0  0  0  0  0  0  0
   20.9170   14.3690   12.6450 C   0  0  0  0  0  0  0  0  0  0  0  0
   21.4410   15.1300   13.6890 C   0  0  0  0  0  0  0  0  0  0  0  0
   22.4950   15.9650   13.3910 C   0  0  0  0  0  0  0  0  0  0  0  0
   23.0410   16.0780   12.1110 C   0  0  0  0  0  0  0  0  0  0  0  0
   24.1510   17.0850   12.1420 C   0  0  0  0  0  0  0  0  0  0  0  0
   24.1580   17.5270   13.5300 N   0  0  0  0  0  0  0  0  0  0  0  0
   25.2630   18.2690   14.1250 C   0  0  2  0  0  0  0  0  0  0  0  0
   25.5010   17.8990   15.5850 C   0  0  0  0  0  0  0  0  0  0  0  0
   26.7140   18.6540   16.1050 C   0  0  0  0  0  0  0  0  0  0  0  0
   26.5530   20.1450   15.9180 C   0  0  0  0  0  0  0  0  0  0  0  0
   26.9980   20.9610   16.7200 O   0  0  0  0  0  0  0  0  0  0  0  0
   25.8990   20.5550   14.7840 N   0  0  0  0  0  0  0  0  0  0  0  0
   25.0440   19.7890   14.0240 C   0  0  0  0  0  0  0  0  0  0  0  0
   24.1780   20.3210   13.3330 O   0  0  0  0  0  0  0  0  0  0  0  0
   23.2350   16.8440   14.3020 C   0  0  0  0  0  0  0  0  0  0  0  0
   23.0560   16.9180   15.5010 O   0  0  0  0  0  0  0  0  0  0  0  0
   21.8160   15.8630    7.1620 C   0  0  0  0  0  0  0  0  0  0  0  0
   20.6980   16.3920    6.7100 N   0  0  0  0  0  0  0  0  0  0  0  0
   18.9504   19.6134    8.5356 H   0  0  0  0  0  0  0  0  0  0  0  0
   19.8320   19.3891    6.9867 H   0  0  0  0  0  0  0  0  0  0  0  0
   18.0430   19.5504    6.9867 H   0  0  0  0  0  0  0  0  0  0  0  0
   18.1736   17.4267    8.5739 H   0  0  0  0  0  0  0  0  0  0  0  0
   18.2873   17.2643    6.7678 H   0  0  0  0  0  0  0  0  0  0  0  0
   20.6357   17.0948    9.9717 H   0  0  0  0  0  0  0  0  0  0  0  0
   18.3253   13.5219    8.2181 H   0  0  0  0  0  0  0  0  0  0  0  0
   19.3648   11.3561    7.5893 H   0  0  0  0  0  0  0  0  0  0  0  0
   21.4257   10.6899    8.7978 H   0  0  0  0  0  0  0  0  0  0  0  0
   20.0647   13.7040   12.8483 H   0  0  0  0  0  0  0  0  0  0  0  0
   21.0301   15.0663   14.7074 H   0  0  0  0  0  0  0  0  0  0  0  0
   25.1113   16.6225   11.8701 H   0  0  0  0  0  0  0  0  0  0  0  0
   24.0076   17.9085   11.4269 H   0  0  0  0  0  0  0  0  0  0  0  0
   26.1543   17.9863   13.5456 H   0  0  0  0  0  0  0  0  0  0  0  0
   24.6169   18.1694   16.1811 H   0  0  0  0  0  0  0  0  0  0  0  0
   25.6790   16.8165   15.6658 H   0  0  0  0  0  0  0  0  0  0  0  0
   26.8383   18.4384   17.1765 H   0  0  0  0  0  0  0  0  0  0  0  0
   27.5973   18.3258   15.5376 H   0  0  0  0  0  0  0  0  0  0  0  0
   26.0623   21.5233   14.4731 H   0  0  0  0  0  0  0  0  0  0  0  0
   22.5205   15.2751    6.5554 H   0  0  0  0  0  0  0  0  0  0  0  0
  1  2  1  0
  2  3  1  0
  3  4  2  0
  4  5  1  0
  5  6  1  0
  6  7  2  0
  6  8  2  0
  6  9  1  0
  9 10  1  0
 10 11  1  0
 11 12  2  0
 12 13  1  0
 13 14  2  0
 14 15  1  0
 15 16  2  0
 10 17  2  0
 17 18  1  0
 18 19  2  0
 19 20  1  0
 20 21  1  0
 21 22  1  0
 22 23  1  0
 23 24  1  0
 24 25  1  0
 25 26  1  0
 26 27  2  0
 26 28  1  0
 28 29  1  0
 29 30  2  0
 22 31  1  0
 31 32  2  0
  5 33  1  0
 33 34  2  0
 34  3  1  0
 20  9  2  0
 29 23  1  0
 16 11  1  0
 31 19  1  0
  1 35  1  0
  1 36  1  0
  1 37  1  0
  2 38  1  0
  2 39  1  0
  4 40  1  0
 13 41  1  0
 14 42  1  0
 15 43  1  0
 17 44  1  0
 18 45  1  0
 21 46  1  0
 21 47  1  0
 23 48  1  6
 24 49  1  0
 24 50  1  0
 25 51  1  0
 25 52  1  0
 28 53  1  0
 33 54  1  0
M  END
>  <meeko>  (1046) 
{"is_sidechain": [true], "free_energy": -10.3, "intermolecular_energy": 0.0, "internal_energy": -10.3, "cluster_size": 19, "cluster_id": 1, "rank_in_cluster": 1}

>  <_RMSD_MCS_to_ref>  (1046) 
1.9791530034616096

$$$$
ligand
     RDKit          3D

 52 56  0  0  0  0  0  0  0  0999 V2000
   18.8250   19.0170    7.5350 C   0  0  0  0  0  0  0  0  0  0  0  0
   18.5200   17.5420    7.7330 C   0  0  0  0  0  0  0  0  0  0  0  0
   19.7550   16.7290    7.9010 C   0  0  0  0  0  0  0  0  0  0  0  0
   20.0720   15.8300    8.9020 C   0  0  0  0  0  0  0  0  0  0  0  0
   21.3250   15.3970    8.5750 N   0  0  0  0  0  0  0  0  0  0  0  0
   22.1820   14.1800    9.3480 S   0  0  0  0  0  6  0  0  0  0  0  0
   23.4260   14.0050    8.6250 O   0  0  0  0  0  0  0  0  0  0  0  0
   21.2260   13.0940    9.4690 O   0  0  0  0  0  0  0  0  0  0  0  0
   22.5610   14.7710   10.9820 C   0  0  0  0  0  0  0  0  0  0  0  0
   23.8250   15.3490   11.1810 C   0  0  0  0  0  0  0  0  0  0  0  0
   24.0970   15.8750   12.4290 C   0  0  0  0  0  0  0  0  0  0  0  0
   23.1720   15.8660   13.4690 C   0  0  0  0  0  0  0  0  0  0  0  0
   21.9180   15.3100   13.2800 C   0  0  0  0  0  0  0  0  0  0  0  0
   21.6000   14.7530   12.0230 C   0  0  0  0  0  0  0  0  0  0  0  0
   20.2940   14.1390   11.8810 C   0  0  0  0  0  0  0  0  0  0  0  0
   19.8960   12.8010   12.0850 C   0  0  0  0  0  0  0  0  0  0  0  0
   18.6010   12.6560   11.7840 N   0  0  0  0  0  0  0  0  0  0  0  0
   18.2690   13.9090   11.4360 N   0  0  0  0  0  0  0  0  0  0  0  0
   19.2390   14.8420   11.4510 N   0  0  0  0  0  0  0  0  0  0  0  0
   23.7520   16.5250   14.6780 C   0  0  0  0  0  0  0  0  0  0  0  0
   25.1130   16.8240   14.2500 N   0  0  0  0  0  0  0  0  0  0  0  0
   26.0070   17.7140   14.9830 C   0  0  2  0  0  0  0  0  0  0  0  0
   25.8010   17.6380   16.4930 C   0  0  0  0  0  0  0  0  0  0  0  0
   26.8220   18.5270   17.1870 C   0  0  0  0  0  0  0  0  0  0  0  0
   26.7470   19.9470   16.6750 C   0  0  0  0  0  0  0  0  0  0  0  0
   26.9150   20.9180   17.4040 O   0  0  0  0  0  0  0  0  0  0  0  0
   26.4890   20.1030   15.3360 N   0  0  0  0  0  0  0  0  0  0  0  0
   25.8620   19.1780   14.5340 C   0  0  0  0  0  0  0  0  0  0  0  0
   25.2260   19.5410   13.5460 O   0  0  0  0  0  0  0  0  0  0  0  0
   25.3180   16.5280   12.9110 C   0  0  0  0  0  0  0  0  0  0  0  0
   26.3020   16.7490   12.2330 O   0  0  0  0  0  0  0  0  0  0  0  0
   21.6870   15.9430    7.3850 C   0  0  0  0  0  0  0  0  0  0  0  0
   20.7710   16.7940    6.9670 N   0  0  0  0  0  0  0  0  0  0  0  0
   18.9260   19.5054    8.5155 H   0  0  0  0  0  0  0  0  0  0  0  0
   19.7645   19.1250    6.9731 H   0  0  0  0  0  0  0  0  0  0  0  0
   18.0054   19.4887    6.9731 H   0  0  0  0  0  0  0  0  0  0  0  0
   17.8956   17.4271    8.6313 H   0  0  0  0  0  0  0  0  0  0  0  0
   17.9989   17.1818    6.8337 H   0  0  0  0  0  0  0  0  0  0  0  0
   19.4565   15.5320    9.7636 H   0  0  0  0  0  0  0  0  0  0  0  0
   24.5709   15.3817   10.3732 H   0  0  0  0  0  0  0  0  0  0  0  0
   21.1813   15.3026   14.0968 H   0  0  0  0  0  0  0  0  0  0  0  0
   20.5547   11.9946   12.4399 H   0  0  0  0  0  0  0  0  0  0  0  0
   17.3042   14.1486   11.1665 H   0  0  0  0  0  0  0  0  0  0  0  0
   23.2037   17.4443   14.9316 H   0  0  0  0  0  0  0  0  0  0  0  0
   23.7032   15.9024   15.5835 H   0  0  0  0  0  0  0  0  0  0  0  0
   27.0222   17.3620   14.7476 H   0  0  0  0  0  0  0  0  0  0  0  0
   24.7860   17.9806   16.7427 H   0  0  0  0  0  0  0  0  0  0  0  0
   25.9292   16.5987   16.8297 H   0  0  0  0  0  0  0  0  0  0  0  0
   26.6235   18.5246   18.2689 H   0  0  0  0  0  0  0  0  0  0  0  0
   27.8273   18.1332   16.9766 H   0  0  0  0  0  0  0  0  0  0  0  0
   26.7893   20.9845   14.8959 H   0  0  0  0  0  0  0  0  0  0  0  0
   22.6159   15.7076    6.8449 H   0  0  0  0  0  0  0  0  0  0  0  0
  1  2  1  0
  2  3  1  0
  3  4  2  0
  4  5  1  0
  5  6  1  0
  6  7  2  0
  6  8  2  0
  6  9  1  0
  9 10  2  0
 10 11  1  0
 11 12  2  0
 12 13  1  0
 13 14  2  0
 14 15  1  0
 15 16  1  0
 16 17  2  0
 17 18  1  0
 18 19  1  0
 12 20  1  0
 20 21  1  0
 21 22  1  0
 22 23  1  0
 23 24  1  0
 24 25  1  0
 25 26  2  0
 25 27  1  0
 27 28  1  0
 28 29  2  0
 21 30  1  0
 30 31  2  0
  5 32  1  0
 32 33  2  0
 33  3  1  0
 14  9  1  0
 19 15  2  0
 28 22  1  0
 30 11  1  0
  1 34  1  0
  1 35  1  0
  1 36  1  0
  2 37  1  0
  2 38  1  0
  4 39  1  0
 10 40  1  0
 13 41  1  0
 16 42  1  0
 18 43  1  0
 20 44  1  0
 20 45  1  0
 22 46  1  1
 23 47  1  0
 23 48  1  0
 24 49  1  0
 24 50  1  0
 27 51  1  0
 32 52  1  0
M  END
>  <meeko>  (1047) 
{"is_sidechain": [true], "free_energy": -10.29, "intermolecular_energy": 0.0, "internal_energy": -10.29, "cluster_size": 19, "cluster_id": 1, "rank_in_cluster": 1}

>  <_RMSD_MCS_to_ref>  (1047) 
1.9774152742068793

$$$$
ligand
     RDKit          3D

 55 59  0  0  0  0  0  0  0  0999 V2000
   18.8250   19.0170    7.5350 C   0  0  0  0  0  0  0  0  0  0  0  0
   18.5200   17.5420    7.7330 C   0  0  0  0  0  0  0  0  0  0  0  0
   19.5340   16.6660    7.0850 C   0  0  0  0  0  0  0  0  0  0  0  0
   20.9050   16.6510    7.2560 C   0  0  0  0  0  0  0  0  0  0  0  0
   21.3340   15.6190    6.4700 N   0  0  0  0  0  0  0  0  0  0  0  0
   22.9400   15.3100    6.0520 S   0  0  0  0  0  6  0  0  0  0  0  0
   22.9300   13.9990    5.4340 O   0  0  0  0  0  0  0  0  0  0  0  0
   23.4130   16.4980    5.3730 O   0  0  0  0  0  0  0  0  0  0  0  0
   23.7570   15.1990    7.6140 C   0  0  0  0  0  0  0  0  0  0  0  0
   25.0950   14.8330    7.6870 C   0  0  0  0  0  0  0  0  0  0  0  0
   25.6400   14.6890    8.9490 C   0  0  0  0  0  0  0  0  0  0  0  0
   24.9400   14.8560   10.0950 N   0  0  0  0  0  0  0  0  0  0  0  0
   23.6400   15.2180   10.0010 C   0  0  0  0  0  0  0  0  0  0  0  0
   22.8880   15.2980   11.2570 C   0  0  0  0  0  0  0  0  0  0  0  0
   21.7120   14.5520   11.4630 C   0  0  0  0  0  0  0  0  0  0  0  0
   21.0240   14.5760   12.6930 C   0  0  0  0  0  0  0  0  0  0  0  0
   21.4900   15.3510   13.7540 C   0  0  0  0  0  0  0  0  0  0  0  0
   22.6260   16.1040   13.5360 C   0  0  0  0  0  0  0  0  0  0  0  0
   23.3080   16.1010   12.3190 C   0  0  0  0  0  0  0  0  0  0  0  0
   24.4610   17.0490   12.3930 C   0  0  0  0  0  0  0  0  0  0  0  0
   24.3850   17.5580   13.7500 N   0  0  0  0  0  0  0  0  0  0  0  0
   25.4970   18.2690   14.3790 C   0  0  2  0  0  0  0  0  0  0  0  0
   25.6330   17.8960   15.8510 C   0  0  0  0  0  0  0  0  0  0  0  0
   26.8130   18.6330   16.4600 C   0  0  0  0  0  0  0  0  0  0  0  0
   26.6680   20.1250   16.2880 C   0  0  0  0  0  0  0  0  0  0  0  0
   27.0650   20.9210   17.1350 O   0  0  0  0  0  0  0  0  0  0  0  0
   26.1060   20.5520   15.1110 N   0  0  0  0  0  0  0  0  0  0  0  0
   25.3500   19.7980   14.2430 C   0  0  0  0  0  0  0  0  0  0  0  0
   24.6260   20.3480   13.4120 O   0  0  0  0  0  0  0  0  0  0  0  0
   23.3470   16.9860   14.4660 C   0  0  0  0  0  0  0  0  0  0  0  0
   23.0660   17.1470   15.6370 O   0  0  0  0  0  0  0  0  0  0  0  0
   23.0270   15.4430    8.7750 C   0  0  0  0  0  0  0  0  0  0  0  0
   20.2620   15.0770    5.8320 C   0  0  0  0  0  0  0  0  0  0  0  0
   19.1540   15.7100    6.1620 N   0  0  0  0  0  0  0  0  0  0  0  0
   18.9260   19.5054    8.5155 H   0  0  0  0  0  0  0  0  0  0  0  0
   19.7645   19.1250    6.9731 H   0  0  0  0  0  0  0  0  0  0  0  0
   18.0054   19.4887    6.9731 H   0  0  0  0  0  0  0  0  0  0  0  0
   18.5023   17.3256    8.8114 H   0  0  0  0  0  0  0  0  0  0  0  0
   17.5459   17.3331    7.2666 H   0  0  0  0  0  0  0  0  0  0  0  0
   21.5136   17.3190    7.8832 H   0  0  0  0  0  0  0  0  0  0  0  0
   25.6946   14.6651    6.7802 H   0  0  0  0  0  0  0  0  0  0  0  0
   26.7046   14.4232    9.0263 H   0  0  0  0  0  0  0  0  0  0  0  0
   21.3195   13.9338   10.6421 H   0  0  0  0  0  0  0  0  0  0  0  0
   20.1098   13.9769   12.8170 H   0  0  0  0  0  0  0  0  0  0  0  0
   20.9735   15.3619   14.7251 H   0  0  0  0  0  0  0  0  0  0  0  0
   25.4133   16.5261   12.2206 H   0  0  0  0  0  0  0  0  0  0  0  0
   24.4173   17.8418   11.6317 H   0  0  0  0  0  0  0  0  0  0  0  0
   26.4087   17.9591   13.8473 H   0  0  0  0  0  0  0  0  0  0  0  0
   24.7128   18.1749   16.3852 H   0  0  0  0  0  0  0  0  0  0  0  0
   25.7970   16.8118   15.9379 H   0  0  0  0  0  0  0  0  0  0  0  0
   26.8680   18.3986   17.5333 H   0  0  0  0  0  0  0  0  0  0  0  0
   27.7303   18.3093   15.9465 H   0  0  0  0  0  0  0  0  0  0  0  0
   26.2662   21.5358   14.8513 H   0  0  0  0  0  0  0  0  0  0  0  0
   21.9897   15.8053    8.7222 H   0  0  0  0  0  0  0  0  0  0  0  0
   20.3128   14.2268    5.1359 H   0  0  0  0  0  0  0  0  0  0  0  0
  1  2  1  0
  2  3  1  0
  3  4  2  0
  4  5  1  0
  5  6  1  0
  6  7  2  0
  6  8  2  0
  6  9  1  0
  9 10  2  0
 10 11  1  0
 11 12  2  0
 12 13  1  0
 13 14  1  0
 14 15  2  0
 15 16  1  0
 16 17  2  0
 17 18  1  0
 18 19  2  0
 19 20  1  0
 20 21  1  0
 21 22  1  0
 22 23  1  0
 23 24  1  0
 24 25  1  0
 25 26  2  0
 25 27  1  0
 27 28  1  0
 28 29  2  0
 21 30  1  0
 30 31  2  0
 13 32  2  0
  5 33  1  0
 33 34  2  0
 34  3  1  0
 32  9  1  0
 19 14  1  0
 28 22  1  0
 30 18  1  0
  1 35  1  0
  1 36  1  0
  1 37  1  0
  2 38  1  0
  2 39  1  0
  4 40  1  0
 10 41  1  0
 11 42  1  0
 15 43  1  0
 16 44  1  0
 17 45  1  0
 20 46  1  0
 20 47  1  0
 22 48  1  6
 23 49  1  0
 23 50  1  0
 24 51  1  0
 24 52  1  0
 27 53  1  0
 32 54  1  0
 33 55  1  0
M  END
>  <meeko>  (1048) 
{"is_sidechain": [true], "free_energy": -10.29, "intermolecular_energy": 0.0, "internal_energy": -10.29, "cluster_size": 10, "cluster_id": 1, "rank_in_cluster": 1}

>  <_RMSD_MCS_to_ref>  (1048) 
1.2474531832675904

$$$$
ligand
     RDKit          3D

 44 46  0  0  0  0  0  0  0  0999 V2000
   18.7970   18.8170    7.7190 C   0  0  0  0  0  0  0  0  0  0  0  0
   18.5280   17.3290    7.8810 C   0  0  0  0  0  0  0  0  0  0  0  0
   19.7700   16.5620    8.1730 C   0  0  0  0  0  0  0  0  0  0  0  0
   20.0410   15.7190    9.2330 C   0  0  0  0  0  0  0  0  0  0  0  0
   21.3250   15.3080    9.0130 N   0  0  0  0  0  0  0  0  0  0  0  0
   22.1260   14.0970    9.8580 S   0  0  0  0  0  6  0  0  0  0  0  0
   21.1200   13.4500   10.6770 O   0  0  0  0  0  0  0  0  0  0  0  0
   22.9050   13.3760    8.8690 O   0  0  0  0  0  0  0  0  0  0  0  0
   23.2290   14.9940   10.9180 C   0  0  0  0  0  0  0  0  0  0  0  0
   22.8460   15.2750   12.2340 C   0  0  0  0  0  0  0  0  0  0  0  0
   23.7120   15.9870   13.0650 C   0  0  0  0  0  0  0  0  0  0  0  0
   24.9490   16.4130   12.5700 C   0  0  0  0  0  0  0  0  0  0  0  0
   26.0520   17.3080   13.6430 S   0  0  0  0  0  6  0  0  0  0  0  0
   26.9190   18.1180   12.8090 O   0  0  0  0  0  0  0  0  0  0  0  0
   26.6240   16.3280   14.5490 O   0  0  0  0  0  0  0  0  0  0  0  0
   25.0180   18.3880   14.5970 C   0  0  1  0  0  0  0  0  0  0  0  0
   25.0410   18.0860   16.0930 C   0  0  0  0  0  0  0  0  0  0  0  0
   26.3400   18.5230   16.7530 C   0  0  0  0  0  0  0  0  0  0  0  0
   26.6500   19.9680   16.4500 C   0  0  0  0  0  0  0  0  0  0  0  0
   27.3060   20.6770   17.2050 O   0  0  0  0  0  0  0  0  0  0  0  0
   26.1870   20.4510   15.2510 N   0  0  0  0  0  0  0  0  0  0  0  0
   25.4100   19.8100   14.3170 C   0  0  0  0  0  0  0  0  0  0  0  0
   25.0580   20.3940   13.2950 O   0  0  0  0  0  0  0  0  0  0  0  0
   25.3490   16.0980   11.2680 C   0  0  0  0  0  0  0  0  0  0  0  0
   24.4820   15.3880   10.4350 C   0  0  0  0  0  0  0  0  0  0  0  0
   21.7730   15.8490    7.8510 C   0  0  0  0  0  0  0  0  0  0  0  0
   20.8530   16.6260    7.3190 N   0  0  0  0  0  0  0  0  0  0  0  0
   18.8815   19.2845    8.7111 H   0  0  0  0  0  0  0  0  0  0  0  0
   19.7359   18.9616    7.1643 H   0  0  0  0  0  0  0  0  0  0  0  0
   17.9682   19.2812    7.1643 H   0  0  0  0  0  0  0  0  0  0  0  0
   17.8196   17.1852    8.7101 H   0  0  0  0  0  0  0  0  0  0  0  0
   18.1151   16.9551    6.9325 H   0  0  0  0  0  0  0  0  0  0  0  0
   19.3754   15.4421   10.0639 H   0  0  0  0  0  0  0  0  0  0  0  0
   21.8694   14.9372   12.6109 H   0  0  0  0  0  0  0  0  0  0  0  0
   23.4237   16.2118   14.1025 H   0  0  0  0  0  0  0  0  0  0  0  0
   23.9764   18.2179   14.2870 H   0  0  0  0  0  0  0  0  0  0  0  0
   24.2051   18.6158   16.5732 H   0  0  0  0  0  0  0  0  0  0  0  0
   24.9520   16.9966   16.2166 H   0  0  0  0  0  0  0  0  0  0  0  0
   26.2487   18.3969   17.8419 H   0  0  0  0  0  0  0  0  0  0  0  0
   27.1569   17.9022   16.3563 H   0  0  0  0  0  0  0  0  0  0  0  0
   26.4570   21.4184   15.0225 H   0  0  0  0  0  0  0  0  0  0  0  0
   26.3394   16.4072   10.9025 H   0  0  0  0  0  0  0  0  0  0  0  0
   24.7818   15.1400    9.4061 H   0  0  0  0  0  0  0  0  0  0  0  0
   22.7658   15.6639    7.4151 H   0  0  0  0  0  0  0  0  0  0  0  0
  1  2  1  0
  2  3  1  0
  3  4  2  0
  4  5  1  0
  5  6  1  0
  6  7  2  0
  6  8  2  0
  6  9  1  0
  9 10  2  0
 10 11  1  0
 11 12  2  0
 12 13  1  0
 13 14  2  0
 13 15  2  0
 13 16  1  0
 16 17  1  0
 17 18  1  0
 18 19  1  0
 19 20  2  0
 19 21  1  0
 21 22  1  0
 22 23  2  0
 12 24  1  0
 24 25  2  0
  5 26  1  0
 26 27  2  0
 27  3  1  0
 25  9  1  0
 22 16  1  0
  1 28  1  0
  1 29  1  0
  1 30  1  0
  2 31  1  0
  2 32  1  0
  4 33  1  0
 10 34  1  0
 11 35  1  0
 16 36  1  6
 17 37  1  0
 17 38  1  0
 18 39  1  0
 18 40  1  0
 21 41  1  0
 24 42  1  0
 25 43  1  0
 26 44  1  0
M  END
>  <meeko>  (1049) 
{"is_sidechain": [true], "free_energy": -10.29, "intermolecular_energy": 0.0, "internal_energy": -10.29, "cluster_size": 20, "cluster_id": 1, "rank_in_cluster": 1}

>  <_RMSD_MCS_to_ref>  (1049) 
0.5082554721790996

$$$$
ligand
     RDKit          3D

 47 50  0  0  0  0  0  0  0  0999 V2000
   18.7970   18.8170    7.7190 C   0  0  0  0  0  0  0  0  0  0  0  0
   18.5280   17.3290    7.8810 C   0  0  0  0  0  0  0  0  0  0  0  0
   19.7820   16.5280    7.8650 C   0  0  0  0  0  0  0  0  0  0  0  0
   20.3090   15.7200    8.8530 C   0  0  0  0  0  0  0  0  0  0  0  0
   21.4550   15.2220    8.3030 N   0  0  0  0  0  0  0  0  0  0  0  0
   22.5960   14.2690    9.0850 S   0  0  0  0  0  6  0  0  0  0  0  0
   22.5290   12.9780    8.4240 O   0  0  0  0  0  0  0  0  0  0  0  0
   23.8150   15.0560    9.1200 O   0  0  0  0  0  0  0  0  0  0  0  0
   22.0010   14.0830   10.7280 C   0  0  0  0  0  0  0  0  0  0  0  0
   20.8050   13.4570   10.8630 N   0  0  0  0  0  0  0  0  0  0  0  0
   20.3270   13.3040   12.1120 C   0  0  0  0  0  0  0  0  0  0  0  0
   20.9000   13.6970   13.2610 N   0  0  0  0  0  0  0  0  0  0  0  0
   22.0770   14.3060   13.0590 C   0  0  0  0  0  0  0  0  0  0  0  0
   22.8760   14.8100   14.0440 N   0  0  0  0  0  0  0  0  0  0  0  0
   24.0190   15.3660   13.5020 C   0  0  0  0  0  0  0  0  0  0  0  0
   25.0260   15.9690   14.3460 C   0  0  0  0  0  0  0  0  0  0  0  0
   25.8180   15.2960   14.9980 O   0  0  0  0  0  0  0  0  0  0  0  0
   25.0450   17.3400   14.3580 N   0  0  0  0  0  0  0  0  0  0  0  0
   26.0900   18.0810   15.0470 C   0  0  2  0  0  0  0  0  0  0  0  0
   26.0550   17.8650   16.5560 C   0  0  0  0  0  0  0  0  0  0  0  0
   27.1450   18.6970   17.2140 C   0  0  0  0  0  0  0  0  0  0  0  0
   27.0140   20.1570   16.8520 C   0  0  0  0  0  0  0  0  0  0  0  0
   27.3160   21.0580   17.6290 O   0  0  0  0  0  0  0  0  0  0  0  0
   26.5680   20.4400   15.5860 N   0  0  0  0  0  0  0  0  0  0  0  0
   25.9010   19.5740   14.7550 C   0  0  0  0  0  0  0  0  0  0  0  0
   25.2060   19.9860   13.8280 O   0  0  0  0  0  0  0  0  0  0  0  0
   23.9200   15.2060   12.1260 C   0  0  0  0  0  0  0  0  0  0  0  0
   22.6970   14.5370   11.8440 C   0  0  0  0  0  0  0  0  0  0  0  0
   21.6180   15.7470    7.0610 C   0  0  0  0  0  0  0  0  0  0  0  0
   20.6070   16.5350    6.7570 N   0  0  0  0  0  0  0  0  0  0  0  0
   18.8815   19.2845    8.7111 H   0  0  0  0  0  0  0  0  0  0  0  0
   19.7359   18.9616    7.1643 H   0  0  0  0  0  0  0  0  0  0  0  0
   17.9682   19.2812    7.1643 H   0  0  0  0  0  0  0  0  0  0  0  0
   18.0139   17.1639    8.8394 H   0  0  0  0  0  0  0  0  0  0  0  0
   17.9072   17.0030    7.0335 H   0  0  0  0  0  0  0  0  0  0  0  0
   19.8991   15.5227    9.8545 H   0  0  0  0  0  0  0  0  0  0  0  0
   19.3542   12.7984   12.2018 H   0  0  0  0  0  0  0  0  0  0  0  0
   22.6577   14.7801   15.0501 H   0  0  0  0  0  0  0  0  0  0  0  0
   24.3017   17.8574   13.8675 H   0  0  0  0  0  0  0  0  0  0  0  0
   27.0618   17.7181   14.6812 H   0  0  0  0  0  0  0  0  0  0  0  0
   25.0737   18.1713   16.9473 H   0  0  0  0  0  0  0  0  0  0  0  0
   26.2228   16.8007   16.7775 H   0  0  0  0  0  0  0  0  0  0  0  0
   27.0674   18.5902   18.3060 H   0  0  0  0  0  0  0  0  0  0  0  0
   28.1208   18.3366   16.8563 H   0  0  0  0  0  0  0  0  0  0  0  0
   26.7499   21.3878   15.2262 H   0  0  0  0  0  0  0  0  0  0  0  0
   24.6595   15.5390   11.3829 H   0  0  0  0  0  0  0  0  0  0  0  0
   22.4743   15.5428    6.4014 H   0  0  0  0  0  0  0  0  0  0  0  0
  1  2  1  0
  2  3  1  0
  3  4  2  0
  4  5  1  0
  5  6  1  0
  6  7  2  0
  6  8  2  0
  6  9  1  0
  9 10  2  0
 10 11  1  0
 11 12  2  0
 12 13  1  0
 13 14  1  0
 14 15  1  0
 15 16  1  0
 16 17  2  0
 16 18  1  0
 18 19  1  0
 19 20  1  0
 20 21  1  0
 21 22  1  0
 22 23  2  0
 22 24  1  0
 24 25  1  0
 25 26  2  0
 15 27  2  0
 27 28  1  0
  5 29  1  0
 29 30  2  0
 30  3  1  0
 28  9  1  0
 28 13  2  0
 25 19  1  0
  1 31  1  0
  1 32  1  0
  1 33  1  0
  2 34  1  0
  2 35  1  0
  4 36  1  0
 11 37  1  0
 14 38  1  0
 18 39  1  0
 19 40  1  6
 20 41  1  0
 20 42  1  0
 21 43  1  0
 21 44  1  0
 24 45  1  0
 27 46  1  0
 29 47  1  0
M  END
>  <meeko>  (1050) 
{"is_sidechain": [true], "free_energy": -10.29, "intermolecular_energy": 0.0, "internal_energy": -10.29, "cluster_size": 18, "cluster_id": 1, "rank_in_cluster": 1}

>  <_RMSD_MCS_to_ref>  (1050) 
0.6356657052955497

$$$$
ligand
     RDKit          3D

 54 58  0  0  0  0  0  0  0  0999 V2000
   18.7970   18.8170    7.7190 C   0  0  0  0  0  0  0  0  0  0  0  0
   18.5280   17.3290    7.8810 C   0  0  0  0  0  0  0  0  0  0  0  0
   19.5880   16.4940    7.2550 C   0  0  0  0  0  0  0  0  0  0  0  0
   20.8410   16.8690    6.8110 C   0  0  0  0  0  0  0  0  0  0  0  0
   21.3760   15.7180    6.3080 N   0  0  0  0  0  0  0  0  0  0  0  0
   22.9540   15.5080    5.7740 S   0  0  0  0  0  6  0  0  0  0  0  0
   23.2550   16.6470    4.9310 O   0  0  0  0  0  0  0  0  0  0  0  0
   23.0180   14.1390    5.2900 O   0  0  0  0  0  0  0  0  0  0  0  0
   23.9260   15.6180    7.2520 C   0  0  0  0  0  0  0  0  0  0  0  0
   25.3140   15.7960    7.1400 C   0  0  0  0  0  0  0  0  0  0  0  0
   26.1090   15.9060    8.2770 C   0  0  0  0  0  0  0  0  0  0  0  0
   25.5400   15.8360    9.5540 C   0  0  0  0  0  0  0  0  0  0  0  0
   24.1500   15.6420    9.6990 C   0  0  0  0  0  0  0  0  0  0  0  0
   23.2640   15.5160   10.8190 C   0  0  0  0  0  0  0  0  0  0  0  0
   23.5480   15.5800   12.2460 C   0  0  0  0  0  0  0  0  0  0  0  0
   23.1250   14.5630   13.1040 C   0  0  0  0  0  0  0  0  0  0  0  0
   23.4060   14.6370   14.4660 C   0  0  0  0  0  0  0  0  0  0  0  0
   24.1180   15.7260   14.9790 C   0  0  0  0  0  0  0  0  0  0  0  0
   24.5640   16.7600   14.1420 C   0  0  0  0  0  0  0  0  0  0  0  0
   25.2950   17.8820   14.6640 N   0  0  0  0  0  0  0  0  0  0  0  0
   26.4500   17.6510   15.5270 C   0  0  0  0  0  0  0  0  0  0  0  0
   26.5360   18.7080   16.6070 C   0  0  0  0  0  0  0  0  0  0  0  0
   26.5230   20.0630   15.9720 C   0  0  0  0  0  0  0  0  0  0  0  0
   26.9980   21.0540   16.5200 O   0  0  0  0  0  0  0  0  0  0  0  0
   25.8700   20.1510   14.7740 N   0  0  0  0  0  0  0  0  0  0  0  0
   25.0850   19.1830   14.1920 C   0  0  0  0  0  0  0  0  0  0  0  0
   24.2940   19.5290   13.3190 O   0  0  0  0  0  0  0  0  0  0  0  0
   24.2560   16.6710   12.7760 C   0  0  0  0  0  0  0  0  0  0  0  0
   21.9950   15.3170   10.3120 C   0  0  0  0  0  0  0  0  0  0  0  0
   22.0730   15.3170    8.9460 N   0  0  0  0  0  0  0  0  0  0  0  0
   23.3760   15.5270    8.5420 C   0  0  0  0  0  0  0  0  0  0  0  0
   20.4970   14.7000    6.4940 C   0  0  0  0  0  0  0  0  0  0  0  0
   19.3910   15.1410    7.0550 N   0  0  0  0  0  0  0  0  0  0  0  0
   18.8815   19.2845    8.7111 H   0  0  0  0  0  0  0  0  0  0  0  0
   19.7359   18.9616    7.1643 H   0  0  0  0  0  0  0  0  0  0  0  0
   17.9682   19.2812    7.1643 H   0  0  0  0  0  0  0  0  0  0  0  0
   18.4789   17.0929    8.9542 H   0  0  0  0  0  0  0  0  0  0  0  0
   17.5774   17.1012    7.3766 H   0  0  0  0  0  0  0  0  0  0  0  0
   21.3023   17.8667    6.8530 H   0  0  0  0  0  0  0  0  0  0  0  0
   25.7777   15.8490    6.1439 H   0  0  0  0  0  0  0  0  0  0  0  0
   27.1945   16.0493    8.1712 H   0  0  0  0  0  0  0  0  0  0  0  0
   26.1772   15.9323   10.4454 H   0  0  0  0  0  0  0  0  0  0  0  0
   22.5691   13.7023   12.7037 H   0  0  0  0  0  0  0  0  0  0  0  0
   23.0670   13.8367   15.1402 H   0  0  0  0  0  0  0  0  0  0  0  0
   24.3320   15.7727   16.0570 H   0  0  0  0  0  0  0  0  0  0  0  0
   26.3557   16.6614   15.9980 H   0  0  0  0  0  0  0  0  0  0  0  0
   27.3623   17.6989   14.9143 H   0  0  0  0  0  0  0  0  0  0  0  0
   25.6756   18.6115   17.2855 H   0  0  0  0  0  0  0  0  0  0  0  0
   27.4665   18.5770   17.1789 H   0  0  0  0  0  0  0  0  0  0  0  0
   25.9770   21.0334   14.2535 H   0  0  0  0  0  0  0  0  0  0  0  0
   24.5780   17.4781   12.1015 H   0  0  0  0  0  0  0  0  0  0  0  0
   21.0784   15.1817   10.9049 H   0  0  0  0  0  0  0  0  0  0  0  0
   21.2741   15.1800    8.3104 H   0  0  0  0  0  0  0  0  0  0  0  0
   20.6833   13.6525    6.2147 H   0  0  0  0  0  0  0  0  0  0  0  0
  1  2  1  0
  2  3  1  0
  3  4  2  0
  4  5  1  0
  5  6  1  0
  6  7  2  0
  6  8  2  0
  6  9  1  0
  9 10  2  0
 10 11  1  0
 11 12  2  0
 12 13  1  0
 13 14  1  0
 14 15  1  0
 15 16  2  0
 16 17  1  0
 17 18  2  0
 18 19  1  0
 19 20  1  0
 20 21  1  0
 21 22  1  0
 22 23  1  0
 23 24  2  0
 23 25  1  0
 25 26  1  0
 26 27  2  0
 19 28  2  0
 14 29  2  0
 29 30  1  0
 30 31  1  0
  5 32  1  0
 32 33  2  0
 33  3  1  0
 31  9  1  0
 31 13  2  0
 28 15  1  0
 26 20  1  0
  1 34  1  0
  1 35  1  0
  1 36  1  0
  2 37  1  0
  2 38  1  0
  4 39  1  0
 10 40  1  0
 11 41  1  0
 12 42  1  0
 16 43  1  0
 17 44  1  0
 18 45  1  0
 21 46  1  0
 21 47  1  0
 22 48  1  0
 22 49  1  0
 25 50  1  0
 28 51  1  0
 29 52  1  0
 30 53  1  0
 32 54  1  0
M  END
>  <meeko>  (1051) 
{"is_sidechain": [true], "free_energy": -10.29, "intermolecular_energy": 0.0, "internal_energy": -10.29, "cluster_size": 9, "cluster_id": 1, "rank_in_cluster": 1}

>  <_RMSD_MCS_to_ref>  (1051) 
0.7141757486781529

$$$$
ligand
     RDKit          3D

 48 51  0  0  0  0  0  0  0  0999 V2000
   18.9090   19.1540    7.5370 C   0  0  0  0  0  0  0  0  0  0  0  0
   18.7730   17.6460    7.6780 C   0  0  0  0  0  0  0  0  0  0  0  0
   20.0920   16.9760    7.8400 C   0  0  0  0  0  0  0  0  0  0  0  0
   20.6560   16.4360    8.9790 C   0  0  0  0  0  0  0  0  0  0  0  0
   21.8810   15.9860    8.5690 N   0  0  0  0  0  0  0  0  0  0  0  0
   23.0770   15.3200    9.5400 S   0  0  0  0  0  6  0  0  0  0  0  0
   23.9560   16.4240    9.8810 O   0  0  0  0  0  0  0  0  0  0  0  0
   23.5650   14.1720    8.7950 O   0  0  0  0  0  0  0  0  0  0  0  0
   22.4150   14.7030   11.0570 C   0  0  0  0  0  0  0  0  0  0  0  0
   21.6360   13.5370   10.9560 C   0  0  0  0  0  0  0  0  0  0  0  0
   21.0950   12.9590   12.0980 C   0  0  0  0  0  0  0  0  0  0  0  0
   21.3370   13.5430   13.3360 C   0  0  0  0  0  0  0  0  0  0  0  0
   22.1170   14.7090   13.4340 C   0  0  0  0  0  0  0  0  0  0  0  0
   22.3670   15.3080   14.6740 C   0  0  0  0  0  0  0  0  0  0  0  0
   23.1320   16.4680   14.7460 C   0  0  0  0  0  0  0  0  0  0  0  0
   23.6320   17.0010   13.5760 C   0  0  0  0  0  0  0  0  0  0  0  0
   24.3630   18.1710   13.5220 N   0  0  0  0  0  0  0  0  0  0  0  0
   24.8080   18.7830   14.7790 C   0  0  1  0  0  0  0  0  0  0  0  0
   25.9260   17.9530   15.4170 C   0  0  0  0  0  0  0  0  0  0  0  0
   26.4210   18.6340   16.6820 C   0  0  0  0  0  0  0  0  0  0  0  0
   26.9050   20.0340   16.3960 C   0  0  0  0  0  0  0  0  0  0  0  0
   27.7230   20.6030   17.1110 O   0  0  0  0  0  0  0  0  0  0  0  0
   26.3240   20.6740   15.3320 N   0  0  0  0  0  0  0  0  0  0  0  0
   25.3320   20.2100   14.4980 C   0  0  0  0  0  0  0  0  0  0  0  0
   24.8800   20.9500   13.6250 O   0  0  0  0  0  0  0  0  0  0  0  0
   23.4040   16.4250   12.3840 N   0  0  0  0  0  0  0  0  0  0  0  0
   22.6660   15.3090   12.2820 C   0  0  0  0  0  0  0  0  0  0  0  0
   22.0150   16.2260    7.2360 C   0  0  0  0  0  0  0  0  0  0  0  0
   20.9580   16.8600    6.7660 N   0  0  0  0  0  0  0  0  0  0  0  0
   18.9504   19.6134    8.5356 H   0  0  0  0  0  0  0  0  0  0  0  0
   19.8320   19.3891    6.9867 H   0  0  0  0  0  0  0  0  0  0  0  0
   18.0430   19.5504    6.9867 H   0  0  0  0  0  0  0  0  0  0  0  0
   18.1535   17.4270    8.5602 H   0  0  0  0  0  0  0  0  0  0  0  0
   18.3090   17.2610    6.7579 H   0  0  0  0  0  0  0  0  0  0  0  0
   20.2193   16.3804    9.9871 H   0  0  0  0  0  0  0  0  0  0  0  0
   21.4545   13.0815    9.9713 H   0  0  0  0  0  0  0  0  0  0  0  0
   20.4817   12.0489   12.0231 H   0  0  0  0  0  0  0  0  0  0  0  0
   20.9154   13.0899   14.2454 H   0  0  0  0  0  0  0  0  0  0  0  0
   21.9584   14.8613   15.5924 H   0  0  0  0  0  0  0  0  0  0  0  0
   23.3336   16.9493   15.7143 H   0  0  0  0  0  0  0  0  0  0  0  0
   24.5915   18.6058   12.6167 H   0  0  0  0  0  0  0  0  0  0  0  0
   23.9548   18.8231   15.4721 H   0  0  0  0  0  0  0  0  0  0  0  0
   25.5402   16.9540   15.6681 H   0  0  0  0  0  0  0  0  0  0  0  0
   26.7599   17.8626   14.7054 H   0  0  0  0  0  0  0  0  0  0  0  0
   25.5974   18.6810   17.4096 H   0  0  0  0  0  0  0  0  0  0  0  0
   27.2623   18.0507   17.0845 H   0  0  0  0  0  0  0  0  0  0  0  0
   26.6739   21.6217   15.1312 H   0  0  0  0  0  0  0  0  0  0  0  0
   22.8863   15.9313    6.6326 H   0  0  0  0  0  0  0  0  0  0  0  0
  1  2  1  0
  2  3  1  0
  3  4  2  0
  4  5  1  0
  5  6  1  0
  6  7  2  0
  6  8  2  0
  6  9  1  0
  9 10  2  0
 10 11  1  0
 11 12  2  0
 12 13  1  0
 13 14  2  0
 14 15  1  0
 15 16  2  0
 16 17  1  0
 17 18  1  0
 18 19  1  0
 19 20  1  0
 20 21  1  0
 21 22  2  0
 21 23  1  0
 23 24  1  0
 24 25  2  0
 16 26  1  0
 26 27  2  0
  5 28  1  0
 28 29  2  0
 29  3  1  0
 27  9  1  0
 27 13  1  0
 24 18  1  0
  1 30  1  0
  1 31  1  0
  1 32  1  0
  2 33  1  0
  2 34  1  0
  4 35  1  0
 10 36  1  0
 11 37  1  0
 12 38  1  0
 14 39  1  0
 15 40  1  0
 17 41  1  0
 18 42  1  1
 19 43  1  0
 19 44  1  0
 20 45  1  0
 20 46  1  0
 23 47  1  0
 28 48  1  0
M  END
>  <meeko>  (1052) 
{"is_sidechain": [true], "free_energy": -10.29, "intermolecular_energy": 0.0, "internal_energy": -10.29, "cluster_size": 15, "cluster_id": 1, "rank_in_cluster": 1}

>  <_RMSD_MCS_to_ref>  (1052) 
0.49889065824977047

$$$$
ligand
     RDKit          3D

 44 46  0  0  0  0  0  0  0  0999 V2000
   18.9090   19.1540    7.5370 C   0  0  0  0  0  0  0  0  0  0  0  0
   18.7730   17.6460    7.6780 C   0  0  0  0  0  0  0  0  0  0  0  0
   20.0760   16.9470    7.5090 C   0  0  0  0  0  0  0  0  0  0  0  0
   21.0860   16.7550    8.4320 C   0  0  0  0  0  0  0  0  0  0  0  0
   22.0470   16.0760    7.7400 N   0  0  0  0  0  0  0  0  0  0  0  0
   23.4180   15.3680    8.4060 S   0  0  0  0  0  6  0  0  0  0  0  0
   24.5260   16.2170    8.0170 O   0  0  0  0  0  0  0  0  0  0  0  0
   23.3550   13.9630    8.0630 O   0  0  0  0  0  0  0  0  0  0  0  0
   23.1720   15.5310   10.1500 C   0  0  0  0  0  0  0  0  0  0  0  0
   22.1790   14.7830   10.7800 C   0  0  0  0  0  0  0  0  0  0  0  0
   22.0140   14.9540   12.1420 C   0  0  0  0  0  0  0  0  0  0  0  0
   22.7560   15.8030   12.8830 N   0  0  0  0  0  0  0  0  0  0  0  0
   23.7050   16.5310   12.2290 C   0  0  0  0  0  0  0  0  0  0  0  0
   24.5170   17.4700   13.0690 C   0  0  0  0  0  0  0  0  0  0  0  0
   25.6620   17.7770   12.7610 O   0  0  0  0  0  0  0  0  0  0  0  0
   23.8770   17.9290   14.1970 N   0  0  0  0  0  0  0  0  0  0  0  0
   24.5550   18.7100   15.2160 C   0  0  1  0  0  0  0  0  0  0  0  0
   25.6470   17.9070   15.9160 C   0  0  0  0  0  0  0  0  0  0  0  0
   26.3330   18.7800   16.9550 C   0  0  0  0  0  0  0  0  0  0  0  0
   26.8780   20.0450   16.3350 C   0  0  0  0  0  0  0  0  0  0  0  0
   27.9040   20.5850   16.7340 O   0  0  0  0  0  0  0  0  0  0  0  0
   26.1470   20.5910   15.3100 N   0  0  0  0  0  0  0  0  0  0  0  0
   25.1830   19.9500   14.5700 C   0  0  0  0  0  0  0  0  0  0  0  0
   24.8470   20.3780   13.4660 O   0  0  0  0  0  0  0  0  0  0  0  0
   23.9490   16.4350   10.8700 C   0  0  0  0  0  0  0  0  0  0  0  0
   21.6040   15.8360    6.4790 C   0  0  0  0  0  0  0  0  0  0  0  0
   20.4090   16.3620    6.3030 N   0  0  0  0  0  0  0  0  0  0  0  0
   18.9504   19.6134    8.5356 H   0  0  0  0  0  0  0  0  0  0  0  0
   19.8320   19.3891    6.9867 H   0  0  0  0  0  0  0  0  0  0  0  0
   18.0430   19.5504    6.9867 H   0  0  0  0  0  0  0  0  0  0  0  0
   18.3754   17.4179    8.6780 H   0  0  0  0  0  0  0  0  0  0  0  0
   18.0944   17.2922    6.8878 H   0  0  0  0  0  0  0  0  0  0  0  0
   21.1102   17.0759    9.4839 H   0  0  0  0  0  0  0  0  0  0  0  0
   21.5489   14.0814   10.2137 H   0  0  0  0  0  0  0  0  0  0  0  0
   21.2352   14.3657   12.6493 H   0  0  0  0  0  0  0  0  0  0  0  0
   22.8785   17.7102   14.3235 H   0  0  0  0  0  0  0  0  0  0  0  0
   23.8080   18.9996   15.9697 H   0  0  0  0  0  0  0  0  0  0  0  0
   25.1989   17.0325   16.4104 H   0  0  0  0  0  0  0  0  0  0  0  0
   26.3866   17.5708   15.1744 H   0  0  0  0  0  0  0  0  0  0  0  0
   25.6051   19.0479   17.7350 H   0  0  0  0  0  0  0  0  0  0  0  0
   27.1727   18.2140   17.3845 H   0  0  0  0  0  0  0  0  0  0  0  0
   26.3392   21.5747   15.0729 H   0  0  0  0  0  0  0  0  0  0  0  0
   24.7221   17.0455   10.3805 H   0  0  0  0  0  0  0  0  0  0  0  0
   22.1641   15.2806    5.7123 H   0  0  0  0  0  0  0  0  0  0  0  0
  1  2  1  0
  2  3  1  0
  3  4  2  0
  4  5  1  0
  5  6  1  0
  6  7  2  0
  6  8  2  0
  6  9  1  0
  9 10  2  0
 10 11  1  0
 11 12  2  0
 12 13  1  0
 13 14  1  0
 14 15  2  0
 14 16  1  0
 16 17  1  0
 17 18  1  0
 18 19  1  0
 19 20  1  0
 20 21  2  0
 20 22  1  0
 22 23  1  0
 23 24  2  0
 13 25  2  0
  5 26  1  0
 26 27  2  0
 27  3  1  0
 25  9  1  0
 23 17  1  0
  1 28  1  0
  1 29  1  0
  1 30  1  0
  2 31  1  0
  2 32  1  0
  4 33  1  0
 10 34  1  0
 11 35  1  0
 16 36  1  0
 17 37  1  1
 18 38  1  0
 18 39  1  0
 19 40  1  0
 19 41  1  0
 22 42  1  0
 25 43  1  0
 26 44  1  0
M  END
>  <meeko>  (1053) 
{"is_sidechain": [true], "free_energy": -10.29, "intermolecular_energy": 0.0, "internal_energy": -10.29, "cluster_size": 20, "cluster_id": 1, "rank_in_cluster": 1}

>  <_RMSD_MCS_to_ref>  (1053) 
0.5468495629004787

$$$$
ligand
     RDKit          3D

 46 49  0  0  0  0  0  0  0  0999 V2000
   18.9090   19.1540    7.5370 C   0  0  0  0  0  0  0  0  0  0  0  0
   18.7730   17.6460    7.6780 C   0  0  0  0  0  0  0  0  0  0  0  0
   19.8620   16.9150    6.9760 C   0  0  0  0  0  0  0  0  0  0  0  0
   21.0890   16.5060    7.4640 C   0  0  0  0  0  0  0  0  0  0  0  0
   21.6780   15.8780    6.4040 N   0  0  0  0  0  0  0  0  0  0  0  0
   23.2490   15.2800    6.3510 S   0  0  0  0  0  6  0  0  0  0  0  0
   23.1540   14.0700    5.5510 O   0  0  0  0  0  0  0  0  0  0  0  0
   24.0670   16.4150    5.9540 O   0  0  0  0  0  0  0  0  0  0  0  0
   23.6110   14.8530    8.0400 C   0  0  0  0  0  0  0  0  0  0  0  0
   23.6620   13.5380    8.3330 N   0  0  0  0  0  0  0  0  0  0  0  0
   23.9290   13.2070    9.6120 C   0  0  0  0  0  0  0  0  0  0  0  0
   24.1380   14.2140   10.5470 C   0  0  0  0  0  0  0  0  0  0  0  0
   24.4920   14.0950   12.2190 S   0  0  0  0  0  0  0  0  0  0  0  0
   24.5520   15.7950   12.4130 C   0  0  0  0  0  0  0  0  0  0  0  0
   24.8320   16.4300   13.6930 C   0  0  0  0  0  0  0  0  0  0  0  0
   24.7690   15.8280   14.7610 O   0  0  0  0  0  0  0  0  0  0  0  0
   25.1660   17.7650   13.6500 N   0  0  0  0  0  0  0  0  0  0  0  0
   25.3140   18.5650   14.8550 C   0  0  1  0  0  0  0  0  0  0  0  0
   26.3000   17.9480   15.8410 C   0  0  0  0  0  0  0  0  0  0  0  0
   26.4370   18.8540   17.0560 C   0  0  0  0  0  0  0  0  0  0  0  0
   26.8420   20.2530   16.6520 C   0  0  0  0  0  0  0  0  0  0  0  0
   27.5690   20.9540   17.3480 O   0  0  0  0  0  0  0  0  0  0  0  0
   26.3300   20.7240   15.4700 N   0  0  0  0  0  0  0  0  0  0  0  0
   25.8150   19.9560   14.4560 C   0  0  0  0  0  0  0  0  0  0  0  0
   25.7570   20.3780   13.3010 O   0  0  0  0  0  0  0  0  0  0  0  0
   24.3030   16.4400   11.2150 C   0  0  0  0  0  0  0  0  0  0  0  0
   24.0650   15.5420   10.1380 C   0  0  0  0  0  0  0  0  0  0  0  0
   23.7960   15.9030    8.8590 N   0  0  0  0  0  0  0  0  0  0  0  0
   20.8490   15.9440    5.3290 C   0  0  0  0  0  0  0  0  0  0  0  0
   19.7290   16.5620    5.6470 N   0  0  0  0  0  0  0  0  0  0  0  0
   18.9504   19.6134    8.5356 H   0  0  0  0  0  0  0  0  0  0  0  0
   19.8320   19.3891    6.9867 H   0  0  0  0  0  0  0  0  0  0  0  0
   18.0430   19.5504    6.9867 H   0  0  0  0  0  0  0  0  0  0  0  0
   18.8034   17.3860    8.7464 H   0  0  0  0  0  0  0  0  0  0  0  0
   17.8177   17.3491    7.2205 H   0  0  0  0  0  0  0  0  0  0  0  0
   21.4974   16.6528    8.4748 H   0  0  0  0  0  0  0  0  0  0  0  0
   23.9810   12.1502    9.9129 H   0  0  0  0  0  0  0  0  0  0  0  0
   25.3159   18.2117   12.7341 H   0  0  0  0  0  0  0  0  0  0  0  0
   24.3343   18.6173   15.3524 H   0  0  0  0  0  0  0  0  0  0  0  0
   25.9316   16.9615   16.1590 H   0  0  0  0  0  0  0  0  0  0  0  0
   27.2808   17.8345   15.3560 H   0  0  0  0  0  0  0  0  0  0  0  0
   25.4717   18.8976   17.5816 H   0  0  0  0  0  0  0  0  0  0  0  0
   27.2176   18.4412   17.7119 H   0  0  0  0  0  0  0  0  0  0  0  0
   26.3322   21.7446   15.3311 H   0  0  0  0  0  0  0  0  0  0  0  0
   24.2904   17.5346   11.1064 H   0  0  0  0  0  0  0  0  0  0  0  0
   21.0803   15.5385    4.3330 H   0  0  0  0  0  0  0  0  0  0  0  0
  1  2  1  0
  2  3  1  0
  3  4  2  0
  4  5  1  0
  5  6  1  0
  6  7  2  0
  6  8  2  0
  6  9  1  0
  9 10  2  0
 10 11  1  0
 11 12  2  0
 12 13  1  0
 13 14  1  0
 14 15  1  0
 15 16  2  0
 15 17  1  0
 17 18  1  0
 18 19  1  0
 19 20  1  0
 20 21  1  0
 21 22  2  0
 21 23  1  0
 23 24  1  0
 24 25  2  0
 14 26  2  0
 26 27  1  0
 27 28  2  0
  5 29  1  0
 29 30  2  0
 30  3  1  0
 28  9  1  0
 27 12  1  0
 24 18  1  0
  1 31  1  0
  1 32  1  0
  1 33  1  0
  2 34  1  0
  2 35  1  0
  4 36  1  0
 11 37  1  0
 17 38  1  0
 18 39  1  1
 19 40  1  0
 19 41  1  0
 20 42  1  0
 20 43  1  0
 23 44  1  0
 26 45  1  0
 29 46  1  0
M  END
>  <meeko>  (1054) 
{"is_sidechain": [true], "free_energy": -10.29, "intermolecular_energy": 0.0, "internal_energy": -10.29, "cluster_size": 20, "cluster_id": 1, "rank_in_cluster": 1}

>  <_RMSD_MCS_to_ref>  (1054) 
0.6082056487004305

$$$$
ligand
     RDKit          3D

 41 43  0  0  0  0  0  0  0  0999 V2000
   18.9090   19.1540    7.5370 C   0  0  0  0  0  0  0  0  0  0  0  0
   18.7730   17.6460    7.6780 C   0  0  0  0  0  0  0  0  0  0  0  0
   20.0800   16.9860    7.9430 C   0  0  0  0  0  0  0  0  0  0  0  0
   20.4900   16.2870    9.0620 C   0  0  0  0  0  0  0  0  0  0  0  0
   21.7800   15.9310    8.7800 N   0  0  0  0  0  0  0  0  0  0  0  0
   22.7380   14.9030    9.6940 S   0  0  0  0  0  6  0  0  0  0  0  0
   21.9720   14.6010   10.8880 O   0  0  0  0  0  0  0  0  0  0  0  0
   23.2020   13.8790    8.7750 O   0  0  0  0  0  0  0  0  0  0  0  0
   24.1540   15.8190   10.2160 C   0  0  0  0  0  0  0  0  0  0  0  0
   24.2490   16.5300   11.3230 N   0  0  0  0  0  0  0  0  0  0  0  0
   25.5230   17.1080   11.3900 C   0  0  0  0  0  0  0  0  0  0  0  0
   25.9230   17.9570   12.5160 C   0  0  0  0  0  0  0  0  0  0  0  0
   27.0410   18.4500   12.6220 O   0  0  0  0  0  0  0  0  0  0  0  0
   24.9260   18.1310   13.4450 N   0  0  0  0  0  0  0  0  0  0  0  0
   25.1570   18.7970   14.7130 C   0  0  1  0  0  0  0  0  0  0  0  0
   26.1420   18.0290   15.5860 C   0  0  0  0  0  0  0  0  0  0  0  0
   26.3720   18.7880   16.8830 C   0  0  0  0  0  0  0  0  0  0  0  0
   26.8430   20.1990   16.6170 C   0  0  0  0  0  0  0  0  0  0  0  0
   27.6140   20.7880   17.3680 O   0  0  0  0  0  0  0  0  0  0  0  0
   26.3360   20.8150   15.5010 N   0  0  0  0  0  0  0  0  0  0  0  0
   25.7030   20.2030   14.4460 C   0  0  0  0  0  0  0  0  0  0  0  0
   25.5720   20.7770   13.3660 O   0  0  0  0  0  0  0  0  0  0  0  0
   26.3480   16.8050   10.3210 C   0  0  0  0  0  0  0  0  0  0  0  0
   25.5380   15.7720    9.2170 S   0  0  0  0  0  0  0  0  0  0  0  0
   22.0900   16.3440    7.5240 C   0  0  0  0  0  0  0  0  0  0  0  0
   21.0830   17.0080    6.9950 N   0  0  0  0  0  0  0  0  0  0  0  0
   18.9504   19.6134    8.5356 H   0  0  0  0  0  0  0  0  0  0  0  0
   19.8320   19.3891    6.9867 H   0  0  0  0  0  0  0  0  0  0  0  0
   18.0430   19.5504    6.9867 H   0  0  0  0  0  0  0  0  0  0  0  0
   18.0906   17.4284    8.5128 H   0  0  0  0  0  0  0  0  0  0  0  0
   18.3822   17.2520    6.7283 H   0  0  0  0  0  0  0  0  0  0  0  0
   19.9114   16.0672    9.9714 H   0  0  0  0  0  0  0  0  0  0  0  0
   23.9822   17.7765   13.2341 H   0  0  0  0  0  0  0  0  0  0  0  0
   24.1997   18.8482   15.2525 H   0  0  0  0  0  0  0  0  0  0  0  0
   25.7322   17.0335   15.8120 H   0  0  0  0  0  0  0  0  0  0  0  0
   27.0972   17.9208   15.0513 H   0  0  0  0  0  0  0  0  0  0  0  0
   25.4291   18.8255   17.4483 H   0  0  0  0  0  0  0  0  0  0  0  0
   27.1500   18.2648   17.4583 H   0  0  0  0  0  0  0  0  0  0  0  0
   26.4402   21.8384   15.4487 H   0  0  0  0  0  0  0  0  0  0  0  0
   27.3768   17.1741   10.1970 H   0  0  0  0  0  0  0  0  0  0  0  0
   23.0480   16.1510    7.0191 H   0  0  0  0  0  0  0  0  0  0  0  0
  1  2  1  0
  2  3  1  0
  3  4  2  0
  4  5  1  0
  5  6  1  0
  6  7  2  0
  6  8  2  0
  6  9  1  0
  9 10  2  0
 10 11  1  0
 11 12  1  0
 12 13  2  0
 12 14  1  0
 14 15  1  0
 15 16  1  0
 16 17  1  0
 17 18  1  0
 18 19  2  0
 18 20  1  0
 20 21  1  0
 21 22  2  0
 11 23  2  0
 23 24  1  0
  5 25  1  0
 25 26  2  0
 26  3  1  0
 24  9  1  0
 21 15  1  0
  1 27  1  0
  1 28  1  0
  1 29  1  0
  2 30  1  0
  2 31  1  0
  4 32  1  0
 14 33  1  0
 15 34  1  1
 16 35  1  0
 16 36  1  0
 17 37  1  0
 17 38  1  0
 20 39  1  0
 23 40  1  0
 25 41  1  0
M  END
>  <meeko>  (1055) 
{"is_sidechain": [true], "free_energy": -10.29, "intermolecular_energy": 0.0, "internal_energy": -10.29, "cluster_size": 20, "cluster_id": 1, "rank_in_cluster": 1}

>  <_RMSD_MCS_to_ref>  (1055) 
0.6047905055104251

$$$$
ligand
     RDKit          3D

 45 48  0  0  0  0  0  0  0  0999 V2000
   18.9090   19.1540    7.5370 C   0  0  0  0  0  0  0  0  0  0  0  0
   18.7730   17.6460    7.6780 C   0  0  0  0  0  0  0  0  0  0  0  0
   20.0830   16.9500    7.5660 C   0  0  0  0  0  0  0  0  0  0  0  0
   21.0880   16.8300    8.5060 C   0  0  0  0  0  0  0  0  0  0  0  0
   22.0600   16.1170    7.8670 N   0  0  0  0  0  0  0  0  0  0  0  0
   23.4260   15.4660    8.5870 S   0  0  0  0  0  6  0  0  0  0  0  0
   24.5080   16.4020    8.3510 O   0  0  0  0  0  0  0  0  0  0  0  0
   23.4810   14.0720    8.2080 O   0  0  0  0  0  0  0  0  0  0  0  0
   23.2140   15.4710   10.3410 C   0  0  0  0  0  0  0  0  0  0  0  0
   22.4440   14.7130   11.2070 C   0  0  0  0  0  0  0  0  0  0  0  0
   22.6910   15.1750   12.5210 C   0  0  0  0  0  0  0  0  0  0  0  0
   22.1760   14.7380   13.6850 N   0  0  0  0  0  0  0  0  0  0  0  0
   22.6490   15.4010   14.7480 C   0  0  0  0  0  0  0  0  0  0  0  0
   23.5300   16.4220   14.7630 N   0  0  0  0  0  0  0  0  0  0  0  0
   24.0320   16.8690   13.5920 C   0  0  0  0  0  0  0  0  0  0  0  0
   24.9430   17.9160   13.5450 N   0  0  0  0  0  0  0  0  0  0  0  0
   25.0850   18.7080   14.7760 C   0  0  1  0  0  0  0  0  0  0  0  0
   26.0360   18.0110   15.7440 C   0  0  0  0  0  0  0  0  0  0  0  0
   26.2380   18.8770   16.9770 C   0  0  0  0  0  0  0  0  0  0  0  0
   26.7560   20.2460   16.6040 C   0  0  0  0  0  0  0  0  0  0  0  0
   27.4780   20.9010   17.3500 O   0  0  0  0  0  0  0  0  0  0  0  0
   26.3430   20.7510   15.3990 N   0  0  0  0  0  0  0  0  0  0  0  0
   25.6680   20.0820   14.4070 C   0  0  0  0  0  0  0  0  0  0  0  0
   25.5270   20.5800   13.2880 O   0  0  0  0  0  0  0  0  0  0  0  0
   23.6030   16.2140   12.4430 C   0  0  0  0  0  0  0  0  0  0  0  0
   23.9230   16.3650   11.1180 N   0  0  0  0  0  0  0  0  0  0  0  0
   21.6220   15.7740    6.6290 C   0  0  0  0  0  0  0  0  0  0  0  0
   20.4270   16.2830    6.4060 N   0  0  0  0  0  0  0  0  0  0  0  0
   18.9504   19.6134    8.5356 H   0  0  0  0  0  0  0  0  0  0  0  0
   19.8320   19.3891    6.9867 H   0  0  0  0  0  0  0  0  0  0  0  0
   18.0430   19.5504    6.9867 H   0  0  0  0  0  0  0  0  0  0  0  0
   18.3351   17.4204    8.6615 H   0  0  0  0  0  0  0  0  0  0  0  0
   18.1295   17.2874    6.8611 H   0  0  0  0  0  0  0  0  0  0  0  0
   21.1016   17.2200    9.5344 H   0  0  0  0  0  0  0  0  0  0  0  0
   21.7622   13.8975   10.9238 H   0  0  0  0  0  0  0  0  0  0  0  0
   22.2732   15.0729   15.7284 H   0  0  0  0  0  0  0  0  0  0  0  0
   25.4880   18.1259   12.6966 H   0  0  0  0  0  0  0  0  0  0  0  0
   24.1016   18.8185   15.2563 H   0  0  0  0  0  0  0  0  0  0  0  0
   25.6082   17.0428   16.0433 H   0  0  0  0  0  0  0  0  0  0  0  0
   27.0053   17.8497   15.2495 H   0  0  0  0  0  0  0  0  0  0  0  0
   25.2763   18.9873   17.4995 H   0  0  0  0  0  0  0  0  0  0  0  0
   26.9791   18.3895   17.6275 H   0  0  0  0  0  0  0  0  0  0  0  0
   26.5627   21.7407   15.2170 H   0  0  0  0  0  0  0  0  0  0  0  0
   24.5991   17.0509   10.7529 H   0  0  0  0  0  0  0  0  0  0  0  0
   22.1852   15.1579    5.9126 H   0  0  0  0  0  0  0  0  0  0  0  0
  1  2  1  0
  2  3  1  0
  3  4  2  0
  4  5  1  0
  5  6  1  0
  6  7  2  0
  6  8  2  0
  6  9  1  0
  9 10  2  0
 10 11  1  0
 11 12  2  0
 12 13  1  0
 13 14  2  0
 14 15  1  0
 15 16  1  0
 16 17  1  0
 17 18  1  0
 18 19  1  0
 19 20  1  0
 20 21  2  0
 20 22  1  0
 22 23  1  0
 23 24  2  0
 15 25  2  0
 25 26  1  0
  5 27  1  0
 27 28  2  0
 28  3  1  0
 26  9  1  0
 25 11  1  0
 23 17  1  0
  1 29  1  0
  1 30  1  0
  1 31  1  0
  2 32  1  0
  2 33  1  0
  4 34  1  0
 10 35  1  0
 13 36  1  0
 16 37  1  0
 17 38  1  1
 18 39  1  0
 18 40  1  0
 19 41  1  0
 19 42  1  0
 22 43  1  0
 26 44  1  0
 27 45  1  0
M  END
>  <meeko>  (1056) 
{"is_sidechain": [true], "free_energy": -10.29, "intermolecular_energy": 0.0, "internal_energy": -10.29, "cluster_size": 20, "cluster_id": 1, "rank_in_cluster": 1}

>  <_RMSD_MCS_to_ref>  (1056) 
0.5197042962642849

$$$$
ligand
     RDKit          3D

 53 57  0  0  0  0  0  0  0  0999 V2000
   18.9090   19.1540    7.5370 C   0  0  0  0  0  0  0  0  0  0  0  0
   18.7730   17.6460    7.6780 C   0  0  0  0  0  0  0  0  0  0  0  0
   20.0290   16.9330    7.3190 C   0  0  0  0  0  0  0  0  0  0  0  0
   20.9710   16.3580    8.1490 C   0  0  0  0  0  0  0  0  0  0  0  0
   21.9180   15.8730    7.2940 N   0  0  0  0  0  0  0  0  0  0  0  0
   23.2100   14.9000    7.7290 S   0  0  0  0  0  6  0  0  0  0  0  0
   23.6260   14.2100    6.5250 O   0  0  0  0  0  0  0  0  0  0  0  0
   22.8370   14.2100    8.9450 O   0  0  0  0  0  0  0  0  0  0  0  0
   24.5820   15.8980    8.1580 C   0  0  0  0  0  0  0  0  0  0  0  0
   24.9880   16.8790    7.2950 N   0  0  0  0  0  0  0  0  0  0  0  0
   26.0350   17.5960    7.7350 N   0  0  0  0  0  0  0  0  0  0  0  0
   26.3230   17.0450    8.9150 C   0  0  0  0  0  0  0  0  0  0  0  0
   25.4550   15.9780    9.2270 C   0  0  0  0  0  0  0  0  0  0  0  0
   25.4130   15.1240   10.3860 C   0  0  0  0  0  0  0  0  0  0  0  0
   25.2800   13.7350   10.2330 C   0  0  0  0  0  0  0  0  0  0  0  0
   25.2520   12.8830   11.3520 C   0  0  0  0  0  0  0  0  0  0  0  0
   25.3450   13.4040   12.6420 C   0  0  0  0  0  0  0  0  0  0  0  0
   25.4670   14.7760   12.7660 C   0  0  0  0  0  0  0  0  0  0  0  0
   25.5030   15.6380   11.6700 C   0  0  0  0  0  0  0  0  0  0  0  0
   25.6130   17.0500   12.1450 C   0  0  0  0  0  0  0  0  0  0  0  0
   25.7340   16.8950   13.5890 N   0  0  0  0  0  0  0  0  0  0  0  0
   25.6360   18.0070   14.5270 C   0  0  1  0  0  0  0  0  0  0  0  0
   26.1950   17.6610   15.9040 C   0  0  0  0  0  0  0  0  0  0  0  0
   25.9770   18.8350   16.8460 C   0  0  0  0  0  0  0  0  0  0  0  0
   26.5850   20.1020   16.2910 C   0  0  0  0  0  0  0  0  0  0  0  0
   27.1020   20.9520   17.0080 O   0  0  0  0  0  0  0  0  0  0  0  0
   26.5150   20.2710   14.9310 N   0  0  0  0  0  0  0  0  0  0  0  0
   26.3410   19.2700   14.0030 C   0  0  0  0  0  0  0  0  0  0  0  0
   26.7430   19.4140   12.8510 O   0  0  0  0  0  0  0  0  0  0  0  0
   25.5700   15.5790   13.9880 C   0  0  0  0  0  0  0  0  0  0  0  0
   25.5180   15.1390   15.1210 O   0  0  0  0  0  0  0  0  0  0  0  0
   21.5270   16.1040    6.0150 C   0  0  0  0  0  0  0  0  0  0  0  0
   20.3850   16.7590    5.9960 N   0  0  0  0  0  0  0  0  0  0  0  0
   18.9504   19.6134    8.5356 H   0  0  0  0  0  0  0  0  0  0  0  0
   19.8320   19.3891    6.9867 H   0  0  0  0  0  0  0  0  0  0  0  0
   18.0430   19.5504    6.9867 H   0  0  0  0  0  0  0  0  0  0  0  0
   18.5169   17.4093    8.7213 H   0  0  0  0  0  0  0  0  0  0  0  0
   17.9852   17.3116    6.9870 H   0  0  0  0  0  0  0  0  0  0  0  0
   20.9606   16.3033    9.2476 H   0  0  0  0  0  0  0  0  0  0  0  0
   24.5312   17.0523    6.3882 H   0  0  0  0  0  0  0  0  0  0  0  0
   27.1412   17.3830    9.5680 H   0  0  0  0  0  0  0  0  0  0  0  0
   25.1965   13.3065    9.2233 H   0  0  0  0  0  0  0  0  0  0  0  0
   25.1559   11.7967   11.2081 H   0  0  0  0  0  0  0  0  0  0  0  0
   25.3222   12.7497   13.5260 H   0  0  0  0  0  0  0  0  0  0  0  0
   26.5018   17.5421   11.7232 H   0  0  0  0  0  0  0  0  0  0  0  0
   24.7623   17.6789   11.8437 H   0  0  0  0  0  0  0  0  0  0  0  0
   24.5594   18.2103   14.6254 H   0  0  0  0  0  0  0  0  0  0  0  0
   25.6781   16.7734   16.2977 H   0  0  0  0  0  0  0  0  0  0  0  0
   27.2715   17.4503   15.8217 H   0  0  0  0  0  0  0  0  0  0  0  0
   24.8965   18.9869   16.9857 H   0  0  0  0  0  0  0  0  0  0  0  0
   26.4641   18.6065   17.8054 H   0  0  0  0  0  0  0  0  0  0  0  0
   26.6003   21.2330   14.5729 H   0  0  0  0  0  0  0  0  0  0  0  0
   22.0851   15.7887    5.1210 H   0  0  0  0  0  0  0  0  0  0  0  0
  1  2  1  0
  2  3  1  0
  3  4  2  0
  4  5  1  0
  5  6  1  0
  6  7  2  0
  6  8  2  0
  6  9  1  0
  9 10  1  0
 10 11  1  0
 11 12  2  0
 12 13  1  0
 13 14  1  0
 14 15  2  0
 15 16  1  0
 16 17  2  0
 17 18  1  0
 18 19  2  0
 19 20  1  0
 20 21  1  0
 21 22  1  0
 22 23  1  0
 23 24  1  0
 24 25  1  0
 25 26  2  0
 25 27  1  0
 27 28  1  0
 28 29  2  0
 21 30  1  0
 30 31  2  0
  5 32  1  0
 32 33  2  0
 33  3  1  0
 13  9  2  0
 19 14  1  0
 28 22  1  0
 30 18  1  0
  1 34  1  0
  1 35  1  0
  1 36  1  0
  2 37  1  0
  2 38  1  0
  4 39  1  0
 10 40  1  0
 12 41  1  0
 15 42  1  0
 16 43  1  0
 17 44  1  0
 20 45  1  0
 20 46  1  0
 22 47  1  1
 23 48  1  0
 23 49  1  0
 24 50  1  0
 24 51  1  0
 27 52  1  0
 32 53  1  0
M  END
>  <meeko>  (1057) 
{"is_sidechain": [true], "free_energy": -10.29, "intermolecular_energy": 0.0, "internal_energy": -10.29, "cluster_size": 16, "cluster_id": 1, "rank_in_cluster": 1}

>  <_RMSD_MCS_to_ref>  (1057) 
1.7225514667363513

$$$$
ligand
     RDKit          3D

 44 47  0  0  0  0  0  0  0  0999 V2000
   18.8250   19.0170    7.5350 C   0  0  0  0  0  0  0  0  0  0  0  0
   18.5200   17.5420    7.7330 C   0  0  0  0  0  0  0  0  0  0  0  0
   19.7090   16.7790    8.2010 C   0  0  0  0  0  0  0  0  0  0  0  0
   20.3170   16.7960    9.4410 C   0  0  0  0  0  0  0  0  0  0  0  0
   21.3600   15.9220    9.3140 N   0  0  0  0  0  0  0  0  0  0  0  0
   22.4660   15.5510   10.5150 S   0  0  0  0  0  6  0  0  0  0  0  0
   23.3910   14.6220    9.8910 O   0  0  0  0  0  0  0  0  0  0  0  0
   22.9020   16.7910   11.1190 O   0  0  0  0  0  0  0  0  0  0  0  0
   21.7390   14.6380   11.7980 C   0  0  0  0  0  0  0  0  0  0  0  0
   20.9800   13.5100   11.5490 C   0  0  0  0  0  0  0  0  0  0  0  0
   20.3210   12.8420   12.9780 S   0  0  0  0  0  0  0  0  0  0  0  0
   21.0620   14.0430   13.9450 C   0  0  0  0  0  0  0  0  0  0  0  0
   21.8110   14.9280   13.1960 C   0  0  0  0  0  0  0  0  0  0  0  0
   22.5640   16.0320   13.7680 C   0  0  0  0  0  0  0  0  0  0  0  0
   23.9190   16.2520   13.7650 C   0  0  0  0  0  0  0  0  0  0  0  0
   24.0660   17.3360   14.5840 N   0  0  0  0  0  0  0  0  0  0  0  0
   25.2660   18.0240   15.0360 C   0  0  2  0  0  0  0  0  0  0  0  0
   25.3550   18.0060   16.5630 C   0  0  0  0  0  0  0  0  0  0  0  0
   26.6620   18.6410   17.0090 C   0  0  0  0  0  0  0  0  0  0  0  0
   26.8010   20.0400   16.4650 C   0  0  0  0  0  0  0  0  0  0  0  0
   27.4180   20.9210   17.0550 O   0  0  0  0  0  0  0  0  0  0  0  0
   26.2260   20.2760   15.2400 N   0  0  0  0  0  0  0  0  0  0  0  0
   25.3820   19.4510   14.5260 C   0  0  0  0  0  0  0  0  0  0  0  0
   24.8080   19.8930   13.5340 O   0  0  0  0  0  0  0  0  0  0  0  0
   22.8620   17.8370   14.9340 N   0  0  0  0  0  0  0  0  0  0  0  0
   21.9330   17.0180   14.4630 N   0  0  0  0  0  0  0  0  0  0  0  0
   21.3460   15.3890    8.0660 C   0  0  0  0  0  0  0  0  0  0  0  0
   20.3620   15.9040    7.3550 N   0  0  0  0  0  0  0  0  0  0  0  0
   18.9260   19.5054    8.5155 H   0  0  0  0  0  0  0  0  0  0  0  0
   19.7645   19.1250    6.9731 H   0  0  0  0  0  0  0  0  0  0  0  0
   18.0054   19.4887    6.9731 H   0  0  0  0  0  0  0  0  0  0  0  0
   17.7192   17.4433    8.4806 H   0  0  0  0  0  0  0  0  0  0  0  0
   18.2143   17.1274    6.7611 H   0  0  0  0  0  0  0  0  0  0  0  0
   20.0280   17.3793   10.3277 H   0  0  0  0  0  0  0  0  0  0  0  0
   20.8184   13.0898   10.5453 H   0  0  0  0  0  0  0  0  0  0  0  0
   20.9540   14.1031   15.0380 H   0  0  0  0  0  0  0  0  0  0  0  0
   24.6996   15.6902   13.2311 H   0  0  0  0  0  0  0  0  0  0  0  0
   26.1112   17.4675   14.6048 H   0  0  0  0  0  0  0  0  0  0  0  0
   24.5112   18.5718   16.9849 H   0  0  0  0  0  0  0  0  0  0  0  0
   25.3168   16.9653   16.9173 H   0  0  0  0  0  0  0  0  0  0  0  0
   26.6858   18.6792   18.1081 H   0  0  0  0  0  0  0  0  0  0  0  0
   27.4941   18.0330   16.6243 H   0  0  0  0  0  0  0  0  0  0  0  0
   26.4528   21.1796   14.8008 H   0  0  0  0  0  0  0  0  0  0  0  0
   22.0560   14.6333    7.6989 H   0  0  0  0  0  0  0  0  0  0  0  0
  1  2  1  0
  2  3  1  0
  3  4  2  0
  4  5  1  0
  5  6  1  0
  6  7  2  0
  6  8  2  0
  6  9  1  0
  9 10  2  0
 10 11  1  0
 11 12  1  0
 12 13  2  0
 13 14  1  0
 14 15  2  0
 15 16  1  0
 16 17  1  0
 17 18  1  0
 18 19  1  0
 19 20  1  0
 20 21  2  0
 20 22  1  0
 22 23  1  0
 23 24  2  0
 16 25  1  0
 25 26  2  0
  5 27  1  0
 27 28  2  0
 28  3  1  0
 13  9  1  0
 26 14  1  0
 23 17  1  0
  1 29  1  0
  1 30  1  0
  1 31  1  0
  2 32  1  0
  2 33  1  0
  4 34  1  0
 10 35  1  0
 12 36  1  0
 15 37  1  0
 17 38  1  6
 18 39  1  0
 18 40  1  0
 19 41  1  0
 19 42  1  0
 22 43  1  0
 27 44  1  0
M  END
>  <meeko>  (1058) 
{"is_sidechain": [true], "free_energy": -10.28, "intermolecular_energy": 0.0, "internal_energy": -10.28, "cluster_size": 19, "cluster_id": 1, "rank_in_cluster": 1}

>  <_RMSD_MCS_to_ref>  (1058) 
0.5362289104892091

$$$$
ligand
     RDKit          3D

 53 57  0  0  0  0  0  0  0  0999 V2000
   18.8250   19.0180    7.5350 C   0  0  0  0  0  0  0  0  0  0  0  0
   18.5200   17.5410    7.7330 C   0  0  0  0  0  0  0  0  0  0  0  0
   19.7550   16.7110    7.7670 C   0  0  0  0  0  0  0  0  0  0  0  0
   20.1780   15.8250    8.7380 C   0  0  0  0  0  0  0  0  0  0  0  0
   21.3650   15.3480    8.2570 N   0  0  0  0  0  0  0  0  0  0  0  0
   22.3390   14.2090    9.0070 S   0  0  0  0  0  6  0  0  0  0  0  0
   21.5750   12.9810    9.0900 O   0  0  0  0  0  0  0  0  0  0  0  0
   23.5870   14.2820    8.2680 O   0  0  0  0  0  0  0  0  0  0  0  0
   22.6290   14.8200   10.6580 C   0  0  0  0  0  0  0  0  0  0  0  0
   23.9060   15.3600   10.8940 C   0  0  0  0  0  0  0  0  0  0  0  0
   24.1540   15.8960   12.1390 C   0  0  0  0  0  0  0  0  0  0  0  0
   23.1970   15.9220   13.1420 C   0  0  0  0  0  0  0  0  0  0  0  0
   21.9400   15.3850   12.9170 C   0  0  0  0  0  0  0  0  0  0  0  0
   21.6210   14.7910   11.6680 C   0  0  0  0  0  0  0  0  0  0  0  0
   20.2330   14.2010   11.4960 C   0  0  0  0  0  0  0  0  0  0  0  0
   19.8580   12.9050   12.1750 C   0  0  0  0  0  0  0  0  0  0  0  0
   19.2660   14.1860   12.6640 C   0  0  0  0  0  0  0  0  0  0  0  0
   23.7440   16.5940   14.3570 C   0  0  0  0  0  0  0  0  0  0  0  0
   25.1240   16.8640   13.9740 N   0  0  0  0  0  0  0  0  0  0  0  0
   26.0070   17.7530   14.7200 C   0  0  2  0  0  0  0  0  0  0  0  0
   25.8120   17.6410   16.2290 C   0  0  0  0  0  0  0  0  0  0  0  0
   26.8220   18.5330   16.9360 C   0  0  0  0  0  0  0  0  0  0  0  0
   26.7170   19.9620   16.4550 C   0  0  0  0  0  0  0  0  0  0  0  0
   26.8740   20.9200   17.2040 O   0  0  0  0  0  0  0  0  0  0  0  0
   26.4460   20.1420   15.1220 N   0  0  0  0  0  0  0  0  0  0  0  0
   25.8330   19.2240   14.3020 C   0  0  0  0  0  0  0  0  0  0  0  0
   25.1900   19.5960   13.3230 O   0  0  0  0  0  0  0  0  0  0  0  0
   25.3700   16.5380   12.6480 C   0  0  0  0  0  0  0  0  0  0  0  0
   26.3780   16.7360   11.9990 O   0  0  0  0  0  0  0  0  0  0  0  0
   21.6490   15.9600    7.0800 C   0  0  0  0  0  0  0  0  0  0  0  0
   20.6720   16.7720    6.7350 N   0  0  0  0  0  0  0  0  0  0  0  0
   18.9258   19.5062    8.5155 H   0  0  0  0  0  0  0  0  0  0  0  0
   19.7645   19.1263    6.9731 H   0  0  0  0  0  0  0  0  0  0  0  0
   18.0053   19.4896    6.9731 H   0  0  0  0  0  0  0  0  0  0  0  0
   17.9822   17.4148    8.6843 H   0  0  0  0  0  0  0  0  0  0  0  0
   17.9109   17.2050    6.8809 H   0  0  0  0  0  0  0  0  0  0  0  0
   19.6756   15.5635    9.6810 H   0  0  0  0  0  0  0  0  0  0  0  0
   24.6797   15.3547   10.1121 H   0  0  0  0  0  0  0  0  0  0  0  0
   21.1822   15.4193   13.7136 H   0  0  0  0  0  0  0  0  0  0  0  0
   20.2109   14.5731   10.4611 H   0  0  0  0  0  0  0  0  0  0  0  0
   19.2256   12.1740   11.6500 H   0  0  0  0  0  0  0  0  0  0  0  0
   20.4222   12.0847   12.6428 H   0  0  0  0  0  0  0  0  0  0  0  0
   18.1995   14.3974   12.4970 H   0  0  0  0  0  0  0  0  0  0  0  0
   19.2158   14.6966   13.6370 H   0  0  0  0  0  0  0  0  0  0  0  0
   23.2019   17.5263   14.5736 H   0  0  0  0  0  0  0  0  0  0  0  0
   23.6531   15.9889   15.2711 H   0  0  0  0  0  0  0  0  0  0  0  0
   27.0270   17.4243   14.4718 H   0  0  0  0  0  0  0  0  0  0  0  0
   24.7928   17.9602   16.4922 H   0  0  0  0  0  0  0  0  0  0  0  0
   25.9604   16.5971   16.5425 H   0  0  0  0  0  0  0  0  0  0  0  0
   26.6311   18.5036   18.0189 H   0  0  0  0  0  0  0  0  0  0  0  0
   27.8329   18.1622   16.7112 H   0  0  0  0  0  0  0  0  0  0  0  0
   26.7250   21.0394   14.7005 H   0  0  0  0  0  0  0  0  0  0  0  0
   22.5672   15.8001    6.4957 H   0  0  0  0  0  0  0  0  0  0  0  0
  1  2  1  0
  2  3  1  0
  3  4  2  0
  4  5  1  0
  5  6  1  0
  6  7  2  0
  6  8  2  0
  6  9  1  0
  9 10  2  0
 10 11  1  0
 11 12  2  0
 12 13  1  0
 13 14  2  0
 14 15  1  0
 15 16  1  0
 16 17  1  0
 12 18  1  0
 18 19  1  0
 19 20  1  0
 20 21  1  0
 21 22  1  0
 22 23  1  0
 23 24  2  0
 23 25  1  0
 25 26  1  0
 26 27  2  0
 19 28  1  0
 28 29  2  0
  5 30  1  0
 30 31  2  0
 31  3  1  0
 14  9  1  0
 17 15  1  0
 26 20  1  0
 28 11  1  0
  1 32  1  0
  1 33  1  0
  1 34  1  0
  2 35  1  0
  2 36  1  0
  4 37  1  0
 10 38  1  0
 13 39  1  0
 15 40  1  0
 16 41  1  0
 16 42  1  0
 17 43  1  0
 17 44  1  0
 18 45  1  0
 18 46  1  0
 20 47  1  1
 21 48  1  0
 21 49  1  0
 22 50  1  0
 22 51  1  0
 25 52  1  0
 30 53  1  0
M  END
>  <meeko>  (1059) 
{"is_sidechain": [true], "free_energy": -10.28, "intermolecular_energy": 0.0, "internal_energy": -10.28, "cluster_size": 18, "cluster_id": 1, "rank_in_cluster": 1}

>  <_RMSD_MCS_to_ref>  (1059) 
1.9349997416020501

$$$$
ligand
     RDKit          3D

 54 58  0  0  0  0  0  0  0  0999 V2000
   18.8250   19.0180    7.5350 C   0  0  0  0  0  0  0  0  0  0  0  0
   18.5200   17.5410    7.7330 C   0  0  0  0  0  0  0  0  0  0  0  0
   19.7550   16.7130    7.7400 C   0  0  0  0  0  0  0  0  0  0  0  0
   20.2710   15.9280    8.7530 C   0  0  0  0  0  0  0  0  0  0  0  0
   21.4260   15.4240    8.2290 N   0  0  0  0  0  0  0  0  0  0  0  0
   22.4680   14.3610    9.0040 S   0  0  0  0  0  6  0  0  0  0  0  0
   23.6470   14.2160    8.1710 O   0  0  0  0  0  0  0  0  0  0  0  0
   21.6320   13.2250    9.3460 O   0  0  0  0  0  0  0  0  0  0  0  0
   22.9560   15.1740   10.5100 C   0  0  0  0  0  0  0  0  0  0  0  0
   21.9880   15.2450   11.5440 C   0  0  0  0  0  0  0  0  0  0  0  0
   22.2780   15.8850   12.7490 C   0  0  0  0  0  0  0  0  0  0  0  0
   23.5360   16.4320   12.8860 C   0  0  0  0  0  0  0  0  0  0  0  0
   24.5060   16.3670   11.8840 C   0  0  0  0  0  0  0  0  0  0  0  0
   24.2440   15.7300   10.6710 C   0  0  0  0  0  0  0  0  0  0  0  0
   25.2990   15.6750    9.6680 C   0  0  0  0  0  0  0  0  0  0  0  0
   26.6000   15.2140    9.7700 C   0  0  0  0  0  0  0  0  0  0  0  0
   27.2100   15.3440    8.5000 C   0  0  0  0  0  0  0  0  0  0  0  0
   26.2690   15.8710    7.6480 C   0  0  0  0  0  0  0  0  0  0  0  0
   25.1130   16.0630    8.3580 N   0  0  0  0  0  0  0  0  0  0  0  0
   25.7490   17.0600   12.3500 C   0  0  0  0  0  0  0  0  0  0  0  0
   25.4180   17.4350   13.7190 N   0  0  0  0  0  0  0  0  0  0  0  0
   26.2060   18.3810   14.5010 C   0  0  1  0  0  0  0  0  0  0  0  0
   25.5780   19.7700   14.5490 C   0  0  0  0  0  0  0  0  0  0  0  0
   26.4960   20.7140   15.3080 C   0  0  0  0  0  0  0  0  0  0  0  0
   26.8020   20.1850   16.6900 C   0  0  0  0  0  0  0  0  0  0  0  0
   26.9410   20.9230   17.6610 O   0  0  0  0  0  0  0  0  0  0  0  0
   26.9380   18.8250   16.8110 N   0  0  0  0  0  0  0  0  0  0  0  0
   26.4340   17.8850   15.9400 C   0  0  0  0  0  0  0  0  0  0  0  0
   26.1920   16.7450   16.3290 O   0  0  0  0  0  0  0  0  0  0  0  0
   24.0990   17.1530   14.0310 C   0  0  0  0  0  0  0  0  0  0  0  0
   23.4890   17.4330   15.0450 O   0  0  0  0  0  0  0  0  0  0  0  0
   21.5590   15.8480    6.9470 C   0  0  0  0  0  0  0  0  0  0  0  0
   20.5640   16.6490    6.6220 N   0  0  0  0  0  0  0  0  0  0  0  0
   18.9258   19.5062    8.5155 H   0  0  0  0  0  0  0  0  0  0  0  0
   19.7645   19.1263    6.9731 H   0  0  0  0  0  0  0  0  0  0  0  0
   18.0053   19.4896    6.9731 H   0  0  0  0  0  0  0  0  0  0  0  0
   18.0002   17.4114    8.6937 H   0  0  0  0  0  0  0  0  0  0  0  0
   17.8927   17.2081    6.8930 H   0  0  0  0  0  0  0  0  0  0  0  0
   19.8479   15.7500    9.7527 H   0  0  0  0  0  0  0  0  0  0  0  0
   20.9976   14.7904   11.3941 H   0  0  0  0  0  0  0  0  0  0  0  0
   21.5338   15.9505   13.5564 H   0  0  0  0  0  0  0  0  0  0  0  0
   27.0760   14.8165   10.6785 H   0  0  0  0  0  0  0  0  0  0  0  0
   28.2447   15.0736    8.2425 H   0  0  0  0  0  0  0  0  0  0  0  0
   26.4180   16.0988    6.5822 H   0  0  0  0  0  0  0  0  0  0  0  0
   24.2363   16.4406    7.9711 H   0  0  0  0  0  0  0  0  0  0  0  0
   26.6142   16.3813   12.3236 H   0  0  0  0  0  0  0  0  0  0  0  0
   26.0309   17.9170   11.7206 H   0  0  0  0  0  0  0  0  0  0  0  0
   27.1737   18.4534   13.9830 H   0  0  0  0  0  0  0  0  0  0  0  0
   25.4341   20.1432   13.5243 H   0  0  0  0  0  0  0  0  0  0  0  0
   24.6048   19.7154   15.0588 H   0  0  0  0  0  0  0  0  0  0  0  0
   27.4373   20.8251   14.7498 H   0  0  0  0  0  0  0  0  0  0  0  0
   25.9892   21.6849   15.4110 H   0  0  0  0  0  0  0  0  0  0  0  0
   27.4636   18.4764   17.6253 H   0  0  0  0  0  0  0  0  0  0  0  0
   22.3812   15.5634    6.2739 H   0  0  0  0  0  0  0  0  0  0  0  0
  1  2  1  0
  2  3  1  0
  3  4  2  0
  4  5  1  0
  5  6  1  0
  6  7  2  0
  6  8  2  0
  6  9  1  0
  9 10  2  0
 10 11  1  0
 11 12  2  0
 12 13  1  0
 13 14  2  0
 14 15  1  0
 15 16  2  0
 16 17  1  0
 17 18  2  0
 18 19  1  0
 13 20  1  0
 20 21  1  0
 21 22  1  0
 22 23  1  0
 23 24  1  0
 24 25  1  0
 25 26  2  0
 25 27  1  0
 27 28  1  0
 28 29  2  0
 21 30  1  0
 30 31  2  0
  5 32  1  0
 32 33  2  0
 33  3  1  0
 14  9  1  0
 19 15  1  0
 28 22  1  0
 30 12  1  0
  1 34  1  0
  1 35  1  0
  1 36  1  0
  2 37  1  0
  2 38  1  0
  4 39  1  0
 10 40  1  0
 11 41  1  0
 16 42  1  0
 17 43  1  0
 18 44  1  0
 19 45  1  0
 20 46  1  0
 20 47  1  0
 22 48  1  6
 23 49  1  0
 23 50  1  0
 24 51  1  0
 24 52  1  0
 27 53  1  0
 32 54  1  0
M  END
>  <meeko>  (1060) 
{"is_sidechain": [true], "free_energy": -10.28, "intermolecular_energy": 0.0, "internal_energy": -10.28, "cluster_size": 15, "cluster_id": 1, "rank_in_cluster": 1}

>  <_RMSD_MCS_to_ref>  (1060) 
1.8187958165286786

$$$$
ligand
     RDKit          3D

 46 49  0  0  0  0  0  0  0  0999 V2000
   18.7970   18.8170    7.7190 C   0  0  0  0  0  0  0  0  0  0  0  0
   18.5280   17.3290    7.8810 C   0  0  0  0  0  0  0  0  0  0  0  0
   19.7570   16.5110    7.6960 C   0  0  0  0  0  0  0  0  0  0  0  0
   20.7540   16.2350    8.6100 C   0  0  0  0  0  0  0  0  0  0  0  0
   21.6510   15.4850    7.9090 N   0  0  0  0  0  0  0  0  0  0  0  0
   23.1630   14.9480    8.4270 S   0  0  0  0  0  6  0  0  0  0  0  0
   23.6540   14.0440    7.4010 O   0  0  0  0  0  0  0  0  0  0  0  0
   23.8830   16.1770    8.7160 O   0  0  0  0  0  0  0  0  0  0  0  0
   23.0020   14.1540    9.8390 O   0  0  0  0  0  0  0  0  0  0  0  0
   23.1960   14.8090   11.0290 C   0  0  0  0  0  0  0  0  0  0  0  0
   22.2380   14.6000   12.0280 C   0  0  0  0  0  0  0  0  0  0  0  0
   22.4010   15.2120   13.2750 C   0  0  0  0  0  0  0  0  0  0  0  0
   23.5190   15.9980   13.4540 C   0  0  0  0  0  0  0  0  0  0  0  0
   24.4080   16.1250   12.4020 C   0  0  0  0  0  0  0  0  0  0  0  0
   24.3000   15.5550   11.1900 N   0  0  0  0  0  0  0  0  0  0  0  0
   25.5170   16.9950   12.8350 C   0  0  0  0  0  0  0  0  0  0  0  0
   26.5180   17.2520   12.1940 O   0  0  0  0  0  0  0  0  0  0  0  0
   25.1940   17.4330   14.1180 N   0  0  0  0  0  0  0  0  0  0  0  0
   26.1300   18.1090   15.0130 C   0  0  2  0  0  0  0  0  0  0  0  0
   25.7340   18.0460   16.4890 C   0  0  0  0  0  0  0  0  0  0  0  0
   26.8050   18.7260   17.3260 C   0  0  0  0  0  0  0  0  0  0  0  0
   27.0300   20.1510   16.8780 C   0  0  0  0  0  0  0  0  0  0  0  0
   27.5110   21.0020   17.6210 O   0  0  0  0  0  0  0  0  0  0  0  0
   26.7510   20.4370   15.5650 N   0  0  0  0  0  0  0  0  0  0  0  0
   26.3560   19.5650   14.5770 C   0  0  0  0  0  0  0  0  0  0  0  0
   26.2970   19.9330   13.4050 O   0  0  0  0  0  0  0  0  0  0  0  0
   24.0050   16.7640   14.6310 C   0  0  0  0  0  0  0  0  0  0  0  0
   21.1990   15.3200    6.6390 C   0  0  0  0  0  0  0  0  0  0  0  0
   20.0390   15.9230    6.4770 N   0  0  0  0  0  0  0  0  0  0  0  0
   18.8815   19.2845    8.7111 H   0  0  0  0  0  0  0  0  0  0  0  0
   19.7359   18.9616    7.1643 H   0  0  0  0  0  0  0  0  0  0  0  0
   17.9682   19.2812    7.1643 H   0  0  0  0  0  0  0  0  0  0  0  0
   18.1316   17.1488    8.8911 H   0  0  0  0  0  0  0  0  0  0  0  0
   17.8050   17.0309    7.1074 H   0  0  0  0  0  0  0  0  0  0  0  0
   20.8115   16.5484    9.6628 H   0  0  0  0  0  0  0  0  0  0  0  0
   21.3646   13.9600   11.8340 H   0  0  0  0  0  0  0  0  0  0  0  0
   21.6659   15.0716   14.0812 H   0  0  0  0  0  0  0  0  0  0  0  0
   27.0747   17.5521   14.9269 H   0  0  0  0  0  0  0  0  0  0  0  0
   24.7727   18.5606   16.6338 H   0  0  0  0  0  0  0  0  0  0  0  0
   25.6355   16.9953   16.7995 H   0  0  0  0  0  0  0  0  0  0  0  0
   26.4890   18.7274   18.3796 H   0  0  0  0  0  0  0  0  0  0  0  0
   27.7465   18.1707   17.2025 H   0  0  0  0  0  0  0  0  0  0  0  0
   26.8492   21.4235   15.2856 H   0  0  0  0  0  0  0  0  0  0  0  0
   24.2581   16.0912   15.4636 H   0  0  0  0  0  0  0  0  0  0  0  0
   23.2555   17.4607   15.0346 H   0  0  0  0  0  0  0  0  0  0  0  0
   21.7284   14.7601    5.8540 H   0  0  0  0  0  0  0  0  0  0  0  0
  1  2  1  0
  2  3  1  0
  3  4  2  0
  4  5  1  0
  5  6  1  0
  6  7  2  0
  6  8  2  0
  6  9  1  0
  9 10  1  0
 10 11  2  0
 11 12  1  0
 12 13  2  0
 13 14  1  0
 14 15  2  0
 14 16  1  0
 16 17  2  0
 16 18  1  0
 18 19  1  0
 19 20  1  0
 20 21  1  0
 21 22  1  0
 22 23  2  0
 22 24  1  0
 24 25  1  0
 25 26  2  0
 18 27  1  0
  5 28  1  0
 28 29  2  0
 29  3  1  0
 15 10  1  0
 25 19  1  0
 27 13  1  0
  1 30  1  0
  1 31  1  0
  1 32  1  0
  2 33  1  0
  2 34  1  0
  4 35  1  0
 11 36  1  0
 12 37  1  0
 19 38  1  1
 20 39  1  0
 20 40  1  0
 21 41  1  0
 21 42  1  0
 24 43  1  0
 27 44  1  0
 27 45  1  0
 28 46  1  0
M  END
>  <meeko>  (1061) 
{"is_sidechain": [true], "free_energy": -10.28, "intermolecular_energy": 0.0, "internal_energy": -10.28, "cluster_size": 20, "cluster_id": 1, "rank_in_cluster": 1}

>  <_RMSD_MCS_to_ref>  (1061) 
1.7248957111332017

$$$$
ligand
     RDKit          3D

 48 51  0  0  0  0  0  0  0  0999 V2000
   18.7970   18.8170    7.7190 C   0  0  0  0  0  0  0  0  0  0  0  0
   18.5280   17.3290    7.8810 C   0  0  0  0  0  0  0  0  0  0  0  0
   19.7840   16.5480    8.0490 C   0  0  0  0  0  0  0  0  0  0  0  0
   20.0670   15.5420    8.9520 C   0  0  0  0  0  0  0  0  0  0  0  0
   21.3560   15.1920    8.6660 N   0  0  0  0  0  0  0  0  0  0  0  0
   22.2280   13.9630    9.4230 S   0  0  0  0  0  6  0  0  0  0  0  0
   21.2290   13.0240    9.9040 O   0  0  0  0  0  0  0  0  0  0  0  0
   23.1760   13.5420    8.4000 O   0  0  0  0  0  0  0  0  0  0  0  0
   23.1090   14.6080   10.7690 C   0  0  0  0  0  0  0  0  0  0  0  0
   24.3740   15.0360   10.5720 C   0  0  0  0  0  0  0  0  0  0  0  0
   25.1730   15.5680   11.6680 C   0  0  0  0  0  0  0  0  0  0  0  0
   24.6530   15.6060   12.9130 C   0  0  0  0  0  0  0  0  0  0  0  0
   25.4640   16.1860   14.0200 C   0  0  0  0  0  0  0  0  0  0  0  0
   26.0000   15.4780   14.8630 O   0  0  0  0  0  0  0  0  0  0  0  0
   25.5980   17.5520   13.9900 N   0  0  0  0  0  0  0  0  0  0  0  0
   26.5010   18.2450   14.8990 C   0  0  2  0  0  0  0  0  0  0  0  0
   26.2000   17.9360   16.3630 C   0  0  0  0  0  0  0  0  0  0  0  0
   27.1480   18.7280   17.2520 C   0  0  0  0  0  0  0  0  0  0  0  0
   27.0660   20.2080   16.9590 C   0  0  0  0  0  0  0  0  0  0  0  0
   27.1970   21.0610   17.8320 O   0  0  0  0  0  0  0  0  0  0  0  0
   26.8620   20.5650   15.6500 N   0  0  0  0  0  0  0  0  0  0  0  0
   26.3510   19.7520   14.6700 C   0  0  0  0  0  0  0  0  0  0  0  0
   25.8140   20.2180   13.6650 O   0  0  0  0  0  0  0  0  0  0  0  0
   23.3370   15.1570   13.1000 N   0  0  0  0  0  0  0  0  0  0  0  0
   22.5660   15.0880   14.2380 C   0  0  0  0  0  0  0  0  0  0  0  0
   21.3630   14.5500   13.8510 C   0  0  0  0  0  0  0  0  0  0  0  0
   21.3630   14.2750   12.5110 N   0  0  0  0  0  0  0  0  0  0  0  0
   22.5440   14.6470   12.0690 C   0  0  0  0  0  0  0  0  0  0  0  0
   21.7980   15.9310    7.6170 C   0  0  0  0  0  0  0  0  0  0  0  0
   20.8710   16.7860    7.2320 N   0  0  0  0  0  0  0  0  0  0  0  0
   18.8815   19.2845    8.7111 H   0  0  0  0  0  0  0  0  0  0  0  0
   19.7359   18.9616    7.1643 H   0  0  0  0  0  0  0  0  0  0  0  0
   17.9682   19.2812    7.1643 H   0  0  0  0  0  0  0  0  0  0  0  0
   17.8948   17.1775    8.7676 H   0  0  0  0  0  0  0  0  0  0  0  0
   18.0278   16.9738    6.9680 H   0  0  0  0  0  0  0  0  0  0  0  0
   19.4065   15.1199    9.7237 H   0  0  0  0  0  0  0  0  0  0  0  0
   24.8103   14.9820    9.5637 H   0  0  0  0  0  0  0  0  0  0  0  0
   26.1928   15.9361   11.4822 H   0  0  0  0  0  0  0  0  0  0  0  0
   25.0488   18.0980   13.3109 H   0  0  0  0  0  0  0  0  0  0  0  0
   27.5255   17.9027   14.6911 H   0  0  0  0  0  0  0  0  0  0  0  0
   25.1614   18.2174   16.5915 H   0  0  0  0  0  0  0  0  0  0  0  0
   26.3364   16.8601   16.5470 H   0  0  0  0  0  0  0  0  0  0  0  0
   26.8802   18.5556   18.3049 H   0  0  0  0  0  0  0  0  0  0  0  0
   28.1756   18.3904   17.0520 H   0  0  0  0  0  0  0  0  0  0  0  0
   27.1143   21.5264   15.3797 H   0  0  0  0  0  0  0  0  0  0  0  0
   22.8548   15.4005   15.2523 H   0  0  0  0  0  0  0  0  0  0  0  0
   20.5149   14.3654   14.5267 H   0  0  0  0  0  0  0  0  0  0  0  0
   22.7903   15.8308    7.1531 H   0  0  0  0  0  0  0  0  0  0  0  0
  1  2  1  0
  2  3  1  0
  3  4  2  0
  4  5  1  0
  5  6  1  0
  6  7  2  0
  6  8  2  0
  6  9  1  0
  9 10  2  0
 10 11  1  0
 11 12  2  0
 12 13  1  0
 13 14  2  0
 13 15  1  0
 15 16  1  0
 16 17  1  0
 17 18  1  0
 18 19  1  0
 19 20  2  0
 19 21  1  0
 21 22  1  0
 22 23  2  0
 12 24  1  0
 24 25  1  0
 25 26  2  0
 26 27  1  0
 27 28  2  0
  5 29  1  0
 29 30  2  0
 30  3  1  0
 28  9  1  0
 22 16  1  0
 28 24  1  0
  1 31  1  0
  1 32  1  0
  1 33  1  0
  2 34  1  0
  2 35  1  0
  4 36  1  0
 10 37  1  0
 11 38  1  0
 15 39  1  0
 16 40  1  6
 17 41  1  0
 17 42  1  0
 18 43  1  0
 18 44  1  0
 21 45  1  0
 25 46  1  0
 26 47  1  0
 29 48  1  0
M  END
>  <meeko>  (1062) 
{"is_sidechain": [true], "free_energy": -10.28, "intermolecular_energy": 0.0, "internal_energy": -10.28, "cluster_size": 18, "cluster_id": 1, "rank_in_cluster": 1}

>  <_RMSD_MCS_to_ref>  (1062) 
0.8814840390563576

$$$$
ligand
     RDKit          3D

 54 57  0  0  0  0  0  0  0  0999 V2000
   18.7970   18.8170    7.7190 C   0  0  0  0  0  0  0  0  0  0  0  0
   18.5280   17.3290    7.8810 C   0  0  0  0  0  0  0  0  0  0  0  0
   19.7800   16.5250    7.8490 C   0  0  0  0  0  0  0  0  0  0  0  0
   20.0660   15.3370    8.4910 C   0  0  0  0  0  0  0  0  0  0  0  0
   21.3440   15.0460    8.1040 N   0  0  0  0  0  0  0  0  0  0  0  0
   22.3030   13.8170    8.7260 S   0  0  0  0  0  6  0  0  0  0  0  0
   23.2530   13.5000    7.6800 O   0  0  0  0  0  0  0  0  0  0  0  0
   21.3610   12.8450    9.2490 O   0  0  0  0  0  0  0  0  0  0  0  0
   23.2210   14.4850   10.1060 C   0  0  0  0  0  0  0  0  0  0  0  0
   22.7930   14.2390   11.4180 C   0  0  0  0  0  0  0  0  0  0  0  0
   23.5240   14.7430   12.4920 C   0  0  0  0  0  0  0  0  0  0  0  0
   24.6790   15.4990   12.2690 C   0  0  0  0  0  0  0  0  0  0  0  0
   25.3780   15.9940   13.4780 C   0  0  0  0  0  0  0  0  0  0  0  0
   25.6050   15.2360   14.4120 O   0  0  0  0  0  0  0  0  0  0  0  0
   25.6910   17.3300   13.4800 N   0  0  0  0  0  0  0  0  0  0  0  0
   26.4510   17.9360   14.5620 C   0  0  2  0  0  0  0  0  0  0  0  0
   25.7680   17.7540   15.9130 C   0  0  0  0  0  0  0  0  0  0  0  0
   26.5980   18.4270   16.9940 C   0  0  0  0  0  0  0  0  0  0  0  0
   26.8370   19.8840   16.6750 C   0  0  0  0  0  0  0  0  0  0  0  0
   26.9100   20.7470   17.5450 O   0  0  0  0  0  0  0  0  0  0  0  0
   27.0000   20.2050   15.3510 N   0  0  0  0  0  0  0  0  0  0  0  0
   26.6130   19.4340   14.2820 C   0  0  0  0  0  0  0  0  0  0  0  0
   26.4220   19.9330   13.1740 O   0  0  0  0  0  0  0  0  0  0  0  0
   25.1400   15.7380   10.9590 C   0  0  0  0  0  0  0  0  0  0  0  0
   24.3890   15.2500    9.8570 C   0  0  0  0  0  0  0  0  0  0  0  0
   24.8860   15.4890    8.4380 C   0  0  0  0  0  0  0  0  0  0  0  0
   25.8880   16.5520    8.3260 N   0  0  0  0  0  0  0  0  0  0  0  0
   26.9610   16.3320    9.2910 C   0  0  0  0  0  0  0  0  0  0  0  0
   26.4170   16.5170   10.7070 C   0  0  0  0  0  0  0  0  0  0  0  0
   21.7980   16.0310    7.2860 C   0  0  0  0  0  0  0  0  0  0  0  0
   20.8710   16.9510    7.1160 N   0  0  0  0  0  0  0  0  0  0  0  0
   18.8815   19.2845    8.7111 H   0  0  0  0  0  0  0  0  0  0  0  0
   19.7359   18.9616    7.1643 H   0  0  0  0  0  0  0  0  0  0  0  0
   17.9682   19.2812    7.1643 H   0  0  0  0  0  0  0  0  0  0  0  0
   18.0247   17.1628    8.8449 H   0  0  0  0  0  0  0  0  0  0  0  0
   17.8975   17.0061    7.0395 H   0  0  0  0  0  0  0  0  0  0  0  0
   19.4142   14.7570    9.1610 H   0  0  0  0  0  0  0  0  0  0  0  0
   21.8822   13.6495   11.5993 H   0  0  0  0  0  0  0  0  0  0  0  0
   23.1905   14.5450   13.5213 H   0  0  0  0  0  0  0  0  0  0  0  0
   25.3796   17.9192   12.6947 H   0  0  0  0  0  0  0  0  0  0  0  0
   27.4299   17.4363   14.6079 H   0  0  0  0  0  0  0  0  0  0  0  0
   24.7671   18.2092   15.8823 H   0  0  0  0  0  0  0  0  0  0  0  0
   25.6756   16.6808   16.1360 H   0  0  0  0  0  0  0  0  0  0  0  0
   26.0648   18.3530   17.9533 H   0  0  0  0  0  0  0  0  0  0  0  0
   27.5723   17.9195   17.0501 H   0  0  0  0  0  0  0  0  0  0  0  0
   27.4535   21.1053   15.1396 H   0  0  0  0  0  0  0  0  0  0  0  0
   25.3309   14.5544    8.0658 H   0  0  0  0  0  0  0  0  0  0  0  0
   24.0156   15.8101    7.8470 H   0  0  0  0  0  0  0  0  0  0  0  0
   26.2805   16.5515    7.3737 H   0  0  0  0  0  0  0  0  0  0  0  0
   27.3515   15.3098    9.1787 H   0  0  0  0  0  0  0  0  0  0  0  0
   27.7703   17.0550    9.1113 H   0  0  0  0  0  0  0  0  0  0  0  0
   27.1808   16.1787   11.4227 H   0  0  0  0  0  0  0  0  0  0  0  0
   26.1809   17.5841   10.8314 H   0  0  0  0  0  0  0  0  0  0  0  0
   22.7987   16.0566    6.8300 H   0  0  0  0  0  0  0  0  0  0  0  0
  1  2  1  0
  2  3  1  0
  3  4  2  0
  4  5  1  0
  5  6  1  0
  6  7  2  0
  6  8  2  0
  6  9  1  0
  9 10  2  0
 10 11  1  0
 11 12  2  0
 12 13  1  0
 13 14  2  0
 13 15  1  0
 15 16  1  0
 16 17  1  0
 17 18  1  0
 18 19  1  0
 19 20  2  0
 19 21  1  0
 21 22  1  0
 22 23  2  0
 12 24  1  0
 24 25  2  0
 25 26  1  0
 26 27  1  0
 27 28  1  0
 28 29  1  0
  5 30  1  0
 30 31  2  0
 31  3  1  0
 25  9  1  0
 22 16  1  0
 29 24  1  0
  1 32  1  0
  1 33  1  0
  1 34  1  0
  2 35  1  0
  2 36  1  0
  4 37  1  0
 10 38  1  0
 11 39  1  0
 15 40  1  0
 16 41  1  1
 17 42  1  0
 17 43  1  0
 18 44  1  0
 18 45  1  0
 21 46  1  0
 26 47  1  0
 26 48  1  0
 27 49  1  0
 28 50  1  0
 28 51  1  0
 29 52  1  0
 29 53  1  0
 30 54  1  0
M  END
>  <meeko>  (1063) 
{"is_sidechain": [true], "free_energy": -10.28, "intermolecular_energy": 0.0, "internal_energy": -10.28, "cluster_size": 9, "cluster_id": 1, "rank_in_cluster": 1}

>  <_RMSD_MCS_to_ref>  (1063) 
0.995726144858894

$$$$
ligand
     RDKit          3D

 47 50  0  0  0  0  0  0  0  0999 V2000
   18.7970   18.8170    7.7190 C   0  0  0  0  0  0  0  0  0  0  0  0
   18.5280   17.3290    7.8810 C   0  0  0  0  0  0  0  0  0  0  0  0
   19.7620   16.5130    7.7210 C   0  0  0  0  0  0  0  0  0  0  0  0
   20.5440   15.9190    8.6920 C   0  0  0  0  0  0  0  0  0  0  0  0
   21.5350   15.2980    7.9890 N   0  0  0  0  0  0  0  0  0  0  0  0
   22.8480   14.4920    8.6550 S   0  0  0  0  0  6  0  0  0  0  0  0
   23.9170   15.4600    8.7850 O   0  0  0  0  0  0  0  0  0  0  0  0
   22.9840   13.2940    7.8490 O   0  0  0  0  0  0  0  0  0  0  0  0
   22.3250   14.0170   10.2770 C   0  0  0  0  0  0  0  0  0  0  0  0
   21.1990   13.1960   10.3870 C   0  0  0  0  0  0  0  0  0  0  0  0
   20.7670   12.8210   11.6420 C   0  0  0  0  0  0  0  0  0  0  0  0
   21.3510   13.1860   12.7930 N   0  0  0  0  0  0  0  0  0  0  0  0
   22.4580   13.9660   12.6890 C   0  0  0  0  0  0  0  0  0  0  0  0
   23.2150   14.4400   13.7970 C   0  0  0  0  0  0  0  0  0  0  0  0
   24.2960   15.2110   13.4220 C   0  0  0  0  0  0  0  0  0  0  0  0
   25.2570   15.8440   14.3120 C   0  0  0  0  0  0  0  0  0  0  0  0
   26.0480   15.2030   15.0020 O   0  0  0  0  0  0  0  0  0  0  0  0
   25.2430   17.2200   14.3440 N   0  0  0  0  0  0  0  0  0  0  0  0
   26.2370   17.9900   15.0740 C   0  0  2  0  0  0  0  0  0  0  0  0
   26.0960   17.8270   16.5830 C   0  0  0  0  0  0  0  0  0  0  0  0
   27.1380   18.6840   17.2850 C   0  0  0  0  0  0  0  0  0  0  0  0
   27.0350   20.1310   16.8620 C   0  0  0  0  0  0  0  0  0  0  0  0
   27.2870   21.0590   17.6240 O   0  0  0  0  0  0  0  0  0  0  0  0
   26.6750   20.3660   15.5600 N   0  0  0  0  0  0  0  0  0  0  0  0
   26.0700   19.4690   14.7140 C   0  0  0  0  0  0  0  0  0  0  0  0
   25.4460   19.8470   13.7240 O   0  0  0  0  0  0  0  0  0  0  0  0
   24.3880   15.3440   11.7220 S   0  0  0  0  0  0  0  0  0  0  0  0
   22.9750   14.3960   11.4650 C   0  0  0  0  0  0  0  0  0  0  0  0
   21.3410   15.5070    6.6620 C   0  0  0  0  0  0  0  0  0  0  0  0
   20.2770   16.2580    6.4650 N   0  0  0  0  0  0  0  0  0  0  0  0
   18.8815   19.2845    8.7111 H   0  0  0  0  0  0  0  0  0  0  0  0
   19.7359   18.9616    7.1643 H   0  0  0  0  0  0  0  0  0  0  0  0
   17.9682   19.2812    7.1643 H   0  0  0  0  0  0  0  0  0  0  0  0
   18.1136   17.1513    8.8844 H   0  0  0  0  0  0  0  0  0  0  0  0
   17.8197   17.0269    7.0955 H   0  0  0  0  0  0  0  0  0  0  0  0
   20.4008   15.9414    9.7824 H   0  0  0  0  0  0  0  0  0  0  0  0
   20.6661   12.8546    9.4873 H   0  0  0  0  0  0  0  0  0  0  0  0
   19.8785   12.1754   11.7035 H   0  0  0  0  0  0  0  0  0  0  0  0
   22.9642   14.2149   14.8441 H   0  0  0  0  0  0  0  0  0  0  0  0
   24.5026   17.7216   13.8330 H   0  0  0  0  0  0  0  0  0  0  0  0
   27.2329   17.6195   14.7896 H   0  0  0  0  0  0  0  0  0  0  0  0
   25.0899   18.1451   16.8937 H   0  0  0  0  0  0  0  0  0  0  0  0
   26.2467   16.7715   16.8535 H   0  0  0  0  0  0  0  0  0  0  0  0
   26.9838   18.6167   18.3721 H   0  0  0  0  0  0  0  0  0  0  0  0
   28.1359   18.3121   17.0094 H   0  0  0  0  0  0  0  0  0  0  0  0
   26.8771   21.3022   15.1812 H   0  0  0  0  0  0  0  0  0  0  0  0
   21.9822   15.1056    5.8634 H   0  0  0  0  0  0  0  0  0  0  0  0
  1  2  1  0
  2  3  1  0
  3  4  2  0
  4  5  1  0
  5  6  1  0
  6  7  2  0
  6  8  2  0
  6  9  1  0
  9 10  2  0
 10 11  1  0
 11 12  2  0
 12 13  1  0
 13 14  1  0
 14 15  2  0
 15 16  1  0
 16 17  2  0
 16 18  1  0
 18 19  1  0
 19 20  1  0
 20 21  1  0
 21 22  1  0
 22 23  2  0
 22 24  1  0
 24 25  1  0
 25 26  2  0
 15 27  1  0
 27 28  1  0
  5 29  1  0
 29 30  2  0
 30  3  1  0
 28  9  1  0
 28 13  2  0
 25 19  1  0
  1 31  1  0
  1 32  1  0
  1 33  1  0
  2 34  1  0
  2 35  1  0
  4 36  1  0
 10 37  1  0
 11 38  1  0
 14 39  1  0
 18 40  1  0
 19 41  1  6
 20 42  1  0
 20 43  1  0
 21 44  1  0
 21 45  1  0
 24 46  1  0
 29 47  1  0
M  END
>  <meeko>  (1064) 
{"is_sidechain": [true], "free_energy": -10.28, "intermolecular_energy": 0.0, "internal_energy": -10.28, "cluster_size": 19, "cluster_id": 1, "rank_in_cluster": 1}

>  <_RMSD_MCS_to_ref>  (1064) 
0.7250905690555715

$$$$
ligand
     RDKit          3D

 51 54  0  0  0  0  0  0  0  0999 V2000
   18.7970   18.8170    7.7190 C   0  0  0  0  0  0  0  0  0  0  0  0
   18.5280   17.3290    7.8810 C   0  0  0  0  0  0  0  0  0  0  0  0
   19.5970   16.4940    7.2700 C   0  0  0  0  0  0  0  0  0  0  0  0
   20.7040   15.9250    7.8680 C   0  0  0  0  0  0  0  0  0  0  0  0
   21.3260   15.2560    6.8550 N   0  0  0  0  0  0  0  0  0  0  0  0
   22.8510   14.5530    6.9240 S   0  0  0  0  0  6  0  0  0  0  0  0
   22.7730   13.3360    6.1390 O   0  0  0  0  0  0  0  0  0  0  0  0
   23.7840   15.6200    6.6190 O   0  0  0  0  0  0  0  0  0  0  0  0
   23.0330   14.1050    8.6290 C   0  0  0  0  0  0  0  0  0  0  0  0
   22.4080   12.9540    9.1200 C   0  0  0  0  0  0  0  0  0  0  0  0
   22.5490   12.6080   10.4670 C   0  0  0  0  0  0  0  0  0  0  0  0
   23.3140   13.4020   11.3260 C   0  0  0  0  0  0  0  0  0  0  0  0
   23.4420   13.0860   12.6820 N   0  0  0  0  0  0  0  0  0  0  0  0
   24.2080   13.8590   13.5160 C   0  0  0  0  0  0  0  0  0  0  0  0
   24.8490   14.9860   13.1630 C   0  0  0  0  0  0  0  0  0  0  0  0
   25.6410   15.7080   14.1970 C   0  0  0  0  0  0  0  0  0  0  0  0
   26.1580   15.1210   15.1450 O   0  0  0  0  0  0  0  0  0  0  0  0
   25.7570   17.0600   14.0210 N   0  0  0  0  0  0  0  0  0  0  0  0
   26.5420   17.8980   14.9100 C   0  0  2  0  0  0  0  0  0  0  0  0
   26.0670   17.7750   16.3550 C   0  0  0  0  0  0  0  0  0  0  0  0
   26.9140   18.6710   17.2470 C   0  0  0  0  0  0  0  0  0  0  0  0
   26.8870   20.1020   16.7690 C   0  0  0  0  0  0  0  0  0  0  0  0
   26.9670   21.0540   17.5400 O   0  0  0  0  0  0  0  0  0  0  0  0
   26.8040   20.2970   15.4140 N   0  0  0  0  0  0  0  0  0  0  0  0
   26.4480   19.3630   14.4700 C   0  0  0  0  0  0  0  0  0  0  0  0
   26.1060   19.7120   13.3420 O   0  0  0  0  0  0  0  0  0  0  0  0
   24.7150   15.4190   11.7430 C   0  0  0  0  0  0  0  0  0  0  0  0
   25.2500   16.4430   11.3260 O   0  0  0  0  0  0  0  0  0  0  0  0
   23.9170   14.5680   10.8220 C   0  0  0  0  0  0  0  0  0  0  0  0
   23.7790   14.9280    9.4770 C   0  0  0  0  0  0  0  0  0  0  0  0
   20.6420   15.4590    5.7000 C   0  0  0  0  0  0  0  0  0  0  0  0
   19.5770   16.2030    5.9190 N   0  0  0  0  0  0  0  0  0  0  0  0
   18.8815   19.2845    8.7111 H   0  0  0  0  0  0  0  0  0  0  0  0
   19.7359   18.9616    7.1643 H   0  0  0  0  0  0  0  0  0  0  0  0
   17.9682   19.2812    7.1643 H   0  0  0  0  0  0  0  0  0  0  0  0
   18.4659   17.0952    8.9541 H   0  0  0  0  0  0  0  0  0  0  0  0
   17.5840   17.0988    7.3654 H   0  0  0  0  0  0  0  0  0  0  0  0
   21.0136   15.9952    8.9212 H   0  0  0  0  0  0  0  0  0  0  0  0
   21.8074   12.3231    8.4483 H   0  0  0  0  0  0  0  0  0  0  0  0
   22.0545   11.7047   10.8536 H   0  0  0  0  0  0  0  0  0  0  0  0
   22.9541   12.2612   13.0596 H   0  0  0  0  0  0  0  0  0  0  0  0
   24.3060   13.5292   14.5608 H   0  0  0  0  0  0  0  0  0  0  0  0
   25.2690   17.5000   13.2278 H   0  0  0  0  0  0  0  0  0  0  0  0
   27.5864   17.5569   14.8556 H   0  0  0  0  0  0  0  0  0  0  0  0
   25.0130   18.0827   16.4217 H   0  0  0  0  0  0  0  0  0  0  0  0
   26.1664   16.7305   16.6853 H   0  0  0  0  0  0  0  0  0  0  0  0
   26.5217   18.6285   18.2738 H   0  0  0  0  0  0  0  0  0  0  0  0
   27.9534   18.3127   17.2129 H   0  0  0  0  0  0  0  0  0  0  0  0
   27.0318   21.2400   15.0680 H   0  0  0  0  0  0  0  0  0  0  0  0
   24.2504   15.8447    9.0930 H   0  0  0  0  0  0  0  0  0  0  0  0
   20.9359   15.0583    4.7186 H   0  0  0  0  0  0  0  0  0  0  0  0
  1  2  1  0
  2  3  1  0
  3  4  2  0
  4  5  1  0
  5  6  1  0
  6  7  2  0
  6  8  2  0
  6  9  1  0
  9 10  2  0
 10 11  1  0
 11 12  2  0
 12 13  1  0
 13 14  1  0
 14 15  2  0
 15 16  1  0
 16 17  2  0
 16 18  1  0
 18 19  1  0
 19 20  1  0
 20 21  1  0
 21 22  1  0
 22 23  2  0
 22 24  1  0
 24 25  1  0
 25 26  2  0
 15 27  1  0
 27 28  2  0
 27 29  1  0
 29 30  2  0
  5 31  1  0
 31 32  2  0
 32  3  1  0
 30  9  1  0
 29 12  1  0
 25 19  1  0
  1 33  1  0
  1 34  1  0
  1 35  1  0
  2 36  1  0
  2 37  1  0
  4 38  1  0
 10 39  1  0
 11 40  1  0
 13 41  1  0
 14 42  1  0
 18 43  1  0
 19 44  1  1
 20 45  1  0
 20 46  1  0
 21 47  1  0
 21 48  1  0
 24 49  1  0
 30 50  1  0
 31 51  1  0
M  END
>  <meeko>  (1065) 
{"is_sidechain": [true], "free_energy": -10.28, "intermolecular_energy": 0.0, "internal_energy": -10.28, "cluster_size": 15, "cluster_id": 1, "rank_in_cluster": 1}

>  <_RMSD_MCS_to_ref>  (1065) 
0.9360823206914614

$$$$
ligand
     RDKit          3D

 53 57  0  0  0  0  0  0  0  0999 V2000
   18.7970   18.8170    7.7190 C   0  0  0  0  0  0  0  0  0  0  0  0
   18.5280   17.3290    7.8810 C   0  0  0  0  0  0  0  0  0  0  0  0
   19.7600   16.5160    7.6910 C   0  0  0  0  0  0  0  0  0  0  0  0
   20.4520   15.7570    8.6130 C   0  0  0  0  0  0  0  0  0  0  0  0
   21.5020   15.2460    7.9040 N   0  0  0  0  0  0  0  0  0  0  0  0
   22.7070   14.2570    8.5260 S   0  0  0  0  0  6  0  0  0  0  0  0
   22.0710   12.9560    8.6300 O   0  0  0  0  0  0  0  0  0  0  0  0
   23.8970   14.4630    7.7270 O   0  0  0  0  0  0  0  0  0  0  0  0
   23.0300   14.8390   10.1800 C   0  0  0  0  0  0  0  0  0  0  0  0
   24.2060   15.5970   10.3620 C   0  0  0  0  0  0  0  0  0  0  0  0
   24.5150   16.0430   11.6350 C   0  0  0  0  0  0  0  0  0  0  0  0
   23.6720   15.7470   12.6990 C   0  0  0  0  0  0  0  0  0  0  0  0
   22.5030   15.0240   12.5520 C   0  0  0  0  0  0  0  0  0  0  0  0
   22.1660   14.5610   11.2670 C   0  0  0  0  0  0  0  0  0  0  0  0
   20.9240   13.8370   11.1390 C   0  0  0  0  0  0  0  0  0  0  0  0
   19.5900   14.2870   11.0440 C   0  0  0  0  0  0  0  0  0  0  0  0
   18.7250   13.2770   10.9300 N   0  0  0  0  0  0  0  0  0  0  0  0
   19.4990   12.1800   10.9720 N   0  0  0  0  0  0  0  0  0  0  0  0
   20.8280   12.4630   11.1290 C   0  0  0  0  0  0  0  0  0  0  0  0
   24.2410   16.3440   13.9130 C   0  0  0  0  0  0  0  0  0  0  0  0
   23.7020   16.3310   15.0020 O   0  0  0  0  0  0  0  0  0  0  0  0
   25.4540   16.9090   13.5500 N   0  0  0  0  0  0  0  0  0  0  0  0
   26.2240   17.8120   14.4010 C   0  0  2  0  0  0  0  0  0  0  0  0
   25.9670   17.6220   15.8950 C   0  0  0  0  0  0  0  0  0  0  0  0
   26.8610   18.5660   16.6830 C   0  0  0  0  0  0  0  0  0  0  0  0
   26.6460   20.0020   16.2680 C   0  0  0  0  0  0  0  0  0  0  0  0
   26.9130   20.9440   17.0090 O   0  0  0  0  0  0  0  0  0  0  0  0
   26.2130   20.2140   14.9830 N   0  0  0  0  0  0  0  0  0  0  0  0
   25.9990   19.2780   13.9970 C   0  0  0  0  0  0  0  0  0  0  0  0
   25.7460   19.6320   12.8460 O   0  0  0  0  0  0  0  0  0  0  0  0
   25.6630   16.8710   12.1080 C   0  0  0  0  0  0  0  0  0  0  0  0
   21.4090   15.6490    6.6120 C   0  0  0  0  0  0  0  0  0  0  0  0
   20.3710   16.4480    6.4540 N   0  0  0  0  0  0  0  0  0  0  0  0
   18.8815   19.2845    8.7111 H   0  0  0  0  0  0  0  0  0  0  0  0
   19.7359   18.9616    7.1643 H   0  0  0  0  0  0  0  0  0  0  0  0
   17.9682   19.2812    7.1643 H   0  0  0  0  0  0  0  0  0  0  0  0
   18.1349   17.1472    8.8921 H   0  0  0  0  0  0  0  0  0  0  0  0
   17.8011   17.0293    7.1117 H   0  0  0  0  0  0  0  0  0  0  0  0
   20.2129   15.5996    9.6751 H   0  0  0  0  0  0  0  0  0  0  0  0
   24.8629   15.8284    9.5106 H   0  0  0  0  0  0  0  0  0  0  0  0
   21.8543   14.8165   13.4158 H   0  0  0  0  0  0  0  0  0  0  0  0
   19.2970   15.3471   11.0618 H   0  0  0  0  0  0  0  0  0  0  0  0
   19.1289   11.2220   10.8938 H   0  0  0  0  0  0  0  0  0  0  0  0
   21.6519   11.7408   11.2272 H   0  0  0  0  0  0  0  0  0  0  0  0
   27.2788   17.5477   14.2352 H   0  0  0  0  0  0  0  0  0  0  0  0
   24.9127   17.8431   16.1175 H   0  0  0  0  0  0  0  0  0  0  0  0
   26.1892   16.5824   16.1777 H   0  0  0  0  0  0  0  0  0  0  0  0
   26.6325   18.4648   17.7542 H   0  0  0  0  0  0  0  0  0  0  0  0
   27.9091   18.3001   16.4811 H   0  0  0  0  0  0  0  0  0  0  0  0
   26.0252   21.1933   14.7250 H   0  0  0  0  0  0  0  0  0  0  0  0
   25.6289   17.8816   11.6749 H   0  0  0  0  0  0  0  0  0  0  0  0
   26.6437   16.4657   11.8184 H   0  0  0  0  0  0  0  0  0  0  0  0
   22.1007   15.3518    5.8100 H   0  0  0  0  0  0  0  0  0  0  0  0
  1  2  1  0
  2  3  1  0
  3  4  2  0
  4  5  1  0
  5  6  1  0
  6  7  2  0
  6  8  2  0
  6  9  1  0
  9 10  2  0
 10 11  1  0
 11 12  2  0
 12 13  1  0
 13 14  2  0
 14 15  1  0
 15 16  1  0
 16 17  2  0
 17 18  1  0
 18 19  1  0
 12 20  1  0
 20 21  2  0
 20 22  1  0
 22 23  1  0
 23 24  1  0
 24 25  1  0
 25 26  1  0
 26 27  2  0
 26 28  1  0
 28 29  1  0
 29 30  2  0
 22 31  1  0
  5 32  1  0
 32 33  2  0
 33  3  1  0
 14  9  1  0
 19 15  2  0
 29 23  1  0
 31 11  1  0
  1 34  1  0
  1 35  1  0
  1 36  1  0
  2 37  1  0
  2 38  1  0
  4 39  1  0
 10 40  1  0
 13 41  1  0
 16 42  1  0
 18 43  1  0
 19 44  1  0
 23 45  1  1
 24 46  1  0
 24 47  1  0
 25 48  1  0
 25 49  1  0
 28 50  1  0
 31 51  1  0
 31 52  1  0
 32 53  1  0
M  END
>  <meeko>  (1066) 
{"is_sidechain": [true], "free_energy": -10.28, "intermolecular_energy": 0.0, "internal_energy": -10.28, "cluster_size": 15, "cluster_id": 1, "rank_in_cluster": 1}

>  <_RMSD_MCS_to_ref>  (1066) 
0.9657501689820659

$$$$
ligand
     RDKit          3D

 45 48  0  0  0  0  0  0  0  0999 V2000
   18.9090   19.1540    7.5370 C   0  0  0  0  0  0  0  0  0  0  0  0
   18.7730   17.6460    7.6780 C   0  0  0  0  0  0  0  0  0  0  0  0
   20.0930   16.9750    7.8280 C   0  0  0  0  0  0  0  0  0  0  0  0
   21.0860   16.7950    6.8850 C   0  0  0  0  0  0  0  0  0  0  0  0
   22.0770   16.1400    7.5610 N   0  0  0  0  0  0  0  0  0  0  0  0
   23.6470   15.8900    7.0080 S   0  0  0  0  0  6  0  0  0  0  0  0
   24.1550   17.2040    6.6630 O   0  0  0  0  0  0  0  0  0  0  0  0
   23.5600   14.8100    6.0430 O   0  0  0  0  0  0  0  0  0  0  0  0
   24.5380   15.3040    8.4190 C   0  0  0  0  0  0  0  0  0  0  0  0
   25.0420   14.0260    8.4390 C   0  0  0  0  0  0  0  0  0  0  0  0
   25.7340   13.7120    9.5820 C   0  0  0  0  0  0  0  0  0  0  0  0
   25.9170   14.5740   10.6030 N   0  0  0  0  0  0  0  0  0  0  0  0
   25.3810   15.8010   10.4730 C   0  0  0  0  0  0  0  0  0  0  0  0
   25.5790   16.7710   11.5350 C   0  0  0  0  0  0  0  0  0  0  0  0
   24.6750   17.0620   12.5370 C   0  0  0  0  0  0  0  0  0  0  0  0
   25.2850   18.0430   13.2590 N   0  0  0  0  0  0  0  0  0  0  0  0
   24.7740   18.7260   14.4300 C   0  0  1  0  0  0  0  0  0  0  0  0
   25.2160   18.1200   15.7640 C   0  0  0  0  0  0  0  0  0  0  0  0
   26.6370   18.5080   16.1460 C   0  0  0  0  0  0  0  0  0  0  0  0
   26.8530   19.9990   16.0630 C   0  0  0  0  0  0  0  0  0  0  0  0
   27.6650   20.5860   16.7720 O   0  0  0  0  0  0  0  0  0  0  0  0
   26.1130   20.6780   15.1300 N   0  0  0  0  0  0  0  0  0  0  0  0
   25.0830   20.2050   14.3520 C   0  0  0  0  0  0  0  0  0  0  0  0
   24.4500   20.9690   13.6250 O   0  0  0  0  0  0  0  0  0  0  0  0
   26.4970   18.3360   12.7550 N   0  0  0  0  0  0  0  0  0  0  0  0
   26.6910   17.5590   11.6960 N   0  0  0  0  0  0  0  0  0  0  0  0
   24.6770   16.2110    9.4060 N   0  0  0  0  0  0  0  0  0  0  0  0
   21.6900   15.9630    8.8520 C   0  0  0  0  0  0  0  0  0  0  0  0
   20.4840   16.4530    9.0470 N   0  0  0  0  0  0  0  0  0  0  0  0
   18.9504   19.6134    8.5356 H   0  0  0  0  0  0  0  0  0  0  0  0
   19.8320   19.3891    6.9867 H   0  0  0  0  0  0  0  0  0  0  0  0
   18.0430   19.5504    6.9867 H   0  0  0  0  0  0  0  0  0  0  0  0
   18.1611   17.4268    8.5654 H   0  0  0  0  0  0  0  0  0  0  0  0
   18.3007   17.2620    6.7618 H   0  0  0  0  0  0  0  0  0  0  0  0
   21.0805   17.1075    5.8304 H   0  0  0  0  0  0  0  0  0  0  0  0
   24.9029   13.3158    7.6106 H   0  0  0  0  0  0  0  0  0  0  0  0
   26.1625   12.7027    9.6701 H   0  0  0  0  0  0  0  0  0  0  0  0
   23.6891   16.6066   12.7121 H   0  0  0  0  0  0  0  0  0  0  0  0
   23.6833   18.5840   14.4148 H   0  0  0  0  0  0  0  0  0  0  0  0
   24.5325   18.4689   16.5521 H   0  0  0  0  0  0  0  0  0  0  0  0
   25.1893   17.0257   15.6557 H   0  0  0  0  0  0  0  0  0  0  0  0
   26.8314   18.1770   17.1769 H   0  0  0  0  0  0  0  0  0  0  0  0
   27.3255   18.0232   15.4382 H   0  0  0  0  0  0  0  0  0  0  0  0
   26.3602   21.6687   14.9946 H   0  0  0  0  0  0  0  0  0  0  0  0
   22.3007   15.4771    9.6272 H   0  0  0  0  0  0  0  0  0  0  0  0
  1  2  1  0
  2  3  1  0
  3  4  2  0
  4  5  1  0
  5  6  1  0
  6  7  2  0
  6  8  2  0
  6  9  1  0
  9 10  2  0
 10 11  1  0
 11 12  2  0
 12 13  1  0
 13 14  1  0
 14 15  2  0
 15 16  1  0
 16 17  1  0
 17 18  1  0
 18 19  1  0
 19 20  1  0
 20 21  2  0
 20 22  1  0
 22 23  1  0
 23 24  2  0
 16 25  1  0
 25 26  2  0
 13 27  2  0
  5 28  1  0
 28 29  2  0
 29  3  1  0
 27  9  1  0
 26 14  1  0
 23 17  1  0
  1 30  1  0
  1 31  1  0
  1 32  1  0
  2 33  1  0
  2 34  1  0
  4 35  1  0
 10 36  1  0
 11 37  1  0
 15 38  1  0
 17 39  1  6
 18 40  1  0
 18 41  1  0
 19 42  1  0
 19 43  1  0
 22 44  1  0
 28 45  1  0
M  END
>  <meeko>  (1067) 
{"is_sidechain": [true], "free_energy": -10.28, "intermolecular_energy": 0.0, "internal_energy": -10.28, "cluster_size": 20, "cluster_id": 1, "rank_in_cluster": 1}

>  <_RMSD_MCS_to_ref>  (1067) 
0.6383927735597686

$$$$
ligand
     RDKit          3D

 47 50  0  0  0  0  0  0  0  0999 V2000
   18.9090   19.1540    7.5370 C   0  0  0  0  0  0  0  0  0  0  0  0
   18.7730   17.6460    7.6780 C   0  0  0  0  0  0  0  0  0  0  0  0
   20.0480   16.9380    7.3820 C   0  0  0  0  0  0  0  0  0  0  0  0
   20.7340   16.0230    8.1560 C   0  0  0  0  0  0  0  0  0  0  0  0
   21.8390   15.7170    7.4130 N   0  0  0  0  0  0  0  0  0  0  0  0
   22.9810   14.5540    7.8080 S   0  0  0  0  0  6  0  0  0  0  0  0
   23.5970   14.2120    6.5350 O   0  0  0  0  0  0  0  0  0  0  0  0
   22.2880   13.5550    8.6050 O   0  0  0  0  0  0  0  0  0  0  0  0
   24.2130   15.3090    8.8290 C   0  0  0  0  0  0  0  0  0  0  0  0
   25.3030   15.8050    8.2880 N   0  0  0  0  0  0  0  0  0  0  0  0
   26.2400   16.3750    9.1300 C   0  0  0  0  0  0  0  0  0  0  0  0
   26.1030   16.4570   10.4630 C   0  0  0  0  0  0  0  0  0  0  0  0
   24.9560   15.9430   11.0470 N   0  0  0  0  0  0  0  0  0  0  0  0
   24.5010   15.8760   12.3520 C   0  0  0  0  0  0  0  0  0  0  0  0
   25.2100   16.3630   13.5100 C   0  0  0  0  0  0  0  0  0  0  0  0
   25.5650   15.6420   14.4380 O   0  0  0  0  0  0  0  0  0  0  0  0
   25.4840   17.7110   13.5150 N   0  0  0  0  0  0  0  0  0  0  0  0
   26.3050   18.3200   14.5520 C   0  0  2  0  0  0  0  0  0  0  0  0
   25.8320   17.9550   15.9550 C   0  0  0  0  0  0  0  0  0  0  0  0
   26.7050   18.6580   16.9830 C   0  0  0  0  0  0  0  0  0  0  0  0
   26.7180   20.1530   16.7630 C   0  0  0  0  0  0  0  0  0  0  0  0
   26.7980   20.9540   17.6890 O   0  0  0  0  0  0  0  0  0  0  0  0
   26.6640   20.5820   15.4610 N   0  0  0  0  0  0  0  0  0  0  0  0
   26.2410   19.8410   14.3870 C   0  0  0  0  0  0  0  0  0  0  0  0
   25.8430   20.3780   13.3540 O   0  0  0  0  0  0  0  0  0  0  0  0
   23.2700   15.2440   12.2390 C   0  0  0  0  0  0  0  0  0  0  0  0
   22.9650   14.9380   10.9380 N   0  0  0  0  0  0  0  0  0  0  0  0
   23.9960   15.3650   10.2520 C   0  0  0  0  0  0  0  0  0  0  0  0
   21.7840   16.3900    6.2360 C   0  0  0  0  0  0  0  0  0  0  0  0
   20.7110   17.1530    6.1900 N   0  0  0  0  0  0  0  0  0  0  0  0
   18.9504   19.6134    8.5356 H   0  0  0  0  0  0  0  0  0  0  0  0
   19.8320   19.3891    6.9867 H   0  0  0  0  0  0  0  0  0  0  0  0
   18.0430   19.5504    6.9867 H   0  0  0  0  0  0  0  0  0  0  0  0
   18.4688   17.4123    8.7089 H   0  0  0  0  0  0  0  0  0  0  0  0
   18.0201   17.3048    6.9522 H   0  0  0  0  0  0  0  0  0  0  0  0
   20.4546   15.6302    9.1448 H   0  0  0  0  0  0  0  0  0  0  0  0
   27.1550   16.7871    8.6794 H   0  0  0  0  0  0  0  0  0  0  0  0
   26.8857   16.9230   11.0796 H   0  0  0  0  0  0  0  0  0  0  0  0
   25.0988   18.3044   12.7665 H   0  0  0  0  0  0  0  0  0  0  0  0
   27.3324   17.9434   14.4397 H   0  0  0  0  0  0  0  0  0  0  0  0
   24.7865   18.2720   16.0836 H   0  0  0  0  0  0  0  0  0  0  0  0
   25.9049   16.8664   16.0950 H   0  0  0  0  0  0  0  0  0  0  0  0
   26.3137   18.4474   17.9892 H   0  0  0  0  0  0  0  0  0  0  0  0
   27.7339   18.2831   16.8788 H   0  0  0  0  0  0  0  0  0  0  0  0
   26.9686   21.5478   15.2730 H   0  0  0  0  0  0  0  0  0  0  0  0
   22.6160   15.0155   13.0934 H   0  0  0  0  0  0  0  0  0  0  0  0
   22.5310   16.3097    5.4325 H   0  0  0  0  0  0  0  0  0  0  0  0
  1  2  1  0
  2  3  1  0
  3  4  2  0
  4  5  1  0
  5  6  1  0
  6  7  2  0
  6  8  2  0
  6  9  1  0
  9 10  2  0
 10 11  1  0
 11 12  2  0
 12 13  1  0
 13 14  1  0
 14 15  1  0
 15 16  2  0
 15 17  1  0
 17 18  1  0
 18 19  1  0
 19 20  1  0
 20 21  1  0
 21 22  2  0
 21 23  1  0
 23 24  1  0
 24 25  2  0
 14 26  2  0
 26 27  1  0
 27 28  2  0
  5 29  1  0
 29 30  2  0
 30  3  1  0
 28  9  1  0
 28 13  1  0
 24 18  1  0
  1 31  1  0
  1 32  1  0
  1 33  1  0
  2 34  1  0
  2 35  1  0
  4 36  1  0
 11 37  1  0
 12 38  1  0
 17 39  1  0
 18 40  1  6
 19 41  1  0
 19 42  1  0
 20 43  1  0
 20 44  1  0
 23 45  1  0
 26 46  1  0
 29 47  1  0
M  END
>  <meeko>  (1068) 
{"is_sidechain": [true], "free_energy": -10.28, "intermolecular_energy": 0.0, "internal_energy": -10.28, "cluster_size": 18, "cluster_id": 1, "rank_in_cluster": 1}

>  <_RMSD_MCS_to_ref>  (1068) 
0.8949350069511567

$$$$
ligand
     RDKit          3D

 47 50  0  0  0  0  0  0  0  0999 V2000
   18.9090   19.1540    7.5370 C   0  0  0  0  0  0  0  0  0  0  0  0
   18.7730   17.6460    7.6780 C   0  0  0  0  0  0  0  0  0  0  0  0
   19.8620   16.9170    6.9750 C   0  0  0  0  0  0  0  0  0  0  0  0
   21.1710   16.7200    7.3680 C   0  0  0  0  0  0  0  0  0  0  0  0
   21.7220   15.9950    6.3510 N   0  0  0  0  0  0  0  0  0  0  0  0
   23.2710   15.3470    6.3200 S   0  0  0  0  0  6  0  0  0  0  0  0
   23.1830   14.1460    5.5090 O   0  0  0  0  0  0  0  0  0  0  0  0
   24.1480   16.4520    5.9730 O   0  0  0  0  0  0  0  0  0  0  0  0
   23.6270   14.8640    7.9900 C   0  0  0  0  0  0  0  0  0  0  0  0
   23.7070   13.5150    8.2940 C   0  0  0  0  0  0  0  0  0  0  0  0
   23.9910   13.1580    9.6080 C   0  0  0  0  0  0  0  0  0  0  0  0
   24.1760   14.1970   10.5350 C   0  0  0  0  0  0  0  0  0  0  0  0
   24.5330   14.0880   12.2090 S   0  0  0  0  0  0  0  0  0  0  0  0
   24.5590   15.7890   12.4030 C   0  0  0  0  0  0  0  0  0  0  0  0
   24.8280   16.4280   13.6830 C   0  0  0  0  0  0  0  0  0  0  0  0
   24.7510   15.8310   14.7550 O   0  0  0  0  0  0  0  0  0  0  0  0
   25.1720   17.7610   13.6380 N   0  0  0  0  0  0  0  0  0  0  0  0
   25.3160   18.5630   14.8420 C   0  0  1  0  0  0  0  0  0  0  0  0
   26.2980   17.9470   15.8330 C   0  0  0  0  0  0  0  0  0  0  0  0
   26.4300   18.8540   17.0460 C   0  0  0  0  0  0  0  0  0  0  0  0
   26.8370   20.2520   16.6440 C   0  0  0  0  0  0  0  0  0  0  0  0
   27.5600   20.9550   17.3440 O   0  0  0  0  0  0  0  0  0  0  0  0
   26.3330   20.7220   15.4580 N   0  0  0  0  0  0  0  0  0  0  0  0
   25.8190   19.9540   14.4420 C   0  0  0  0  0  0  0  0  0  0  0  0
   25.7640   20.3770   13.2880 O   0  0  0  0  0  0  0  0  0  0  0  0
   24.2970   16.4300   11.2070 C   0  0  0  0  0  0  0  0  0  0  0  0
   24.0760   15.5290   10.1300 C   0  0  0  0  0  0  0  0  0  0  0  0
   23.7980   15.8940    8.8480 N   0  0  0  0  0  0  0  0  0  0  0  0
   20.7670   15.7410    5.4180 C   0  0  0  0  0  0  0  0  0  0  0  0
   19.6270   16.3050    5.7570 N   0  0  0  0  0  0  0  0  0  0  0  0
   18.9504   19.6134    8.5356 H   0  0  0  0  0  0  0  0  0  0  0  0
   19.8320   19.3891    6.9867 H   0  0  0  0  0  0  0  0  0  0  0  0
   18.0430   19.5504    6.9867 H   0  0  0  0  0  0  0  0  0  0  0  0
   18.8042   17.3856    8.7463 H   0  0  0  0  0  0  0  0  0  0  0  0
   17.8173   17.3484    7.2219 H   0  0  0  0  0  0  0  0  0  0  0  0
   21.6587   17.0680    8.2905 H   0  0  0  0  0  0  0  0  0  0  0  0
   23.5507   12.7493    7.5198 H   0  0  0  0  0  0  0  0  0  0  0  0
   24.0677   12.1029    9.9095 H   0  0  0  0  0  0  0  0  0  0  0  0
   25.3324   18.2038   12.7220 H   0  0  0  0  0  0  0  0  0  0  0  0
   24.3346   18.6167   15.3359 H   0  0  0  0  0  0  0  0  0  0  0  0
   25.9281   16.9610   16.1509 H   0  0  0  0  0  0  0  0  0  0  0  0
   27.2807   17.8324   15.3522 H   0  0  0  0  0  0  0  0  0  0  0  0
   25.4624   18.8984   17.5673 H   0  0  0  0  0  0  0  0  0  0  0  0
   27.2083   18.4416   17.7049 H   0  0  0  0  0  0  0  0  0  0  0  0
   26.3407   21.7422   15.3167 H   0  0  0  0  0  0  0  0  0  0  0  0
   24.2630   17.5242   11.0996 H   0  0  0  0  0  0  0  0  0  0  0  0
   20.9248   15.1465    4.5060 H   0  0  0  0  0  0  0  0  0  0  0  0
  1  2  1  0
  2  3  1  0
  3  4  2  0
  4  5  1  0
  5  6  1  0
  6  7  2  0
  6  8  2  0
  6  9  1  0
  9 10  2  0
 10 11  1  0
 11 12  2  0
 12 13  1  0
 13 14  1  0
 14 15  1  0
 15 16  2  0
 15 17  1  0
 17 18  1  0
 18 19  1  0
 19 20  1  0
 20 21  1  0
 21 22  2  0
 21 23  1  0
 23 24  1  0
 24 25  2  0
 14 26  2  0
 26 27  1  0
 27 28  2  0
  5 29  1  0
 29 30  2  0
 30  3  1  0
 28  9  1  0
 27 12  1  0
 24 18  1  0
  1 31  1  0
  1 32  1  0
  1 33  1  0
  2 34  1  0
  2 35  1  0
  4 36  1  0
 10 37  1  0
 11 38  1  0
 17 39  1  0
 18 40  1  1
 19 41  1  0
 19 42  1  0
 20 43  1  0
 20 44  1  0
 23 45  1  0
 26 46  1  0
 29 47  1  0
M  END
>  <meeko>  (1069) 
{"is_sidechain": [true], "free_energy": -10.28, "intermolecular_energy": 0.0, "internal_energy": -10.28, "cluster_size": 17, "cluster_id": 1, "rank_in_cluster": 1}

>  <_RMSD_MCS_to_ref>  (1069) 
0.6076570670296775

$$$$
ligand
     RDKit          3D

 50 53  0  0  0  0  0  0  0  0999 V2000
   18.9090   19.1540    7.5370 C   0  0  0  0  0  0  0  0  0  0  0  0
   18.7730   17.6460    7.6780 C   0  0  0  0  0  0  0  0  0  0  0  0
   20.0010   16.9280    7.2400 C   0  0  0  0  0  0  0  0  0  0  0  0
   21.2000   16.7720    7.9080 C   0  0  0  0  0  0  0  0  0  0  0  0
   21.9730   16.0540    7.0420 N   0  0  0  0  0  0  0  0  0  0  0  0
   23.4660   15.3640    7.3900 S   0  0  0  0  0  6  0  0  0  0  0  0
   23.3380   13.9620    7.0450 O   0  0  0  0  0  0  0  0  0  0  0  0
   24.4630   16.2270    6.7890 O   0  0  0  0  0  0  0  0  0  0  0  0
   23.6000   15.5050    9.1530 C   0  0  0  0  0  0  0  0  0  0  0  0
   24.4580   16.4560    9.7140 C   0  0  0  0  0  0  0  0  0  0  0  0
   24.5530   16.5710   11.1060 C   0  0  0  0  0  0  0  0  0  0  0  0
   23.7910   15.7380   11.9340 C   0  0  0  0  0  0  0  0  0  0  0  0
   23.8270   15.7940   13.4100 C   0  0  0  0  0  0  0  0  0  0  0  0
   24.7570   16.7670   14.1290 C   0  0  0  0  0  0  0  0  0  0  0  0
   25.9560   16.5540   14.1980 O   0  0  0  0  0  0  0  0  0  0  0  0
   24.1030   17.8400   14.6860 N   0  0  0  0  0  0  0  0  0  0  0  0
   24.7740   18.7360   15.6140 C   0  0  1  0  0  0  0  0  0  0  0  0
   25.7880   18.0040   16.4880 C   0  0  0  0  0  0  0  0  0  0  0  0
   26.4760   19.0000   17.4080 C   0  0  0  0  0  0  0  0  0  0  0  0
   27.1180   20.1200   16.6250 C   0  0  0  0  0  0  0  0  0  0  0  0
   28.1560   20.6660   16.9860 O   0  0  0  0  0  0  0  0  0  0  0  0
   26.4640   20.5270   15.4900 N   0  0  0  0  0  0  0  0  0  0  0  0
   25.4940   19.8270   14.8150 C   0  0  0  0  0  0  0  0  0  0  0  0
   25.2200   20.0890   13.6450 O   0  0  0  0  0  0  0  0  0  0  0  0
   23.0800   15.0530   14.1790 N   0  0  0  0  0  0  0  0  0  0  0  0
   22.2370   14.1620   13.5860 N   0  0  0  0  0  0  0  0  0  0  0  0
   22.1040   13.9520   12.2360 C   0  0  0  0  0  0  0  0  0  0  0  0
   21.3490   13.1090   11.7670 O   0  0  0  0  0  0  0  0  0  0  0  0
   22.9250   14.8060   11.3610 C   0  0  0  0  0  0  0  0  0  0  0  0
   22.8190   14.6860    9.9700 C   0  0  0  0  0  0  0  0  0  0  0  0
   21.2470   15.7590    5.9330 C   0  0  0  0  0  0  0  0  0  0  0  0
   20.0420   16.2840    6.0190 N   0  0  0  0  0  0  0  0  0  0  0  0
   18.9504   19.6134    8.5356 H   0  0  0  0  0  0  0  0  0  0  0  0
   19.8320   19.3891    6.9867 H   0  0  0  0  0  0  0  0  0  0  0  0
   18.0430   19.5504    6.9867 H   0  0  0  0  0  0  0  0  0  0  0  0
   18.5790   17.4048    8.7336 H   0  0  0  0  0  0  0  0  0  0  0  0
   17.9430   17.3198    7.0341 H   0  0  0  0  0  0  0  0  0  0  0  0
   21.4699   17.1416    8.9083 H   0  0  0  0  0  0  0  0  0  0  0  0
   25.0562   17.1114    9.0639 H   0  0  0  0  0  0  0  0  0  0  0  0
   25.2279   17.3175   11.5502 H   0  0  0  0  0  0  0  0  0  0  0  0
   23.1176   18.0129   14.4411 H   0  0  0  0  0  0  0  0  0  0  0  0
   24.0123   19.1704   16.2782 H   0  0  0  0  0  0  0  0  0  0  0  0
   25.2707   17.2438   17.0917 H   0  0  0  0  0  0  0  0  0  0  0  0
   26.5385   17.5159   15.8489 H   0  0  0  0  0  0  0  0  0  0  0  0
   25.7308   19.4256   18.0961 H   0  0  0  0  0  0  0  0  0  0  0  0
   27.2635   18.4707   17.9646 H   0  0  0  0  0  0  0  0  0  0  0  0
   26.7257   21.4466   15.1068 H   0  0  0  0  0  0  0  0  0  0  0  0
   21.6448   13.5935   14.2081 H   0  0  0  0  0  0  0  0  0  0  0  0
   22.1279   13.9544    9.5260 H   0  0  0  0  0  0  0  0  0  0  0  0
   21.6135   15.1653    5.0826 H   0  0  0  0  0  0  0  0  0  0  0  0
  1  2  1  0
  2  3  1  0
  3  4  2  0
  4  5  1  0
  5  6  1  0
  6  7  2  0
  6  8  2  0
  6  9  1  0
  9 10  2  0
 10 11  1  0
 11 12  2  0
 12 13  1  0
 13 14  1  0
 14 15  2  0
 14 16  1  0
 16 17  1  0
 17 18  1  0
 18 19  1  0
 19 20  1  0
 20 21  2  0
 20 22  1  0
 22 23  1  0
 23 24  2  0
 13 25  2  0
 25 26  1  0
 26 27  1  0
 27 28  2  0
 27 29  1  0
 29 30  2  0
  5 31  1  0
 31 32  2  0
 32  3  1  0
 30  9  1  0
 29 12  1  0
 23 17  1  0
  1 33  1  0
  1 34  1  0
  1 35  1  0
  2 36  1  0
  2 37  1  0
  4 38  1  0
 10 39  1  0
 11 40  1  0
 16 41  1  0
 17 42  1  1
 18 43  1  0
 18 44  1  0
 19 45  1  0
 19 46  1  0
 22 47  1  0
 26 48  1  0
 30 49  1  0
 31 50  1  0
M  END
>  <meeko>  (1070) 
{"is_sidechain": [true], "free_energy": -10.28, "intermolecular_energy": 0.0, "internal_energy": -10.28, "cluster_size": 18, "cluster_id": 1, "rank_in_cluster": 1}

>  <_RMSD_MCS_to_ref>  (1070) 
0.8143733787397519

$$$$
ligand
     RDKit          3D

 50 53  0  0  0  0  0  0  0  0999 V2000
   18.9090   19.1540    7.5370 C   0  0  0  0  0  0  0  0  0  0  0  0
   18.7730   17.6460    7.6780 C   0  0  0  0  0  0  0  0  0  0  0  0
   19.9960   16.9270    7.2310 C   0  0  0  0  0  0  0  0  0  0  0  0
   20.4690   15.6890    7.6210 C   0  0  0  0  0  0  0  0  0  0  0  0
   21.6080   15.5210    6.8850 N   0  0  0  0  0  0  0  0  0  0  0  0
   22.6460   14.1950    6.9860 S   0  0  0  0  0  6  0  0  0  0  0  0
   21.9590   13.3140    7.9190 O   0  0  0  0  0  0  0  0  0  0  0  0
   22.8580   13.7630    5.6150 O   0  0  0  0  0  0  0  0  0  0  0  0
   24.1460   14.7010    7.6810 C   0  0  0  0  0  0  0  0  0  0  0  0
   25.2790   14.5300    6.9800 C   0  0  0  0  0  0  0  0  0  0  0  0
   26.5430   14.9560    7.5180 C   0  0  0  0  0  0  0  0  0  0  0  0
   26.5910   15.5400    8.7190 C   0  0  0  0  0  0  0  0  0  0  0  0
   25.4460   15.7540    9.4810 N   0  0  0  0  0  0  0  0  0  0  0  0
   25.5760   16.3700   10.7260 C   0  0  0  0  0  0  0  0  0  0  0  0
   26.6540   16.7230   11.2080 O   0  0  0  0  0  0  0  0  0  0  0  0
   24.3230   16.5840   11.4820 C   0  0  0  0  0  0  0  0  0  0  0  0
   24.2320   17.2330   12.8190 C   0  0  0  0  0  0  0  0  0  0  0  0
   23.2020   17.2000   13.4880 O   0  0  0  0  0  0  0  0  0  0  0  0
   25.3600   17.8720   13.2570 N   0  0  0  0  0  0  0  0  0  0  0  0
   25.3960   18.6170   14.5060 C   0  0  1  0  0  0  0  0  0  0  0  0
   26.3070   17.9510   15.5340 C   0  0  0  0  0  0  0  0  0  0  0  0
   26.3160   18.7730   16.8130 C   0  0  0  0  0  0  0  0  0  0  0  0
   26.7250   20.2010   16.5440 C   0  0  0  0  0  0  0  0  0  0  0  0
   27.3640   20.8680   17.3530 O   0  0  0  0  0  0  0  0  0  0  0  0
   26.3190   20.7410   15.3490 N   0  0  0  0  0  0  0  0  0  0  0  0
   25.8900   20.0440   14.2460 C   0  0  0  0  0  0  0  0  0  0  0  0
   25.8930   20.5640   13.1310 O   0  0  0  0  0  0  0  0  0  0  0  0
   23.1930   16.1520   10.9070 C   0  0  0  0  0  0  0  0  0  0  0  0
   23.1010   15.5430    9.6860 N   0  0  0  0  0  0  0  0  0  0  0  0
   24.1900   15.3600    9.0120 C   0  0  0  0  0  0  0  0  0  0  0  0
   21.8090   16.6180    6.1120 C   0  0  0  0  0  0  0  0  0  0  0  0
   20.8400   17.4930    6.2960 N   0  0  0  0  0  0  0  0  0  0  0  0
   18.9504   19.6134    8.5356 H   0  0  0  0  0  0  0  0  0  0  0  0
   19.8320   19.3891    6.9867 H   0  0  0  0  0  0  0  0  0  0  0  0
   18.0430   19.5504    6.9867 H   0  0  0  0  0  0  0  0  0  0  0  0
   18.5865   17.4045    8.7348 H   0  0  0  0  0  0  0  0  0  0  0  0
   17.9382   17.3212    7.0396 H   0  0  0  0  0  0  0  0  0  0  0  0
   20.0298   14.9975    8.3551 H   0  0  0  0  0  0  0  0  0  0  0  0
   25.2398   14.0602    5.9861 H   0  0  0  0  0  0  0  0  0  0  0  0
   27.4676   14.8015    6.9425 H   0  0  0  0  0  0  0  0  0  0  0  0
   27.5647   15.8613    9.1174 H   0  0  0  0  0  0  0  0  0  0  0  0
   26.2134   17.8238   12.6823 H   0  0  0  0  0  0  0  0  0  0  0  0
   24.3737   18.6366   14.9115 H   0  0  0  0  0  0  0  0  0  0  0  0
   25.9355   16.9388   15.7516 H   0  0  0  0  0  0  0  0  0  0  0  0
   27.3289   17.8886   15.1317 H   0  0  0  0  0  0  0  0  0  0  0  0
   25.3069   18.7656   17.2508 H   0  0  0  0  0  0  0  0  0  0  0  0
   27.0444   18.3279   17.5068 H   0  0  0  0  0  0  0  0  0  0  0  0
   26.3379   21.7680   15.2721 H   0  0  0  0  0  0  0  0  0  0  0  0
   22.2571   16.3000   11.4658 H   0  0  0  0  0  0  0  0  0  0  0  0
   22.6597   16.7575    5.4288 H   0  0  0  0  0  0  0  0  0  0  0  0
  1  2  1  0
  2  3  1  0
  3  4  2  0
  4  5  1  0
  5  6  1  0
  6  7  2  0
  6  8  2  0
  6  9  1  0
  9 10  2  0
 10 11  1  0
 11 12  2  0
 12 13  1  0
 13 14  1  0
 14 15  2  0
 14 16  1  0
 16 17  1  0
 17 18  2  0
 17 19  1  0
 19 20  1  0
 20 21  1  0
 21 22  1  0
 22 23  1  0
 23 24  2  0
 23 25  1  0
 25 26  1  0
 26 27  2  0
 16 28  2  0
 28 29  1  0
 29 30  2  0
  5 31  1  0
 31 32  2  0
 32  3  1  0
 30  9  1  0
 30 13  1  0
 26 20  1  0
  1 33  1  0
  1 34  1  0
  1 35  1  0
  2 36  1  0
  2 37  1  0
  4 38  1  0
 10 39  1  0
 11 40  1  0
 12 41  1  0
 19 42  1  0
 20 43  1  1
 21 44  1  0
 21 45  1  0
 22 46  1  0
 22 47  1  0
 25 48  1  0
 28 49  1  0
 31 50  1  0
M  END
>  <meeko>  (1071) 
{"is_sidechain": [true], "free_energy": -10.28, "intermolecular_energy": 0.0, "internal_energy": -10.28, "cluster_size": 16, "cluster_id": 1, "rank_in_cluster": 1}

>  <_RMSD_MCS_to_ref>  (1071) 
0.6797354877695688

$$$$
ligand
     RDKit          3D

 52 56  0  0  0  0  0  0  0  0999 V2000
   18.9090   19.1540    7.5370 C   0  0  0  0  0  0  0  0  0  0  0  0
   18.7730   17.6460    7.6780 C   0  0  0  0  0  0  0  0  0  0  0  0
   20.0800   16.9800    7.9230 C   0  0  0  0  0  0  0  0  0  0  0  0
   20.7220   16.7520    9.1250 C   0  0  0  0  0  0  0  0  0  0  0  0
   21.8850   16.1400    8.7700 N   0  0  0  0  0  0  0  0  0  0  0  0
   23.0990   15.6100    9.7990 S   0  0  0  0  0  6  0  0  0  0  0  0
   23.6290   16.8310   10.3810 O   0  0  0  0  0  0  0  0  0  0  0  0
   23.9450   14.7030    9.0490 O   0  0  0  0  0  0  0  0  0  0  0  0
   22.2960   14.6930   11.0890 C   0  0  0  0  0  0  0  0  0  0  0  0
   21.3480   13.7330   10.7020 C   0  0  0  0  0  0  0  0  0  0  0  0
   20.6950   12.9450   11.6650 C   0  0  0  0  0  0  0  0  0  0  0  0
   19.7490   11.9770   11.3060 C   0  0  0  0  0  0  0  0  0  0  0  0
   19.1320   11.2170   12.2920 C   0  0  0  0  0  0  0  0  0  0  0  0
   19.4830   11.4540   13.6070 C   0  0  0  0  0  0  0  0  0  0  0  0
   20.3900   12.3800   13.9880 N   0  0  0  0  0  0  0  0  0  0  0  0
   20.9870   13.1110   13.0320 C   0  0  0  0  0  0  0  0  0  0  0  0
   21.9220   14.0720   13.3910 C   0  0  0  0  0  0  0  0  0  0  0  0
   22.5770   14.8830   12.4450 C   0  0  0  0  0  0  0  0  0  0  0  0
   23.5010   15.8610   12.9610 C   0  0  0  0  0  0  0  0  0  0  0  0
   23.2900   16.7080   14.0230 C   0  0  0  0  0  0  0  0  0  0  0  0
   24.4690   17.3850   14.1330 N   0  0  0  0  0  0  0  0  0  0  0  0
   24.8390   18.3810   15.1240 C   0  0  1  0  0  0  0  0  0  0  0  0
   25.8560   17.8320   16.1280 C   0  0  0  0  0  0  0  0  0  0  0  0
   26.2490   18.9210   17.1110 C   0  0  0  0  0  0  0  0  0  0  0  0
   26.7950   20.1300   16.3910 C   0  0  0  0  0  0  0  0  0  0  0  0
   27.5140   20.9550   16.9460 O   0  0  0  0  0  0  0  0  0  0  0  0
   26.3690   20.3130   15.1000 N   0  0  0  0  0  0  0  0  0  0  0  0
   25.3550   19.6430   14.4530 C   0  0  0  0  0  0  0  0  0  0  0  0
   24.8550   20.1260   13.4390 O   0  0  0  0  0  0  0  0  0  0  0  0
   25.3680   16.9470   13.2310 N   0  0  0  0  0  0  0  0  0  0  0  0
   24.7770   16.0090   12.5020 N   0  0  0  0  0  0  0  0  0  0  0  0
   21.9080   15.9660    7.4230 C   0  0  0  0  0  0  0  0  0  0  0  0
   20.8270   16.4790    6.8730 N   0  0  0  0  0  0  0  0  0  0  0  0
   18.9504   19.6134    8.5356 H   0  0  0  0  0  0  0  0  0  0  0  0
   19.8320   19.3891    6.9867 H   0  0  0  0  0  0  0  0  0  0  0  0
   18.0430   19.5504    6.9867 H   0  0  0  0  0  0  0  0  0  0  0  0
   18.1021   17.4291    8.5223 H   0  0  0  0  0  0  0  0  0  0  0  0
   18.3693   17.2555    6.7322 H   0  0  0  0  0  0  0  0  0  0  0  0
   20.3733   17.0066   10.1367 H   0  0  0  0  0  0  0  0  0  0  0  0
   21.1142   13.5963    9.6359 H   0  0  0  0  0  0  0  0  0  0  0  0
   19.4953   11.8189   10.2474 H   0  0  0  0  0  0  0  0  0  0  0  0
   18.3869   10.4502   12.0335 H   0  0  0  0  0  0  0  0  0  0  0  0
   18.9956   10.8538   14.3894 H   0  0  0  0  0  0  0  0  0  0  0  0
   22.1605   14.2051   14.4565 H   0  0  0  0  0  0  0  0  0  0  0  0
   22.3846   16.8146   14.6385 H   0  0  0  0  0  0  0  0  0  0  0  0
   23.9321   18.6396   15.6903 H   0  0  0  0  0  0  0  0  0  0  0  0
   25.4095   16.9893   16.6761 H   0  0  0  0  0  0  0  0  0  0  0  0
   26.7513   17.4905   15.5877 H   0  0  0  0  0  0  0  0  0  0  0  0
   25.3631   19.2180   17.6915 H   0  0  0  0  0  0  0  0  0  0  0  0
   27.0317   18.5265   17.7757 H   0  0  0  0  0  0  0  0  0  0  0  0
   26.8632   21.0325   14.5532 H   0  0  0  0  0  0  0  0  0  0  0  0
   22.7165   15.4665    6.8691 H   0  0  0  0  0  0  0  0  0  0  0  0
  1  2  1  0
  2  3  1  0
  3  4  2  0
  4  5  1  0
  5  6  1  0
  6  7  2  0
  6  8  2  0
  6  9  1  0
  9 10  2  0
 10 11  1  0
 11 12  2  0
 12 13  1  0
 13 14  2  0
 14 15  1  0
 15 16  2  0
 16 17  1  0
 17 18  2  0
 18 19  1  0
 19 20  2  0
 20 21  1  0
 21 22  1  0
 22 23  1  0
 23 24  1  0
 24 25  1  0
 25 26  2  0
 25 27  1  0
 27 28  1  0
 28 29  2  0
 21 30  1  0
 30 31  2  0
  5 32  1  0
 32 33  2  0
 33  3  1  0
 18  9  1  0
 31 19  1  0
 16 11  1  0
 28 22  1  0
  1 34  1  0
  1 35  1  0
  1 36  1  0
  2 37  1  0
  2 38  1  0
  4 39  1  0
 10 40  1  0
 12 41  1  0
 13 42  1  0
 14 43  1  0
 17 44  1  0
 20 45  1  0
 22 46  1  1
 23 47  1  0
 23 48  1  0
 24 49  1  0
 24 50  1  0
 27 51  1  0
 32 52  1  0
M  END
>  <meeko>  (1072) 
{"is_sidechain": [true], "free_energy": -10.28, "intermolecular_energy": 0.0, "internal_energy": -10.28, "cluster_size": 18, "cluster_id": 1, "rank_in_cluster": 1}

>  <_RMSD_MCS_to_ref>  (1072) 
0.3944978524093067

$$$$
ligand
     RDKit          3D

 49 53  0  0  0  0  0  0  0  0999 V2000
   18.9090   19.1540    7.5370 C   0  0  0  0  0  0  0  0  0  0  0  0
   18.7730   17.6460    7.6780 C   0  0  0  0  0  0  0  0  0  0  0  0
   19.8560   16.9150    6.9670 C   0  0  0  0  0  0  0  0  0  0  0  0
   21.0930   16.5200    7.4380 C   0  0  0  0  0  0  0  0  0  0  0  0
   21.6830   15.9170    6.3650 N   0  0  0  0  0  0  0  0  0  0  0  0
   23.1220   15.0490    6.3900 S   0  0  0  0  0  6  0  0  0  0  0  0
   24.1290   15.9300    5.8320 O   0  0  0  0  0  0  0  0  0  0  0  0
   22.8120   13.7570    5.8100 O   0  0  0  0  0  0  0  0  0  0  0  0
   23.4510   14.8380    8.1210 C   0  0  0  0  0  0  0  0  0  0  0  0
   23.0390   13.6620    8.7600 C   0  0  0  0  0  0  0  0  0  0  0  0
   23.2930   13.4720   10.1260 C   0  0  0  0  0  0  0  0  0  0  0  0
   23.9730   14.4790   10.8370 C   0  0  0  0  0  0  0  0  0  0  0  0
   24.3740   15.6250   10.1550 C   0  0  0  0  0  0  0  0  0  0  0  0
   24.1430   15.8500    8.8000 C   0  0  0  0  0  0  0  0  0  0  0  0
   25.0180   16.4850   10.9920 O   0  0  0  0  0  0  0  0  0  0  0  0
   25.0320   15.8950   12.2220 C   0  0  0  0  0  0  0  0  0  0  0  0
   25.5580   16.3620   13.4100 C   0  0  0  0  0  0  0  0  0  0  0  0
   26.3690   17.9230   13.5340 S   0  0  0  0  0  0  0  0  0  0  0  0
   25.1840   18.7720   14.6430 C   0  0  1  0  0  0  0  0  0  0  0  0
   25.3460   18.3150   16.0930 C   0  0  0  0  0  0  0  0  0  0  0  0
   26.6560   18.7870   16.7050 C   0  0  0  0  0  0  0  0  0  0  0  0
   26.8350   20.2760   16.5460 C   0  0  0  0  0  0  0  0  0  0  0  0
   27.5490   20.9350   17.2960 O   0  0  0  0  0  0  0  0  0  0  0  0
   26.1960   20.8650   15.4850 N   0  0  0  0  0  0  0  0  0  0  0  0
   25.3920   20.2770   14.5360 C   0  0  0  0  0  0  0  0  0  0  0  0
   24.9140   20.9550   13.6290 O   0  0  0  0  0  0  0  0  0  0  0  0
   25.4440   15.5800   14.5080 N   0  0  0  0  0  0  0  0  0  0  0  0
   24.8180   14.3920   14.3730 C   0  0  0  0  0  0  0  0  0  0  0  0
   24.2790   13.8600   13.2620 N   0  0  0  0  0  0  0  0  0  0  0  0
   24.4040   14.6610   12.1770 C   0  0  0  0  0  0  0  0  0  0  0  0
   20.8130   15.9120    5.3220 C   0  0  0  0  0  0  0  0  0  0  0  0
   19.6940   16.5210    5.6520 N   0  0  0  0  0  0  0  0  0  0  0  0
   18.9504   19.6134    8.5356 H   0  0  0  0  0  0  0  0  0  0  0  0
   19.8320   19.3891    6.9867 H   0  0  0  0  0  0  0  0  0  0  0  0
   18.0430   19.5504    6.9867 H   0  0  0  0  0  0  0  0  0  0  0  0
   18.8116   17.3852    8.7459 H   0  0  0  0  0  0  0  0  0  0  0  0
   17.8140   17.3500    7.2279 H   0  0  0  0  0  0  0  0  0  0  0  0
   21.5078   16.6595    8.4472 H   0  0  0  0  0  0  0  0  0  0  0  0
   22.5135   12.8834    8.1876 H   0  0  0  0  0  0  0  0  0  0  0  0
   22.9666   12.5521   10.6332 H   0  0  0  0  0  0  0  0  0  0  0  0
   24.4828   16.7657    8.2940 H   0  0  0  0  0  0  0  0  0  0  0  0
   24.1620   18.5126   14.3297 H   0  0  0  0  0  0  0  0  0  0  0  0
   24.5126   18.7193   16.6863 H   0  0  0  0  0  0  0  0  0  0  0  0
   25.3486   17.2150   16.1004 H   0  0  0  0  0  0  0  0  0  0  0  0
   26.6599   18.5389   17.7766 H   0  0  0  0  0  0  0  0  0  0  0  0
   27.4825   18.2822   16.1834 H   0  0  0  0  0  0  0  0  0  0  0  0
   26.3364   21.8805   15.3857 H   0  0  0  0  0  0  0  0  0  0  0  0
   24.7389   13.7830   15.2856 H   0  0  0  0  0  0  0  0  0  0  0  0
   21.0154   15.4619    4.3389 H   0  0  0  0  0  0  0  0  0  0  0  0
  1  2  1  0
  2  3  1  0
  3  4  2  0
  4  5  1  0
  5  6  1  0
  6  7  2  0
  6  8  2  0
  6  9  1  0
  9 10  2  0
 10 11  1  0
 11 12  2  0
 12 13  1  0
 13 14  2  0
 13 15  1  0
 15 16  1  0
 16 17  2  0
 17 18  1  0
 18 19  1  0
 19 20  1  0
 20 21  1  0
 21 22  1  0
 22 23  2  0
 22 24  1  0
 24 25  1  0
 25 26  2  0
 17 27  1  0
 27 28  2  0
 28 29  1  0
 29 30  2  0
  5 31  1  0
 31 32  2  0
 32  3  1  0
 14  9  1  0
 30 16  1  0
 30 12  1  0
 25 19  1  0
  1 33  1  0
  1 34  1  0
  1 35  1  0
  2 36  1  0
  2 37  1  0
  4 38  1  0
 10 39  1  0
 11 40  1  0
 14 41  1  0
 19 42  1  6
 20 43  1  0
 20 44  1  0
 21 45  1  0
 21 46  1  0
 24 47  1  0
 28 48  1  0
 31 49  1  0
M  END
>  <meeko>  (1073) 
{"is_sidechain": [true], "free_energy": -10.28, "intermolecular_energy": 0.0, "internal_energy": -10.28, "cluster_size": 20, "cluster_id": 1, "rank_in_cluster": 1}

>  <_RMSD_MCS_to_ref>  (1073) 
0.6190188809721396

$$$$
ligand
     RDKit          3D

 55 59  0  0  0  0  0  0  0  0999 V2000
   18.9090   19.1540    7.5370 C   0  0  0  0  0  0  0  0  0  0  0  0
   18.7730   17.6460    7.6780 C   0  0  0  0  0  0  0  0  0  0  0  0
   19.8340   16.9120    6.9360 C   0  0  0  0  0  0  0  0  0  0  0  0
   21.1810   17.2050    6.8350 C   0  0  0  0  0  0  0  0  0  0  0  0
   21.6840   16.2040    6.0550 N   0  0  0  0  0  0  0  0  0  0  0  0
   23.2660   16.0830    5.5130 S   0  0  0  0  0  6  0  0  0  0  0  0
   23.5910   17.3550    4.8970 O   0  0  0  0  0  0  0  0  0  0  0  0
   23.3040   14.8340    4.7710 O   0  0  0  0  0  0  0  0  0  0  0  0
   24.2320   15.8870    6.9890 C   0  0  0  0  0  0  0  0  0  0  0  0
   25.6130   15.9280    6.9080 C   0  0  0  0  0  0  0  0  0  0  0  0
   26.3210   15.7310    8.0810 C   0  0  0  0  0  0  0  0  0  0  0  0
   25.6240   15.5230    9.2710 C   0  0  0  0  0  0  0  0  0  0  0  0
   24.2230   15.5190    9.2800 C   0  0  0  0  0  0  0  0  0  0  0  0
   23.4450   15.3330   10.5290 C   0  0  0  0  0  0  0  0  0  0  0  0
   22.2290   14.6030   10.5420 C   0  0  0  0  0  0  0  0  0  0  0  0
   21.4380   14.4560   11.7010 C   0  0  0  0  0  0  0  0  0  0  0  0
   21.8340   15.0320   12.9010 C   0  0  0  0  0  0  0  0  0  0  0  0
   23.0310   15.7180   12.8990 C   0  0  0  0  0  0  0  0  0  0  0  0
   23.8340   15.8630   11.7610 C   0  0  0  0  0  0  0  0  0  0  0  0
   25.0540   16.6450   12.1300 C   0  0  0  0  0  0  0  0  0  0  0  0
   24.8900   16.8690   13.5590 N   0  0  0  0  0  0  0  0  0  0  0  0
   25.7860   17.7650   14.2810 C   0  0  2  0  0  0  0  0  0  0  0  0
   25.6720   17.6670   15.8010 C   0  0  0  0  0  0  0  0  0  0  0  0
   26.7130   18.5750   16.4380 C   0  0  0  0  0  0  0  0  0  0  0  0
   26.5530   20.0020   15.9690 C   0  0  0  0  0  0  0  0  0  0  0  0
   26.9630   20.9580   16.6210 O   0  0  0  0  0  0  0  0  0  0  0  0
   25.9890   20.1850   14.7300 N   0  0  0  0  0  0  0  0  0  0  0  0
   25.6080   19.2210   13.8240 C   0  0  0  0  0  0  0  0  0  0  0  0
   25.2510   19.5460   12.6920 O   0  0  0  0  0  0  0  0  0  0  0  0
   23.6720   16.4120   14.0210 C   0  0  0  0  0  0  0  0  0  0  0  0
   23.1780   16.5450   15.1220 O   0  0  0  0  0  0  0  0  0  0  0  0
   23.5160   15.6800    8.1310 N   0  0  0  0  0  0  0  0  0  0  0  0
   20.6780   15.3670    5.6990 C   0  0  0  0  0  0  0  0  0  0  0  0
   19.5340   15.7730    6.2140 N   0  0  0  0  0  0  0  0  0  0  0  0
   18.9504   19.6134    8.5356 H   0  0  0  0  0  0  0  0  0  0  0  0
   19.8320   19.3891    6.9867 H   0  0  0  0  0  0  0  0  0  0  0  0
   18.0430   19.5504    6.9867 H   0  0  0  0  0  0  0  0  0  0  0  0
   18.8400   17.3828    8.7439 H   0  0  0  0  0  0  0  0  0  0  0  0
   17.8014   17.3542    7.2528 H   0  0  0  0  0  0  0  0  0  0  0  0
   21.7237   18.0514    7.2812 H   0  0  0  0  0  0  0  0  0  0  0  0
   26.1262   16.1094    5.9521 H   0  0  0  0  0  0  0  0  0  0  0  0
   27.4210   15.7384    8.0747 H   0  0  0  0  0  0  0  0  0  0  0  0
   26.1774   15.3612   10.2078 H   0  0  0  0  0  0  0  0  0  0  0  0
   21.8881   14.1313    9.6086 H   0  0  0  0  0  0  0  0  0  0  0  0
   20.5013   13.8813   11.6538 H   0  0  0  0  0  0  0  0  0  0  0  0
   21.2218   14.9453   13.8108 H   0  0  0  0  0  0  0  0  0  0  0  0
   25.9682   16.0690   11.9240 H   0  0  0  0  0  0  0  0  0  0  0  0
   25.1559   17.5786   11.5573 H   0  0  0  0  0  0  0  0  0  0  0  0
   26.8007   17.4257   14.0255 H   0  0  0  0  0  0  0  0  0  0  0  0
   24.6663   17.9821   16.1160 H   0  0  0  0  0  0  0  0  0  0  0  0
   25.8424   16.6279   16.1191 H   0  0  0  0  0  0  0  0  0  0  0  0
   26.5975   18.5415   17.5314 H   0  0  0  0  0  0  0  0  0  0  0  0
   27.7117   18.2210   16.1426 H   0  0  0  0  0  0  0  0  0  0  0  0
   25.8321   21.1620   14.4441 H   0  0  0  0  0  0  0  0  0  0  0  0
   20.7995   14.4739    5.0685 H   0  0  0  0  0  0  0  0  0  0  0  0
  1  2  1  0
  2  3  1  0
  3  4  2  0
  4  5  1  0
  5  6  1  0
  6  7  2  0
  6  8  2  0
  6  9  1  0
  9 10  2  0
 10 11  1  0
 11 12  2  0
 12 13  1  0
 13 14  1  0
 14 15  2  0
 15 16  1  0
 16 17  2  0
 17 18  1  0
 18 19  2  0
 19 20  1  0
 20 21  1  0
 21 22  1  0
 22 23  1  0
 23 24  1  0
 24 25  1  0
 25 26  2  0
 25 27  1  0
 27 28  1  0
 28 29  2  0
 21 30  1  0
 30 31  2  0
 13 32  2  0
  5 33  1  0
 33 34  2  0
 34  3  1  0
 32  9  1  0
 19 14  1  0
 28 22  1  0
 30 18  1  0
  1 35  1  0
  1 36  1  0
  1 37  1  0
  2 38  1  0
  2 39  1  0
  4 40  1  0
 10 41  1  0
 11 42  1  0
 12 43  1  0
 15 44  1  0
 16 45  1  0
 17 46  1  0
 20 47  1  0
 20 48  1  0
 22 49  1  1
 23 50  1  0
 23 51  1  0
 24 52  1  0
 24 53  1  0
 27 54  1  0
 33 55  1  0
M  END
>  <meeko>  (1074) 
{"is_sidechain": [true], "free_energy": -10.28, "intermolecular_energy": 0.0, "internal_energy": -10.28, "cluster_size": 17, "cluster_id": 1, "rank_in_cluster": 1}

>  <_RMSD_MCS_to_ref>  (1074) 
1.5025348396774183

$$$$
ligand
     RDKit          3D

 44 47  0  0  0  0  0  0  0  0999 V2000
   18.8250   19.0180    7.5350 C   0  0  0  0  0  0  0  0  0  0  0  0
   18.5200   17.5410    7.7330 C   0  0  0  0  0  0  0  0  0  0  0  0
   19.7350   16.7640    8.0960 C   0  0  0  0  0  0  0  0  0  0  0  0
   20.4190   16.7290    9.2970 C   0  0  0  0  0  0  0  0  0  0  0  0
   21.4780   15.9030    9.0530 N   0  0  0  0  0  0  0  0  0  0  0  0
   22.5570   15.3370   10.2000 S   0  0  0  0  0  6  0  0  0  0  0  0
   22.3010   16.1490   11.3770 O   0  0  0  0  0  0  0  0  0  0  0  0
   22.4640   13.8920   10.2280 O   0  0  0  0  0  0  0  0  0  0  0  0
   24.2000   15.6860    9.7730 C   0  0  0  0  0  0  0  0  0  0  0  0
   24.6690   15.5420    8.4230 C   0  0  0  0  0  0  0  0  0  0  0  0
   26.0020   15.8600    8.2930 C   0  0  0  0  0  0  0  0  0  0  0  0
   26.6860   16.3340    9.7810 S   0  0  0  0  0  0  0  0  0  0  0  0
   25.1990   16.1320   10.6190 C   0  0  0  0  0  0  0  0  0  0  0  0
   25.0760   16.4300   12.1460 C   0  0  0  0  0  0  0  0  0  0  0  0
   25.4130   17.6040   12.7790 C   0  0  0  0  0  0  0  0  0  0  0  0
   25.1720   17.3470   14.0970 N   0  0  0  0  0  0  0  0  0  0  0  0
   25.3580   18.2360   15.2310 C   0  0  1  0  0  0  0  0  0  0  0  0
   26.3940   17.7120   16.2300 C   0  0  0  0  0  0  0  0  0  0  0  0
   26.5640   18.7110   17.3640 C   0  0  0  0  0  0  0  0  0  0  0  0
   26.9520   20.0720   16.8360 C   0  0  0  0  0  0  0  0  0  0  0  0
   27.4930   20.9180   17.5400 O   0  0  0  0  0  0  0  0  0  0  0  0
   26.5810   20.3530   15.5450 N   0  0  0  0  0  0  0  0  0  0  0  0
   25.7150   19.6330   14.7530 C   0  0  0  0  0  0  0  0  0  0  0  0
   25.1980   20.1630   13.7710 O   0  0  0  0  0  0  0  0  0  0  0  0
   24.6870   16.1060   14.2660 N   0  0  0  0  0  0  0  0  0  0  0  0
   24.6200   15.5400   13.0720 N   0  0  0  0  0  0  0  0  0  0  0  0
   21.3670   15.3960    7.7980 C   0  0  0  0  0  0  0  0  0  0  0  0
   20.3280   15.9180    7.1790 N   0  0  0  0  0  0  0  0  0  0  0  0
   18.9258   19.5062    8.5155 H   0  0  0  0  0  0  0  0  0  0  0  0
   19.7645   19.1263    6.9731 H   0  0  0  0  0  0  0  0  0  0  0  0
   18.0053   19.4896    6.9731 H   0  0  0  0  0  0  0  0  0  0  0  0
   17.7781   17.4366    8.5385 H   0  0  0  0  0  0  0  0  0  0  0  0
   18.1346   17.1437    6.7824 H   0  0  0  0  0  0  0  0  0  0  0  0
   20.1676   17.2476   10.2339 H   0  0  0  0  0  0  0  0  0  0  0  0
   24.0341   15.2143    7.5867 H   0  0  0  0  0  0  0  0  0  0  0  0
   26.5579   15.8139    7.3449 H   0  0  0  0  0  0  0  0  0  0  0  0
   25.7893   18.5338   12.3274 H   0  0  0  0  0  0  0  0  0  0  0  0
   24.4012   18.2780   15.7720 H   0  0  0  0  0  0  0  0  0  0  0  0
   26.0533   16.7493   16.6389 H   0  0  0  0  0  0  0  0  0  0  0  0
   27.3576   17.5755   15.7174 H   0  0  0  0  0  0  0  0  0  0  0  0
   25.6148   18.7960   17.9133 H   0  0  0  0  0  0  0  0  0  0  0  0
   27.3643   18.3527   18.0283 H   0  0  0  0  0  0  0  0  0  0  0  0
   26.9961   21.1954   15.1219 H   0  0  0  0  0  0  0  0  0  0  0  0
   22.0495   14.6531    7.3596 H   0  0  0  0  0  0  0  0  0  0  0  0
  1  2  1  0
  2  3  1  0
  3  4  2  0
  4  5  1  0
  5  6  1  0
  6  7  2  0
  6  8  2  0
  6  9  1  0
  9 10  1  0
 10 11  2  0
 11 12  1  0
 12 13  1  0
 13 14  1  0
 14 15  2  0
 15 16  1  0
 16 17  1  0
 17 18  1  0
 18 19  1  0
 19 20  1  0
 20 21  2  0
 20 22  1  0
 22 23  1  0
 23 24  2  0
 16 25  1  0
 25 26  2  0
  5 27  1  0
 27 28  2  0
 28  3  1  0
 13  9  2  0
 26 14  1  0
 23 17  1  0
  1 29  1  0
  1 30  1  0
  1 31  1  0
  2 32  1  0
  2 33  1  0
  4 34  1  0
 10 35  1  0
 11 36  1  0
 15 37  1  0
 17 38  1  1
 18 39  1  0
 18 40  1  0
 19 41  1  0
 19 42  1  0
 22 43  1  0
 27 44  1  0
M  END
>  <meeko>  (1075) 
{"is_sidechain": [true], "free_energy": -10.27, "intermolecular_energy": 0.0, "internal_energy": -10.27, "cluster_size": 17, "cluster_id": 1, "rank_in_cluster": 1}

>  <_RMSD_MCS_to_ref>  (1075) 
0.6098675630367997

$$$$
ligand
     RDKit          3D

 54 58  0  0  0  0  0  0  0  0999 V2000
   18.7970   18.8170    7.7190 C   0  0  0  0  0  0  0  0  0  0  0  0
   18.5280   17.3290    7.8810 C   0  0  0  0  0  0  0  0  0  0  0  0
   19.7460   16.5800    8.2940 C   0  0  0  0  0  0  0  0  0  0  0  0
   20.9930   16.5570    7.7010 C   0  0  0  0  0  0  0  0  0  0  0  0
   21.7240   15.7180    8.4930 N   0  0  0  0  0  0  0  0  0  0  0  0
   23.3010   15.2020    8.2110 S   0  0  0  0  0  6  0  0  0  0  0  0
   23.4620   15.2470    6.7680 O   0  0  0  0  0  0  0  0  0  0  0  0
   24.1150   15.9980    9.1110 O   0  0  0  0  0  0  0  0  0  0  0  0
   23.3440   13.5210    8.7320 C   0  0  0  0  0  0  0  0  0  0  0  0
   23.2650   12.6040    7.7230 N   0  0  0  0  0  0  0  0  0  0  0  0
   23.2470   11.3150    8.1250 C   0  0  0  0  0  0  0  0  0  0  0  0
   23.3010   10.9600    9.4610 C   0  0  0  0  0  0  0  0  0  0  0  0
   23.3780   11.8800   10.4530 N   0  0  0  0  0  0  0  0  0  0  0  0
   23.4050   13.1900   10.0790 C   0  0  0  0  0  0  0  0  0  0  0  0
   23.4820   14.1370   11.1960 C   0  0  0  0  0  0  0  0  0  0  0  0
   22.3960   14.3080   12.0910 C   0  0  0  0  0  0  0  0  0  0  0  0
   22.4590   15.2010   13.1700 C   0  0  0  0  0  0  0  0  0  0  0  0
   23.6160   15.9350   13.3400 C   0  0  0  0  0  0  0  0  0  0  0  0
   24.6750   15.7870   12.4480 C   0  0  0  0  0  0  0  0  0  0  0  0
   24.6410   14.9100   11.3810 C   0  0  0  0  0  0  0  0  0  0  0  0
   25.7590   16.6770   12.8750 C   0  0  0  0  0  0  0  0  0  0  0  0
   26.8570   16.7430   12.3580 O   0  0  0  0  0  0  0  0  0  0  0  0
   25.2970   17.3700   13.9820 N   0  0  0  0  0  0  0  0  0  0  0  0
   26.1740   18.1990   14.8040 C   0  0  2  0  0  0  0  0  0  0  0  0
   25.9210   17.9470   16.2920 C   0  0  0  0  0  0  0  0  0  0  0  0
   26.9320   18.7180   17.1240 C   0  0  0  0  0  0  0  0  0  0  0  0
   26.8970   20.1910   16.8000 C   0  0  0  0  0  0  0  0  0  0  0  0
   27.1350   21.0570   17.6370 O   0  0  0  0  0  0  0  0  0  0  0  0
   26.6160   20.5260   15.4990 N   0  0  0  0  0  0  0  0  0  0  0  0
   26.0930   19.7080   14.5220 C   0  0  0  0  0  0  0  0  0  0  0  0
   25.6300   20.1990   13.4960 O   0  0  0  0  0  0  0  0  0  0  0  0
   23.9630   16.9420   14.3880 C   0  0  0  0  0  0  0  0  0  0  0  0
   20.9310   15.2400    9.4870 C   0  0  0  0  0  0  0  0  0  0  0  0
   19.7220   15.7560    9.4030 N   0  0  0  0  0  0  0  0  0  0  0  0
   18.8815   19.2845    8.7111 H   0  0  0  0  0  0  0  0  0  0  0  0
   19.7359   18.9616    7.1643 H   0  0  0  0  0  0  0  0  0  0  0  0
   17.9682   19.2812    7.1643 H   0  0  0  0  0  0  0  0  0  0  0  0
   17.7503   17.1907    8.6466 H   0  0  0  0  0  0  0  0  0  0  0  0
   18.2038   16.9360    6.9061 H   0  0  0  0  0  0  0  0  0  0  0  0
   21.3221   17.0918    6.7978 H   0  0  0  0  0  0  0  0  0  0  0  0
   23.1875   10.5215    7.3655 H   0  0  0  0  0  0  0  0  0  0  0  0
   23.2807    9.8930    9.7275 H   0  0  0  0  0  0  0  0  0  0  0  0
   21.4775   13.7233   11.9344 H   0  0  0  0  0  0  0  0  0  0  0  0
   21.6109   15.3136   13.8614 H   0  0  0  0  0  0  0  0  0  0  0  0
   25.4967   14.8194   10.6958 H   0  0  0  0  0  0  0  0  0  0  0  0
   27.1914   17.8893   14.5231 H   0  0  0  0  0  0  0  0  0  0  0  0
   24.9051   18.2799   16.5512 H   0  0  0  0  0  0  0  0  0  0  0  0
   26.0234   16.8719   16.5007 H   0  0  0  0  0  0  0  0  0  0  0  0
   26.6990   18.5797   18.1901 H   0  0  0  0  0  0  0  0  0  0  0  0
   27.9369   18.3349   16.8931 H   0  0  0  0  0  0  0  0  0  0  0  0
   26.8188   21.4972   15.2225 H   0  0  0  0  0  0  0  0  0  0  0  0
   23.9789   16.4855   15.3887 H   0  0  0  0  0  0  0  0  0  0  0  0
   23.2398   17.7676   14.4606 H   0  0  0  0  0  0  0  0  0  0  0  0
   21.2537   14.5219   10.2552 H   0  0  0  0  0  0  0  0  0  0  0  0
  1  2  1  0
  2  3  1  0
  3  4  2  0
  4  5  1  0
  5  6  1  0
  6  7  2  0
  6  8  2  0
  6  9  1  0
  9 10  2  0
 10 11  1  0
 11 12  2  0
 12 13  1  0
 13 14  2  0
 14 15  1  0
 15 16  2  0
 16 17  1  0
 17 18  2  0
 18 19  1  0
 19 20  2  0
 19 21  1  0
 21 22  2  0
 21 23  1  0
 23 24  1  0
 24 25  1  0
 25 26  1  0
 26 27  1  0
 27 28  2  0
 27 29  1  0
 29 30  1  0
 30 31  2  0
 23 32  1  0
  5 33  1  0
 33 34  2  0
 34  3  1  0
 14  9  1  0
 20 15  1  0
 30 24  1  0
 32 18  1  0
  1 35  1  0
  1 36  1  0
  1 37  1  0
  2 38  1  0
  2 39  1  0
  4 40  1  0
 11 41  1  0
 12 42  1  0
 16 43  1  0
 17 44  1  0
 20 45  1  0
 24 46  1  6
 25 47  1  0
 25 48  1  0
 26 49  1  0
 26 50  1  0
 29 51  1  0
 32 52  1  0
 32 53  1  0
 33 54  1  0
M  END
>  <meeko>  (1076) 
{"is_sidechain": [true], "free_energy": -10.27, "intermolecular_energy": 0.0, "internal_energy": -10.27, "cluster_size": 20, "cluster_id": 1, "rank_in_cluster": 1}

>  <_RMSD_MCS_to_ref>  (1076) 
1.9770745925342428

$$$$
ligand
     RDKit          3D

 47 50  0  0  0  0  0  0  0  0999 V2000
   18.7970   18.8170    7.7190 C   0  0  0  0  0  0  0  0  0  0  0  0
   18.5280   17.3290    7.8810 C   0  0  0  0  0  0  0  0  0  0  0  0
   19.5950   16.4950    7.2640 C   0  0  0  0  0  0  0  0  0  0  0  0
   20.6640   15.8630    7.8690 C   0  0  0  0  0  0  0  0  0  0  0  0
   21.2970   15.2200    6.8440 N   0  0  0  0  0  0  0  0  0  0  0  0
   22.7810   14.4510    6.9360 S   0  0  0  0  0  6  0  0  0  0  0  0
   23.7090   15.2470    6.1580 O   0  0  0  0  0  0  0  0  0  0  0  0
   22.5330   13.0450    6.6820 O   0  0  0  0  0  0  0  0  0  0  0  0
   23.3590   14.5400    8.6170 C   0  0  0  0  0  0  0  0  0  0  0  0
   23.9810   15.5770    9.3060 C   0  0  0  0  0  0  0  0  0  0  0  0
   24.2250   15.1270   10.6180 C   0  0  0  0  0  0  0  0  0  0  0  0
   24.8060   15.7550   11.6670 N   0  0  0  0  0  0  0  0  0  0  0  0
   24.8700   14.9910   12.7980 C   0  0  0  0  0  0  0  0  0  0  0  0
   25.5120   15.6490   13.9840 C   0  0  0  0  0  0  0  0  0  0  0  0
   25.7830   15.0230   15.0020 O   0  0  0  0  0  0  0  0  0  0  0  0
   25.7770   16.9920   13.8250 N   0  0  0  0  0  0  0  0  0  0  0  0
   26.5360   17.7590   14.7970 C   0  0  2  0  0  0  0  0  0  0  0  0
   25.9330   17.6650   16.1950 C   0  0  0  0  0  0  0  0  0  0  0  0
   26.7580   18.5030   17.1590 C   0  0  0  0  0  0  0  0  0  0  0  0
   26.8640   19.9350   16.6900 C   0  0  0  0  0  0  0  0  0  0  0  0
   26.9230   20.8810   17.4690 O   0  0  0  0  0  0  0  0  0  0  0  0
   26.9260   20.1330   15.3330 N   0  0  0  0  0  0  0  0  0  0  0  0
   26.5680   19.2290   14.3630 C   0  0  0  0  0  0  0  0  0  0  0  0
   26.3120   19.6000   13.2190 O   0  0  0  0  0  0  0  0  0  0  0  0
   24.4020   13.6790   12.9220 C   0  0  0  0  0  0  0  0  0  0  0  0
   23.8070   13.0540   11.8250 C   0  0  0  0  0  0  0  0  0  0  0  0
   23.7410   13.8300   10.6760 C   0  0  0  0  0  0  0  0  0  0  0  0
   23.2170   13.4680    9.4790 O   0  0  0  0  0  0  0  0  0  0  0  0
   20.6690   15.5180    5.6770 C   0  0  0  0  0  0  0  0  0  0  0  0
   19.6160   16.2770    5.9000 N   0  0  0  0  0  0  0  0  0  0  0  0
   18.8815   19.2845    8.7111 H   0  0  0  0  0  0  0  0  0  0  0  0
   19.7359   18.9616    7.1643 H   0  0  0  0  0  0  0  0  0  0  0  0
   17.9682   19.2812    7.1643 H   0  0  0  0  0  0  0  0  0  0  0  0
   18.4706   17.0940    8.9541 H   0  0  0  0  0  0  0  0  0  0  0  0
   17.5814   17.0991    7.3700 H   0  0  0  0  0  0  0  0  0  0  0  0
   20.9419   15.8750    8.9333 H   0  0  0  0  0  0  0  0  0  0  0  0
   24.2355   16.5671    8.9000 H   0  0  0  0  0  0  0  0  0  0  0  0
   25.4231   17.4703   12.9843 H   0  0  0  0  0  0  0  0  0  0  0  0
   27.5526   17.3407   14.8377 H   0  0  0  0  0  0  0  0  0  0  0  0
   24.8992   18.0404   16.1747 H   0  0  0  0  0  0  0  0  0  0  0  0
   25.9351   16.6160   16.5260 H   0  0  0  0  0  0  0  0  0  0  0  0
   26.2795   18.4849   18.1493 H   0  0  0  0  0  0  0  0  0  0  0  0
   27.7714   18.0781   17.2083 H   0  0  0  0  0  0  0  0  0  0  0  0
   27.2745   21.0473   15.0114 H   0  0  0  0  0  0  0  0  0  0  0  0
   24.5021   13.1433   13.8775 H   0  0  0  0  0  0  0  0  0  0  0  0
   23.4200   12.0252   11.8677 H   0  0  0  0  0  0  0  0  0  0  0  0
   20.9945   15.1735    4.6843 H   0  0  0  0  0  0  0  0  0  0  0  0
  1  2  1  0
  2  3  1  0
  3  4  2  0
  4  5  1  0
  5  6  1  0
  6  7  2  0
  6  8  2  0
  6  9  1  0
  9 10  2  0
 10 11  1  0
 11 12  2  0
 12 13  1  0
 13 14  1  0
 14 15  2  0
 14 16  1  0
 16 17  1  0
 17 18  1  0
 18 19  1  0
 19 20  1  0
 20 21  2  0
 20 22  1  0
 22 23  1  0
 23 24  2  0
 13 25  2  0
 25 26  1  0
 26 27  2  0
 27 28  1  0
  5 29  1  0
 29 30  2  0
 30  3  1  0
 28  9  1  0
 27 11  1  0
 23 17  1  0
  1 31  1  0
  1 32  1  0
  1 33  1  0
  2 34  1  0
  2 35  1  0
  4 36  1  0
 10 37  1  0
 16 38  1  0
 17 39  1  1
 18 40  1  0
 18 41  1  0
 19 42  1  0
 19 43  1  0
 22 44  1  0
 25 45  1  0
 26 46  1  0
 29 47  1  0
M  END
>  <meeko>  (1077) 
{"is_sidechain": [true], "free_energy": -10.27, "intermolecular_energy": 0.0, "internal_energy": -10.27, "cluster_size": 14, "cluster_id": 1, "rank_in_cluster": 1}

>  <_RMSD_MCS_to_ref>  (1077) 
1.0053352674605627

$$$$
ligand
     RDKit          3D

 48 51  0  0  0  0  0  0  0  0999 V2000
   18.7970   18.8170    7.7190 C   0  0  0  0  0  0  0  0  0  0  0  0
   18.5280   17.3290    7.8810 C   0  0  0  0  0  0  0  0  0  0  0  0
   19.7790   16.5500    8.0850 C   0  0  0  0  0  0  0  0  0  0  0  0
   20.4900   16.3420    9.2510 C   0  0  0  0  0  0  0  0  0  0  0  0
   21.5470   15.5710    8.8620 N   0  0  0  0  0  0  0  0  0  0  0  0
   22.7870   15.0260    9.8500 S   0  0  0  0  0  6  0  0  0  0  0  0
   23.6220   14.2420    8.9580 O   0  0  0  0  0  0  0  0  0  0  0  0
   23.2950   16.1790   10.5650 O   0  0  0  0  0  0  0  0  0  0  0  0
   22.0880   13.9210   11.0370 C   0  0  0  0  0  0  0  0  0  0  0  0
   21.0110   13.1290   10.5990 C   0  0  0  0  0  0  0  0  0  0  0  0
   20.4130   12.2380   11.4750 C   0  0  0  0  0  0  0  0  0  0  0  0
   20.8960   12.1480   12.7750 C   0  0  0  0  0  0  0  0  0  0  0  0
   21.9640   12.9260   13.2070 C   0  0  0  0  0  0  0  0  0  0  0  0
   22.3830   12.8020   14.4720 N   0  0  0  0  0  0  0  0  0  0  0  0
   23.4210   13.5520   14.9210 N   0  0  0  0  0  0  0  0  0  0  0  0
   24.0130   14.4020   14.0660 C   0  0  0  0  0  0  0  0  0  0  0  0
   25.1490   15.2310   14.6010 C   0  0  0  0  0  0  0  0  0  0  0  0
   26.1610   14.7300   15.0820 O   0  0  0  0  0  0  0  0  0  0  0  0
   24.9710   16.5950   14.5190 N   0  0  0  0  0  0  0  0  0  0  0  0
   25.9500   17.5620   14.9820 C   0  0  2  0  0  0  0  0  0  0  0  0
   26.0190   17.6020   16.5050 C   0  0  0  0  0  0  0  0  0  0  0  0
   27.0220   18.6580   16.9410 C   0  0  0  0  0  0  0  0  0  0  0  0
   26.6770   20.0110   16.3660 C   0  0  0  0  0  0  0  0  0  0  0  0
   26.9340   21.0580   16.9540 O   0  0  0  0  0  0  0  0  0  0  0  0
   26.1030   20.0210   15.1210 N   0  0  0  0  0  0  0  0  0  0  0  0
   25.5720   18.9480   14.4460 C   0  0  0  0  0  0  0  0  0  0  0  0
   24.8690   19.1160   13.4500 O   0  0  0  0  0  0  0  0  0  0  0  0
   23.6420   14.5820   12.7700 N   0  0  0  0  0  0  0  0  0  0  0  0
   22.5990   13.8380   12.3360 C   0  0  0  0  0  0  0  0  0  0  0  0
   21.4180   15.2630    7.5470 C   0  0  0  0  0  0  0  0  0  0  0  0
   20.3830   15.8950    7.0280 N   0  0  0  0  0  0  0  0  0  0  0  0
   18.8815   19.2845    8.7111 H   0  0  0  0  0  0  0  0  0  0  0  0
   19.7359   18.9616    7.1643 H   0  0  0  0  0  0  0  0  0  0  0  0
   17.9682   19.2812    7.1643 H   0  0  0  0  0  0  0  0  0  0  0  0
   17.8724   17.1804    8.7517 H   0  0  0  0  0  0  0  0  0  0  0  0
   18.0536   16.9692    6.9561 H   0  0  0  0  0  0  0  0  0  0  0  0
   20.2578   16.7124   10.2604 H   0  0  0  0  0  0  0  0  0  0  0  0
   20.6453   13.2169    9.5653 H   0  0  0  0  0  0  0  0  0  0  0  0
   19.5699   11.6121   11.1471 H   0  0  0  0  0  0  0  0  0  0  0  0
   20.4230   11.4459   13.4774 H   0  0  0  0  0  0  0  0  0  0  0  0
   24.0955   16.9478   14.1067 H   0  0  0  0  0  0  0  0  0  0  0  0
   26.9406   17.2632   14.6085 H   0  0  0  0  0  0  0  0  0  0  0  0
   25.0268   17.8496   16.9103 H   0  0  0  0  0  0  0  0  0  0  0  0
   26.3354   16.6186   16.8829 H   0  0  0  0  0  0  0  0  0  0  0  0
   27.0190   18.7237   18.0390 H   0  0  0  0  0  0  0  0  0  0  0  0
   28.0164   18.3666   16.5719 H   0  0  0  0  0  0  0  0  0  0  0  0
   26.0657   20.9308   14.6396 H   0  0  0  0  0  0  0  0  0  0  0  0
   22.0818   14.5832    6.9927 H   0  0  0  0  0  0  0  0  0  0  0  0
  1  2  1  0
  2  3  1  0
  3  4  2  0
  4  5  1  0
  5  6  1  0
  6  7  2  0
  6  8  2  0
  6  9  1  0
  9 10  2  0
 10 11  1  0
 11 12  2  0
 12 13  1  0
 13 14  2  0
 14 15  1  0
 15 16  2  0
 16 17  1  0
 17 18  2  0
 17 19  1  0
 19 20  1  0
 20 21  1  0
 21 22  1  0
 22 23  1  0
 23 24  2  0
 23 25  1  0
 25 26  1  0
 26 27  2  0
 16 28  1  0
 28 29  2  0
  5 30  1  0
 30 31  2  0
 31  3  1  0
 29  9  1  0
 29 13  1  0
 26 20  1  0
  1 32  1  0
  1 33  1  0
  1 34  1  0
  2 35  1  0
  2 36  1  0
  4 37  1  0
 10 38  1  0
 11 39  1  0
 12 40  1  0
 19 41  1  0
 20 42  1  6
 21 43  1  0
 21 44  1  0
 22 45  1  0
 22 46  1  0
 25 47  1  0
 30 48  1  0
M  END
>  <meeko>  (1078) 
{"is_sidechain": [true], "free_energy": -10.27, "intermolecular_energy": 0.0, "internal_energy": -10.27, "cluster_size": 14, "cluster_id": 1, "rank_in_cluster": 1}

>  <_RMSD_MCS_to_ref>  (1078) 
0.7897790830352495

$$$$
ligand
     RDKit          3D

 49 52  0  0  0  0  0  0  0  0999 V2000
   18.7970   18.8170    7.7190 C   0  0  0  0  0  0  0  0  0  0  0  0
   18.5280   17.3290    7.8810 C   0  0  0  0  0  0  0  0  0  0  0  0
   19.7780   16.5550    8.1110 C   0  0  0  0  0  0  0  0  0  0  0  0
   19.9780   15.4380    8.8970 C   0  0  0  0  0  0  0  0  0  0  0  0
   21.3060   15.1550    8.7440 N   0  0  0  0  0  0  0  0  0  0  0  0
   22.0840   13.8030    9.3630 S   0  0  0  0  0  6  0  0  0  0  0  0
   21.0040   12.9840    9.8820 O   0  0  0  0  0  0  0  0  0  0  0  0
   22.9910   13.2990    8.3530 O   0  0  0  0  0  0  0  0  0  0  0  0
   23.0230   14.3440   10.7330 C   0  0  0  0  0  0  0  0  0  0  0  0
   23.3490   15.6830   10.8520 C   0  0  0  0  0  0  0  0  0  0  0  0
   24.0650   16.2040   11.8910 N   0  0  0  0  0  0  0  0  0  0  0  0
   24.4670   15.3520   12.8790 C   0  0  0  0  0  0  0  0  0  0  0  0
   25.2460   15.9560   14.0050 C   0  0  0  0  0  0  0  0  0  0  0  0
   25.6140   15.2830   14.9600 O   0  0  0  0  0  0  0  0  0  0  0  0
   25.5130   17.2970   13.8640 N   0  0  0  0  0  0  0  0  0  0  0  0
   26.3780   18.0260   14.7740 C   0  0  2  0  0  0  0  0  0  0  0  0
   25.9470   17.8570   16.2270 C   0  0  0  0  0  0  0  0  0  0  0  0
   26.8750   18.6590   17.1270 C   0  0  0  0  0  0  0  0  0  0  0  0
   26.9160   20.1130   16.7180 C   0  0  0  0  0  0  0  0  0  0  0  0
   27.0630   21.0220   17.5300 O   0  0  0  0  0  0  0  0  0  0  0  0
   26.8130   20.3770   15.3760 N   0  0  0  0  0  0  0  0  0  0  0  0
   26.3520   19.5140   14.4110 C   0  0  0  0  0  0  0  0  0  0  0  0
   25.9630   19.9340   13.3210 O   0  0  0  0  0  0  0  0  0  0  0  0
   24.1760   14.0120   12.8390 C   0  0  0  0  0  0  0  0  0  0  0  0
   23.4500   13.5240   11.7520 C   0  0  0  0  0  0  0  0  0  0  0  0
   23.2830   12.0860   11.9650 C   0  0  0  0  0  0  0  0  0  0  0  0
   22.7210   11.3250   11.2120 O   0  0  0  0  0  0  0  0  0  0  0  0
   23.9010   11.7790   13.1520 N   0  0  0  0  0  0  0  0  0  0  0  0
   24.5030   12.9230   13.7970 C   0  0  0  0  0  0  0  0  0  0  0  0
   21.8530   16.0380    7.8710 C   0  0  0  0  0  0  0  0  0  0  0  0
   20.9500   16.9140    7.4770 N   0  0  0  0  0  0  0  0  0  0  0  0
   18.8815   19.2845    8.7111 H   0  0  0  0  0  0  0  0  0  0  0  0
   19.7359   18.9616    7.1643 H   0  0  0  0  0  0  0  0  0  0  0  0
   17.9682   19.2812    7.1643 H   0  0  0  0  0  0  0  0  0  0  0  0
   17.8566   17.1815    8.7398 H   0  0  0  0  0  0  0  0  0  0  0  0
   18.0709   16.9644    6.9492 H   0  0  0  0  0  0  0  0  0  0  0  0
   19.2379   14.8992    9.5068 H   0  0  0  0  0  0  0  0  0  0  0  0
   23.0109   16.3694   10.0617 H   0  0  0  0  0  0  0  0  0  0  0  0
   25.0812   17.8061   13.0796 H   0  0  0  0  0  0  0  0  0  0  0  0
   27.3949   17.6190   14.6729 H   0  0  0  0  0  0  0  0  0  0  0  0
   24.9154   18.2191   16.3481 H   0  0  0  0  0  0  0  0  0  0  0  0
   25.9967   16.7934   16.5032 H   0  0  0  0  0  0  0  0  0  0  0  0
   26.5167   18.5887   18.1646 H   0  0  0  0  0  0  0  0  0  0  0  0
   27.8898   18.2444   17.0365 H   0  0  0  0  0  0  0  0  0  0  0  0
   27.1096   21.3118   15.0613 H   0  0  0  0  0  0  0  0  0  0  0  0
   23.9323   10.8270   13.5439 H   0  0  0  0  0  0  0  0  0  0  0  0
   24.0552   13.1090   14.7844 H   0  0  0  0  0  0  0  0  0  0  0  0
   25.5789   12.8100   13.9961 H   0  0  0  0  0  0  0  0  0  0  0  0
   22.9016   16.0248    7.5390 H   0  0  0  0  0  0  0  0  0  0  0  0
  1  2  1  0
  2  3  1  0
  3  4  2  0
  4  5  1  0
  5  6  1  0
  6  7  2  0
  6  8  2  0
  6  9  1  0
  9 10  2  0
 10 11  1  0
 11 12  2  0
 12 13  1  0
 13 14  2  0
 13 15  1  0
 15 16  1  0
 16 17  1  0
 17 18  1  0
 18 19  1  0
 19 20  2  0
 19 21  1  0
 21 22  1  0
 22 23  2  0
 12 24  1  0
 24 25  2  0
 25 26  1  0
 26 27  2  0
 26 28  1  0
 28 29  1  0
  5 30  1  0
 30 31  2  0
 31  3  1  0
 25  9  1  0
 22 16  1  0
 29 24  1  0
  1 32  1  0
  1 33  1  0
  1 34  1  0
  2 35  1  0
  2 36  1  0
  4 37  1  0
 10 38  1  0
 15 39  1  0
 16 40  1  1
 17 41  1  0
 17 42  1  0
 18 43  1  0
 18 44  1  0
 21 45  1  0
 28 46  1  0
 29 47  1  0
 29 48  1  0
 30 49  1  0
M  END
>  <meeko>  (1079) 
{"is_sidechain": [true], "free_energy": -10.27, "intermolecular_energy": 0.0, "internal_energy": -10.27, "cluster_size": 15, "cluster_id": 1, "rank_in_cluster": 1}

>  <_RMSD_MCS_to_ref>  (1079) 
0.8119421161634616

$$$$
ligand
     RDKit          3D

 47 50  0  0  0  0  0  0  0  0999 V2000
   18.7970   18.8170    7.7190 C   0  0  0  0  0  0  0  0  0  0  0  0
   18.5280   17.3290    7.8810 C   0  0  0  0  0  0  0  0  0  0  0  0
   19.6140   16.4950    7.2960 C   0  0  0  0  0  0  0  0  0  0  0  0
   20.8600   16.2060    7.8120 C   0  0  0  0  0  0  0  0  0  0  0  0
   21.4440   15.4220    6.8570 N   0  0  0  0  0  0  0  0  0  0  0  0
   22.8900   14.5820    7.0250 S   0  0  0  0  0  6  0  0  0  0  0  0
   23.9290   15.4880    6.5760 O   0  0  0  0  0  0  0  0  0  0  0  0
   22.6700   13.2870    6.4140 O   0  0  0  0  0  0  0  0  0  0  0  0
   23.0440   14.3690    8.7780 C   0  0  0  0  0  0  0  0  0  0  0  0
   22.2660   13.4090    9.4250 C   0  0  0  0  0  0  0  0  0  0  0  0
   22.3720   13.2320   10.8090 C   0  0  0  0  0  0  0  0  0  0  0  0
   23.2680   14.0490   11.5180 C   0  0  0  0  0  0  0  0  0  0  0  0
   23.6150   14.0670   13.2050 S   0  0  0  0  0  0  0  0  0  0  0  0
   24.7340   15.3350   12.9580 C   0  0  0  0  0  0  0  0  0  0  0  0
   25.4840   15.9090   14.0710 C   0  0  0  0  0  0  0  0  0  0  0  0
   25.9530   15.2730   15.0140 O   0  0  0  0  0  0  0  0  0  0  0  0
   25.6450   17.2780   13.9800 N   0  0  0  0  0  0  0  0  0  0  0  0
   26.4920   18.0290   14.8880 C   0  0  2  0  0  0  0  0  0  0  0  0
   26.0620   17.8610   16.3420 C   0  0  0  0  0  0  0  0  0  0  0  0
   26.9680   18.6890   17.2390 C   0  0  0  0  0  0  0  0  0  0  0  0
   26.9770   20.1410   16.8190 C   0  0  0  0  0  0  0  0  0  0  0  0
   27.0990   21.0580   17.6250 O   0  0  0  0  0  0  0  0  0  0  0  0
   26.8740   20.3930   15.4740 N   0  0  0  0  0  0  0  0  0  0  0  0
   26.4300   19.5140   14.5160 C   0  0  0  0  0  0  0  0  0  0  0  0
   26.0290   19.9160   13.4250 O   0  0  0  0  0  0  0  0  0  0  0  0
   24.8770   15.7520   11.7140 N   0  0  0  0  0  0  0  0  0  0  0  0
   24.0430   15.0240   10.8840 C   0  0  0  0  0  0  0  0  0  0  0  0
   23.9270   15.1910    9.4900 C   0  0  0  0  0  0  0  0  0  0  0  0
   20.5600   15.2190    5.8470 C   0  0  0  0  0  0  0  0  0  0  0  0
   19.4380   15.8670    6.0780 N   0  0  0  0  0  0  0  0  0  0  0  0
   18.8815   19.2845    8.7111 H   0  0  0  0  0  0  0  0  0  0  0  0
   19.7359   18.9616    7.1643 H   0  0  0  0  0  0  0  0  0  0  0  0
   17.9682   19.2812    7.1643 H   0  0  0  0  0  0  0  0  0  0  0  0
   18.4430   17.0989    8.9533 H   0  0  0  0  0  0  0  0  0  0  0  0
   17.5959   17.0938    7.3464 H   0  0  0  0  0  0  0  0  0  0  0  0
   21.2861   16.5319    8.7723 H   0  0  0  0  0  0  0  0  0  0  0  0
   21.5666   12.7888    8.8452 H   0  0  0  0  0  0  0  0  0  0  0  0
   21.7691   12.4725   11.3284 H   0  0  0  0  0  0  0  0  0  0  0  0
   25.1436   17.7863   13.2376 H   0  0  0  0  0  0  0  0  0  0  0  0
   27.5174   17.6424   14.7922 H   0  0  0  0  0  0  0  0  0  0  0  0
   25.0221   18.2004   16.4581 H   0  0  0  0  0  0  0  0  0  0  0  0
   26.1363   16.8007   16.6254 H   0  0  0  0  0  0  0  0  0  0  0  0
   26.6078   18.6180   18.2759 H   0  0  0  0  0  0  0  0  0  0  0  0
   27.9923   18.2967   17.1556 H   0  0  0  0  0  0  0  0  0  0  0  0
   27.1563   21.3298   15.1522 H   0  0  0  0  0  0  0  0  0  0  0  0
   24.5211   15.9557    8.9682 H   0  0  0  0  0  0  0  0  0  0  0  0
   20.7544   14.5993    4.9592 H   0  0  0  0  0  0  0  0  0  0  0  0
  1  2  1  0
  2  3  1  0
  3  4  2  0
  4  5  1  0
  5  6  1  0
  6  7  2  0
  6  8  2  0
  6  9  1  0
  9 10  2  0
 10 11  1  0
 11 12  2  0
 12 13  1  0
 13 14  1  0
 14 15  1  0
 15 16  2  0
 15 17  1  0
 17 18  1  0
 18 19  1  0
 19 20  1  0
 20 21  1  0
 21 22  2  0
 21 23  1  0
 23 24  1  0
 24 25  2  0
 14 26  2  0
 26 27  1  0
 27 28  2  0
  5 29  1  0
 29 30  2  0
 30  3  1  0
 28  9  1  0
 27 12  1  0
 24 18  1  0
  1 31  1  0
  1 32  1  0
  1 33  1  0
  2 34  1  0
  2 35  1  0
  4 36  1  0
 10 37  1  0
 11 38  1  0
 17 39  1  0
 18 40  1  1
 19 41  1  0
 19 42  1  0
 20 43  1  0
 20 44  1  0
 23 45  1  0
 28 46  1  0
 29 47  1  0
M  END
>  <meeko>  (1080) 
{"is_sidechain": [true], "free_energy": -10.27, "intermolecular_energy": 0.0, "internal_energy": -10.27, "cluster_size": 19, "cluster_id": 1, "rank_in_cluster": 1}

>  <_RMSD_MCS_to_ref>  (1080) 
0.8857319634692599

$$$$
ligand
     RDKit          3D

 51 55  0  0  0  0  0  0  0  0999 V2000
   18.9090   19.1540    7.5370 C   0  0  0  0  0  0  0  0  0  0  0  0
   18.7730   17.6460    7.6780 C   0  0  0  0  0  0  0  0  0  0  0  0
   20.0830   16.9840    7.9210 C   0  0  0  0  0  0  0  0  0  0  0  0
   21.1710   16.8740    7.0760 C   0  0  0  0  0  0  0  0  0  0  0  0
   22.0860   16.1640    7.8000 N   0  0  0  0  0  0  0  0  0  0  0  0
   23.6680   15.8490    7.3550 S   0  0  0  0  0  6  0  0  0  0  0  0
   23.6610   15.6820    5.9140 O   0  0  0  0  0  0  0  0  0  0  0  0
   24.4910   16.8360    8.0290 O   0  0  0  0  0  0  0  0  0  0  0  0
   24.1690   14.3290    7.9890 C   0  0  0  0  0  0  0  0  0  0  0  0
   24.5090   13.2980    7.2010 N   0  0  0  0  0  0  0  0  0  0  0  0
   24.8770   12.2810    8.0670 O   0  0  0  0  0  0  0  0  0  0  0  0
   24.7560   12.7100    9.3470 C   0  0  0  0  0  0  0  0  0  0  0  0
   24.3020   14.0080    9.3620 C   0  0  0  0  0  0  0  0  0  0  0  0
   24.0650   14.7690   10.5700 C   0  0  0  0  0  0  0  0  0  0  0  0
   22.9250   14.4960   11.3650 C   0  0  0  0  0  0  0  0  0  0  0  0
   22.6660   15.2220   12.5350 C   0  0  0  0  0  0  0  0  0  0  0  0
   23.5650   16.2130   12.8730 C   0  0  0  0  0  0  0  0  0  0  0  0
   24.6790   16.4820   12.1030 C   0  0  0  0  0  0  0  0  0  0  0  0
   24.9630   15.7780   10.9470 C   0  0  0  0  0  0  0  0  0  0  0  0
   25.4130   17.5650   12.7520 C   0  0  0  0  0  0  0  0  0  0  0  0
   26.4790   17.9940   12.3540 O   0  0  0  0  0  0  0  0  0  0  0  0
   24.6860   17.9300   13.8520 N   0  0  0  0  0  0  0  0  0  0  0  0
   25.1300   18.8670   14.8720 C   0  0  2  0  0  0  0  0  0  0  0  0
   25.9710   20.0240   14.3400 C   0  0  0  0  0  0  0  0  0  0  0  0
   26.3390   20.9460   15.4920 C   0  0  0  0  0  0  0  0  0  0  0  0
   27.0570   20.1940   16.5890 C   0  0  0  0  0  0  0  0  0  0  0  0
   27.8690   20.7370   17.3330 O   0  0  0  0  0  0  0  0  0  0  0  0
   26.7160   18.8750   16.7560 N   0  0  0  0  0  0  0  0  0  0  0  0
   25.9040   18.1060   15.9530 C   0  0  0  0  0  0  0  0  0  0  0  0
   25.7920   16.8980   16.1540 O   0  0  0  0  0  0  0  0  0  0  0  0
   23.5880   17.1280   14.0130 C   0  0  0  0  0  0  0  0  0  0  0  0
   22.7640   17.1300   14.9080 O   0  0  0  0  0  0  0  0  0  0  0  0
   21.5810   15.9160    9.0360 C   0  0  0  0  0  0  0  0  0  0  0  0
   20.3530   16.3810    9.1350 N   0  0  0  0  0  0  0  0  0  0  0  0
   18.9504   19.6134    8.5356 H   0  0  0  0  0  0  0  0  0  0  0  0
   19.8320   19.3891    6.9867 H   0  0  0  0  0  0  0  0  0  0  0  0
   18.0430   19.5504    6.9867 H   0  0  0  0  0  0  0  0  0  0  0  0
   18.1038   17.4282    8.5234 H   0  0  0  0  0  0  0  0  0  0  0  0
   18.3663   17.2538    6.7342 H   0  0  0  0  0  0  0  0  0  0  0  0
   21.2760   17.2680    6.0544 H   0  0  0  0  0  0  0  0  0  0  0  0
   24.9864   12.1100   10.2397 H   0  0  0  0  0  0  0  0  0  0  0  0
   22.2306   13.6998   11.0584 H   0  0  0  0  0  0  0  0  0  0  0  0
   21.7839   15.0111   13.1575 H   0  0  0  0  0  0  0  0  0  0  0  0
   25.8577   16.0007   10.3471 H   0  0  0  0  0  0  0  0  0  0  0  0
   24.2227   19.3295   15.2878 H   0  0  0  0  0  0  0  0  0  0  0  0
   26.8877   19.6300   13.8769 H   0  0  0  0  0  0  0  0  0  0  0  0
   25.3956   20.5838   13.5880 H   0  0  0  0  0  0  0  0  0  0  0  0
   26.9953   21.7447   15.1162 H   0  0  0  0  0  0  0  0  0  0  0  0
   25.4126   21.3677   15.9089 H   0  0  0  0  0  0  0  0  0  0  0  0
   27.1153   18.4043   17.5806 H   0  0  0  0  0  0  0  0  0  0  0  0
   22.1222   15.3988    9.8420 H   0  0  0  0  0  0  0  0  0  0  0  0
  1  2  1  0
  2  3  1  0
  3  4  2  0
  4  5  1  0
  5  6  1  0
  6  7  2  0
  6  8  2  0
  6  9  1  0
  9 10  2  0
 10 11  1  0
 11 12  1  0
 12 13  2  0
 13 14  1  0
 14 15  2  0
 15 16  1  0
 16 17  2  0
 17 18  1  0
 18 19  2  0
 18 20  1  0
 20 21  2  0
 20 22  1  0
 22 23  1  0
 23 24  1  0
 24 25  1  0
 25 26  1  0
 26 27  2  0
 26 28  1  0
 28 29  1  0
 29 30  2  0
 22 31  1  0
 31 32  2  0
  5 33  1  0
 33 34  2  0
 34  3  1  0
 13  9  1  0
 19 14  1  0
 29 23  1  0
 31 17  1  0
  1 35  1  0
  1 36  1  0
  1 37  1  0
  2 38  1  0
  2 39  1  0
  4 40  1  0
 12 41  1  0
 15 42  1  0
 16 43  1  0
 19 44  1  0
 23 45  1  1
 24 46  1  0
 24 47  1  0
 25 48  1  0
 25 49  1  0
 28 50  1  0
 33 51  1  0
M  END
>  <meeko>  (1081) 
{"is_sidechain": [true], "free_energy": -10.27, "intermolecular_energy": 0.0, "internal_energy": -10.27, "cluster_size": 20, "cluster_id": 1, "rank_in_cluster": 1}

>  <_RMSD_MCS_to_ref>  (1081) 
1.7510023144653912

$$$$
ligand
     RDKit          3D

 47 50  0  0  0  0  0  0  0  0999 V2000
   18.9090   19.1540    7.5370 C   0  0  0  0  0  0  0  0  0  0  0  0
   18.7730   17.6460    7.6780 C   0  0  0  0  0  0  0  0  0  0  0  0
   20.0900   16.9570    7.7700 C   0  0  0  0  0  0  0  0  0  0  0  0
   20.8950   16.7770    8.8770 C   0  0  0  0  0  0  0  0  0  0  0  0
   21.9690   16.0790    8.4030 N   0  0  0  0  0  0  0  0  0  0  0  0
   23.1760   15.3590    9.3150 S   0  0  0  0  0  6  0  0  0  0  0  0
   23.8360   14.4340    8.4150 O   0  0  0  0  0  0  0  0  0  0  0  0
   23.8840   16.4290    9.9950 O   0  0  0  0  0  0  0  0  0  0  0  0
   22.4180   14.4040   10.5670 C   0  0  0  0  0  0  0  0  0  0  0  0
   21.5870   13.3720   10.3170 N   0  0  0  0  0  0  0  0  0  0  0  0
   21.2160   12.9470   11.5340 N   0  0  0  0  0  0  0  0  0  0  0  0
   21.7480   13.6810   12.5540 C   0  0  0  0  0  0  0  0  0  0  0  0
   22.5480   14.6360   11.9640 C   0  0  0  0  0  0  0  0  0  0  0  0
   23.2880   15.6190   12.7190 C   0  0  0  0  0  0  0  0  0  0  0  0
   22.6290   16.4840   13.5920 C   0  0  0  0  0  0  0  0  0  0  0  0
   23.3560   17.3980   14.3660 C   0  0  0  0  0  0  0  0  0  0  0  0
   24.7560   17.4650   14.2900 C   0  0  0  0  0  0  0  0  0  0  0  0
   25.5040   18.3870   15.0960 N   0  0  0  0  0  0  0  0  0  0  0  0
   26.3250   17.8840   16.1930 C   0  0  0  0  0  0  0  0  0  0  0  0
   26.3050   18.8430   17.3660 C   0  0  0  0  0  0  0  0  0  0  0  0
   26.7010   20.2070   16.8940 C   0  0  0  0  0  0  0  0  0  0  0  0
   27.1700   21.0550   17.6490 O   0  0  0  0  0  0  0  0  0  0  0  0
   26.4240   20.4870   15.5850 N   0  0  0  0  0  0  0  0  0  0  0  0
   25.6650   19.7270   14.7260 C   0  0  0  0  0  0  0  0  0  0  0  0
   25.2130   20.2680   13.7200 O   0  0  0  0  0  0  0  0  0  0  0  0
   25.3970   16.6040   13.3890 C   0  0  0  0  0  0  0  0  0  0  0  0
   24.6760   15.6920   12.6090 C   0  0  0  0  0  0  0  0  0  0  0  0
   21.7990   15.8490    7.0760 C   0  0  0  0  0  0  0  0  0  0  0  0
   20.6700   16.3810    6.6550 N   0  0  0  0  0  0  0  0  0  0  0  0
   18.9504   19.6134    8.5356 H   0  0  0  0  0  0  0  0  0  0  0  0
   19.8320   19.3891    6.9867 H   0  0  0  0  0  0  0  0  0  0  0  0
   18.0430   19.5504    6.9867 H   0  0  0  0  0  0  0  0  0  0  0  0
   18.1973   17.4282    8.5896 H   0  0  0  0  0  0  0  0  0  0  0  0
   18.2644   17.2723    6.7771 H   0  0  0  0  0  0  0  0  0  0  0  0
   20.7128   17.1182    9.9068 H   0  0  0  0  0  0  0  0  0  0  0  0
   20.5894   12.1434   11.6842 H   0  0  0  0  0  0  0  0  0  0  0  0
   21.5735   13.5391   13.6308 H   0  0  0  0  0  0  0  0  0  0  0  0
   21.5326   16.4485   13.6734 H   0  0  0  0  0  0  0  0  0  0  0  0
   22.8195   18.0759   15.0461 H   0  0  0  0  0  0  0  0  0  0  0  0
   25.9336   16.9088   16.5182 H   0  0  0  0  0  0  0  0  0  0  0  0
   27.3615   17.7828   15.8390 H   0  0  0  0  0  0  0  0  0  0  0  0
   25.2918   18.8812   17.7926 H   0  0  0  0  0  0  0  0  0  0  0  0
   27.0111   18.4992   18.1362 H   0  0  0  0  0  0  0  0  0  0  0  0
   26.8245   21.3557   15.2031 H   0  0  0  0  0  0  0  0  0  0  0  0
   26.4920   16.6457   13.2924 H   0  0  0  0  0  0  0  0  0  0  0  0
   25.2061   15.0311   11.9074 H   0  0  0  0  0  0  0  0  0  0  0  0
   22.5059   15.2953    6.4406 H   0  0  0  0  0  0  0  0  0  0  0  0
  1  2  1  0
  2  3  1  0
  3  4  2  0
  4  5  1  0
  5  6  1  0
  6  7  2  0
  6  8  2  0
  6  9  1  0
  9 10  2  0
 10 11  1  0
 11 12  1  0
 12 13  2  0
 13 14  1  0
 14 15  2  0
 15 16  1  0
 16 17  2  0
 17 18  1  0
 18 19  1  0
 19 20  1  0
 20 21  1  0
 21 22  2  0
 21 23  1  0
 23 24  1  0
 24 25  2  0
 17 26  1  0
 26 27  2  0
  5 28  1  0
 28 29  2  0
 29  3  1  0
 13  9  1  0
 27 14  1  0
 24 18  1  0
  1 30  1  0
  1 31  1  0
  1 32  1  0
  2 33  1  0
  2 34  1  0
  4 35  1  0
 11 36  1  0
 12 37  1  0
 15 38  1  0
 16 39  1  0
 19 40  1  0
 19 41  1  0
 20 42  1  0
 20 43  1  0
 23 44  1  0
 26 45  1  0
 27 46  1  0
 28 47  1  0
M  END
>  <meeko>  (1082) 
{"is_sidechain": [true], "free_energy": -10.27, "intermolecular_energy": 0.0, "internal_energy": -10.27, "cluster_size": 19, "cluster_id": 1, "rank_in_cluster": 1}

>  <_RMSD_MCS_to_ref>  (1082) 
0.6297995712923279

$$$$
ligand
     RDKit          3D

 48 51  0  0  0  0  0  0  0  0999 V2000
   18.9090   19.1540    7.5370 C   0  0  0  0  0  0  0  0  0  0  0  0
   18.7730   17.6460    7.6780 C   0  0  0  0  0  0  0  0  0  0  0  0
   19.8780   16.9180    6.9960 C   0  0  0  0  0  0  0  0  0  0  0  0
   20.8500   16.1050    7.5460 C   0  0  0  0  0  0  0  0  0  0  0  0
   21.5940   15.7040    6.4730 N   0  0  0  0  0  0  0  0  0  0  0  0
   22.8760   14.6290    6.5130 S   0  0  0  0  0  6  0  0  0  0  0  0
   23.4190   14.6070    5.1660 O   0  0  0  0  0  0  0  0  0  0  0  0
   22.4040   13.4320    7.1800 O   0  0  0  0  0  0  0  0  0  0  0  0
   24.1700   15.1870    7.4820 C   0  0  0  0  0  0  0  0  0  0  0  0
   25.4900   15.3160    7.0910 C   0  0  0  0  0  0  0  0  0  0  0  0
   26.2000   15.7800    8.1680 N   0  0  0  0  0  0  0  0  0  0  0  0
   25.3560   15.9540    9.2430 C   0  0  0  0  0  0  0  0  0  0  0  0
   25.6020   16.4020   10.5460 C   0  0  0  0  0  0  0  0  0  0  0  0
   24.4920   16.4530   11.3970 C   0  0  0  0  0  0  0  0  0  0  0  0
   24.5760   16.8990   12.8090 C   0  0  0  0  0  0  0  0  0  0  0  0
   23.9230   16.3320   13.6770 O   0  0  0  0  0  0  0  0  0  0  0  0
   25.3870   17.9810   13.0760 N   0  0  0  0  0  0  0  0  0  0  0  0
   25.4160   18.5900   14.4010 C   0  0  1  0  0  0  0  0  0  0  0  0
   26.3240   17.8370   15.3660 C   0  0  0  0  0  0  0  0  0  0  0  0
   26.3430   18.5550   16.7080 C   0  0  0  0  0  0  0  0  0  0  0  0
   26.7590   19.9990   16.5500 C   0  0  0  0  0  0  0  0  0  0  0  0
   27.4200   20.5910   17.3980 O   0  0  0  0  0  0  0  0  0  0  0  0
   26.3390   20.6390   15.4120 N   0  0  0  0  0  0  0  0  0  0  0  0
   25.9260   20.0270   14.2560 C   0  0  0  0  0  0  0  0  0  0  0  0
   25.9610   20.6120   13.1730 O   0  0  0  0  0  0  0  0  0  0  0  0
   23.2530   16.0440   10.9090 C   0  0  0  0  0  0  0  0  0  0  0  0
   23.0040   15.6130    9.6480 N   0  0  0  0  0  0  0  0  0  0  0  0
   24.0780   15.5770    8.8290 C   0  0  0  0  0  0  0  0  0  0  0  0
   21.0600   16.2280    5.3390 C   0  0  0  0  0  0  0  0  0  0  0  0
   20.0270   16.9930    5.6250 N   0  0  0  0  0  0  0  0  0  0  0  0
   18.9504   19.6134    8.5356 H   0  0  0  0  0  0  0  0  0  0  0  0
   19.8320   19.3891    6.9867 H   0  0  0  0  0  0  0  0  0  0  0  0
   18.0430   19.5504    6.9867 H   0  0  0  0  0  0  0  0  0  0  0  0
   18.7845   17.3872    8.7471 H   0  0  0  0  0  0  0  0  0  0  0  0
   17.8265   17.3455    7.2048 H   0  0  0  0  0  0  0  0  0  0  0  0
   20.9921   15.8413    8.6044 H   0  0  0  0  0  0  0  0  0  0  0  0
   25.8971   15.0874    6.0950 H   0  0  0  0  0  0  0  0  0  0  0  0
   27.2123   15.9700    8.1728 H   0  0  0  0  0  0  0  0  0  0  0  0
   26.6075   16.6964   10.8811 H   0  0  0  0  0  0  0  0  0  0  0  0
   25.9818   18.3655   12.3282 H   0  0  0  0  0  0  0  0  0  0  0  0
   24.3975   18.5602   14.8155 H   0  0  0  0  0  0  0  0  0  0  0  0
   25.9453   16.8134   15.5029 H   0  0  0  0  0  0  0  0  0  0  0  0
   27.3440   17.7983   14.9559 H   0  0  0  0  0  0  0  0  0  0  0  0
   25.3359   18.5180   17.1489 H   0  0  0  0  0  0  0  0  0  0  0  0
   27.0714   18.0524   17.3613 H   0  0  0  0  0  0  0  0  0  0  0  0
   26.3332   21.6689   15.4267 H   0  0  0  0  0  0  0  0  0  0  0  0
   22.4034   16.0733   11.6070 H   0  0  0  0  0  0  0  0  0  0  0  0
   21.4379   16.0395    4.3233 H   0  0  0  0  0  0  0  0  0  0  0  0
  1  2  1  0
  2  3  1  0
  3  4  2  0
  4  5  1  0
  5  6  1  0
  6  7  2  0
  6  8  2  0
  6  9  1  0
  9 10  2  0
 10 11  1  0
 11 12  1  0
 12 13  2  0
 13 14  1  0
 14 15  1  0
 15 16  2  0
 15 17  1  0
 17 18  1  0
 18 19  1  0
 19 20  1  0
 20 21  1  0
 21 22  2  0
 21 23  1  0
 23 24  1  0
 24 25  2  0
 14 26  2  0
 26 27  1  0
 27 28  2  0
  5 29  1  0
 29 30  2  0
 30  3  1  0
 28  9  1  0
 28 12  1  0
 24 18  1  0
  1 31  1  0
  1 32  1  0
  1 33  1  0
  2 34  1  0
  2 35  1  0
  4 36  1  0
 10 37  1  0
 11 38  1  0
 13 39  1  0
 17 40  1  0
 18 41  1  1
 19 42  1  0
 19 43  1  0
 20 44  1  0
 20 45  1  0
 23 46  1  0
 26 47  1  0
 29 48  1  0
M  END
>  <meeko>  (1083) 
{"is_sidechain": [true], "free_energy": -10.27, "intermolecular_energy": 0.0, "internal_energy": -10.27, "cluster_size": 20, "cluster_id": 1, "rank_in_cluster": 1}

>  <_RMSD_MCS_to_ref>  (1083) 
0.7237340671821381

$$$$
ligand
     RDKit          3D

 47 50  0  0  0  0  0  0  0  0999 V2000
   18.9090   19.1540    7.5370 C   0  0  0  0  0  0  0  0  0  0  0  0
   18.7730   17.6460    7.6780 C   0  0  0  0  0  0  0  0  0  0  0  0
   20.0080   16.9290    7.2600 C   0  0  0  0  0  0  0  0  0  0  0  0
   21.1930   16.7640    7.9490 C   0  0  0  0  0  0  0  0  0  0  0  0
   21.9810   16.0480    7.0950 N   0  0  0  0  0  0  0  0  0  0  0  0
   23.4630   15.3510    7.4710 S   0  0  0  0  0  6  0  0  0  0  0  0
   24.4690   16.1880    6.8460 O   0  0  0  0  0  0  0  0  0  0  0  0
   23.3240   13.9410    7.1670 O   0  0  0  0  0  0  0  0  0  0  0  0
   23.5800   15.5500    9.2370 C   0  0  0  0  0  0  0  0  0  0  0  0
   24.6090   16.4100    9.7510 C   0  0  0  0  0  0  0  0  0  0  0  0
   24.8050   16.6470   11.1270 C   0  0  0  0  0  0  0  0  0  0  0  0
   23.8860   15.9390   11.9000 C   0  0  0  0  0  0  0  0  0  0  0  0
   23.7890   15.9330   13.2660 C   0  0  0  0  0  0  0  0  0  0  0  0
   24.5190   16.5930   14.3210 C   0  0  0  0  0  0  0  0  0  0  0  0
   25.1310   15.9970   15.2040 O   0  0  0  0  0  0  0  0  0  0  0  0
   24.4810   17.9690   14.2820 N   0  0  0  0  0  0  0  0  0  0  0  0
   25.0430   18.7890   15.3450 C   0  0  1  0  0  0  0  0  0  0  0  0
   26.1810   18.0840   16.0750 C   0  0  0  0  0  0  0  0  0  0  0  0
   26.7420   19.0050   17.1490 C   0  0  0  0  0  0  0  0  0  0  0  0
   27.1820   20.3260   16.5640 C   0  0  0  0  0  0  0  0  0  0  0  0
   28.1390   20.9550   17.0040 O   0  0  0  0  0  0  0  0  0  0  0  0
   26.4340   20.8150   15.5220 N   0  0  0  0  0  0  0  0  0  0  0  0
   25.5730   20.0920   14.7370 C   0  0  0  0  0  0  0  0  0  0  0  0
   25.2460   20.4860   13.6180 O   0  0  0  0  0  0  0  0  0  0  0  0
   22.7560   15.1020   13.6010 O   0  0  0  0  0  0  0  0  0  0  0  0
   22.1760   14.5640   12.4670 N   0  0  0  0  0  0  0  0  0  0  0  0
   22.8490   15.0590   11.4170 C   0  0  0  0  0  0  0  0  0  0  0  0
   22.6670   14.8330   10.0440 C   0  0  0  0  0  0  0  0  0  0  0  0
   21.2750   15.7650    5.9690 C   0  0  0  0  0  0  0  0  0  0  0  0
   20.0720   16.2950    6.0350 N   0  0  0  0  0  0  0  0  0  0  0  0
   18.9504   19.6134    8.5356 H   0  0  0  0  0  0  0  0  0  0  0  0
   19.8320   19.3891    6.9867 H   0  0  0  0  0  0  0  0  0  0  0  0
   18.0430   19.5504    6.9867 H   0  0  0  0  0  0  0  0  0  0  0  0
   18.5632   17.4061    8.7308 H   0  0  0  0  0  0  0  0  0  0  0  0
   17.9534   17.3179    7.0218 H   0  0  0  0  0  0  0  0  0  0  0  0
   21.4447   17.1268    8.9565 H   0  0  0  0  0  0  0  0  0  0  0  0
   25.2782   16.9092    9.0348 H   0  0  0  0  0  0  0  0  0  0  0  0
   25.5836   17.3064   11.5381 H   0  0  0  0  0  0  0  0  0  0  0  0
   24.0407   18.4328   13.4746 H   0  0  0  0  0  0  0  0  0  0  0  0
   24.2460   18.9871   16.0769 H   0  0  0  0  0  0  0  0  0  0  0  0
   25.8020   17.1634   16.5428 H   0  0  0  0  0  0  0  0  0  0  0  0
   26.9755   17.8304   15.3577 H   0  0  0  0  0  0  0  0  0  0  0  0
   25.9645   19.1891   17.9050 H   0  0  0  0  0  0  0  0  0  0  0  0
   27.6176   18.5171   17.6021 H   0  0  0  0  0  0  0  0  0  0  0  0
   26.5283   21.8185   15.3101 H   0  0  0  0  0  0  0  0  0  0  0  0
   21.8928   14.1659    9.6371 H   0  0  0  0  0  0  0  0  0  0  0  0
   21.6553   15.1758    5.1215 H   0  0  0  0  0  0  0  0  0  0  0  0
  1  2  1  0
  2  3  1  0
  3  4  2  0
  4  5  1  0
  5  6  1  0
  6  7  2  0
  6  8  2  0
  6  9  1  0
  9 10  1  0
 10 11  2  0
 11 12  1  0
 12 13  2  0
 13 14  1  0
 14 15  2  0
 14 16  1  0
 16 17  1  0
 17 18  1  0
 18 19  1  0
 19 20  1  0
 20 21  2  0
 20 22  1  0
 22 23  1  0
 23 24  2  0
 13 25  1  0
 25 26  1  0
 26 27  2  0
 27 28  1  0
  5 29  1  0
 29 30  2  0
 30  3  1  0
 28  9  2  0
 27 12  1  0
 23 17  1  0
  1 31  1  0
  1 32  1  0
  1 33  1  0
  2 34  1  0
  2 35  1  0
  4 36  1  0
 10 37  1  0
 11 38  1  0
 16 39  1  0
 17 40  1  1
 18 41  1  0
 18 42  1  0
 19 43  1  0
 19 44  1  0
 22 45  1  0
 28 46  1  0
 29 47  1  0
M  END
>  <meeko>  (1084) 
{"is_sidechain": [true], "free_energy": -10.27, "intermolecular_energy": 0.0, "internal_energy": -10.27, "cluster_size": 16, "cluster_id": 1, "rank_in_cluster": 1}

>  <_RMSD_MCS_to_ref>  (1084) 
0.7273633510457097

$$$$
ligand
     RDKit          3D

 47 50  0  0  0  0  0  0  0  0999 V2000
   18.9090   19.1540    7.5370 C   0  0  0  0  0  0  0  0  0  0  0  0
   18.7730   17.6460    7.6780 C   0  0  0  0  0  0  0  0  0  0  0  0
   20.0910   16.9690    7.8190 C   0  0  0  0  0  0  0  0  0  0  0  0
   20.6840   16.4640    8.9590 C   0  0  0  0  0  0  0  0  0  0  0  0
   21.8920   15.9930    8.5310 N   0  0  0  0  0  0  0  0  0  0  0  0
   22.9570   15.0620    9.4340 S   0  0  0  0  0  6  0  0  0  0  0  0
   23.9900   15.9650    9.9000 O   0  0  0  0  0  0  0  0  0  0  0  0
   23.2410   13.8780    8.6480 O   0  0  0  0  0  0  0  0  0  0  0  0
   22.2080   14.4870   10.8440 C   0  0  0  0  0  0  0  0  0  0  0  0
   21.3120   13.4180   10.9160 C   0  0  0  0  0  0  0  0  0  0  0  0
   20.8890   13.1960   12.1630 N   0  0  0  0  0  0  0  0  0  0  0  0
   21.5160   14.1380   12.9100 N   0  0  0  0  0  0  0  0  0  0  0  0
   21.4240   14.3430   14.2830 C   0  0  0  0  0  0  0  0  0  0  0  0
   22.1200   15.3260   14.8730 C   0  0  0  0  0  0  0  0  0  0  0  0
   22.9680   16.1520   13.9570 C   0  0  0  0  0  0  0  0  0  0  0  0
   23.7730   17.2860   14.6050 C   0  0  0  0  0  0  0  0  0  0  0  0
   23.2850   17.9540   15.5030 O   0  0  0  0  0  0  0  0  0  0  0  0
   25.0390   17.4500   14.0860 N   0  0  0  0  0  0  0  0  0  0  0  0
   26.0300   18.2390   14.7950 C   0  0  2  0  0  0  0  0  0  0  0  0
   25.9900   17.9520   16.2910 C   0  0  0  0  0  0  0  0  0  0  0  0
   27.0330   18.8010   17.0010 C   0  0  0  0  0  0  0  0  0  0  0  0
   26.8400   20.2690   16.7010 C   0  0  0  0  0  0  0  0  0  0  0  0
   27.0820   21.1460   17.5240 O   0  0  0  0  0  0  0  0  0  0  0  0
   26.4080   20.5870   15.4390 N   0  0  0  0  0  0  0  0  0  0  0  0
   25.7760   19.7360   14.5630 C   0  0  0  0  0  0  0  0  0  0  0  0
   25.0740   20.1830   13.6560 O   0  0  0  0  0  0  0  0  0  0  0  0
   23.0710   15.9810   12.6640 N   0  0  0  0  0  0  0  0  0  0  0  0
   22.3390   14.9580   12.1270 C   0  0  0  0  0  0  0  0  0  0  0  0
   21.9860   16.1720    7.1880 C   0  0  0  0  0  0  0  0  0  0  0  0
   20.8980   16.7490    6.7180 N   0  0  0  0  0  0  0  0  0  0  0  0
   18.9504   19.6134    8.5356 H   0  0  0  0  0  0  0  0  0  0  0  0
   19.8320   19.3891    6.9867 H   0  0  0  0  0  0  0  0  0  0  0  0
   18.0430   19.5504    6.9867 H   0  0  0  0  0  0  0  0  0  0  0  0
   18.1664   17.4277    8.5693 H   0  0  0  0  0  0  0  0  0  0  0  0
   18.2960   17.2649    6.7630 H   0  0  0  0  0  0  0  0  0  0  0  0
   20.2759   16.4453    9.9803 H   0  0  0  0  0  0  0  0  0  0  0  0
   20.9916   12.8268   10.0455 H   0  0  0  0  0  0  0  0  0  0  0  0
   20.7753   13.6938   14.8894 H   0  0  0  0  0  0  0  0  0  0  0  0
   22.0710   15.5124   15.9560 H   0  0  0  0  0  0  0  0  0  0  0  0
   25.2840   17.0093   13.1879 H   0  0  0  0  0  0  0  0  0  0  0  0
   27.0217   17.9637   14.4067 H   0  0  0  0  0  0  0  0  0  0  0  0
   24.9915   18.1943   16.6838 H   0  0  0  0  0  0  0  0  0  0  0  0
   26.2054   16.8874   16.4648 H   0  0  0  0  0  0  0  0  0  0  0  0
   26.9465   18.6423   18.0860 H   0  0  0  0  0  0  0  0  0  0  0  0
   28.0287   18.5006   16.6428 H   0  0  0  0  0  0  0  0  0  0  0  0
   26.5719   21.5518   15.1177 H   0  0  0  0  0  0  0  0  0  0  0  0
   22.8512   15.8761    6.5765 H   0  0  0  0  0  0  0  0  0  0  0  0
  1  2  1  0
  2  3  1  0
  3  4  2  0
  4  5  1  0
  5  6  1  0
  6  7  2  0
  6  8  2  0
  6  9  1  0
  9 10  1  0
 10 11  2  0
 11 12  1  0
 12 13  1  0
 13 14  2  0
 14 15  1  0
 15 16  1  0
 16 17  2  0
 16 18  1  0
 18 19  1  0
 19 20  1  0
 20 21  1  0
 21 22  1  0
 22 23  2  0
 22 24  1  0
 24 25  1  0
 25 26  2  0
 15 27  2  0
 27 28  1  0
  5 29  1  0
 29 30  2  0
 30  3  1  0
 28  9  2  0
 28 12  1  0
 25 19  1  0
  1 31  1  0
  1 32  1  0
  1 33  1  0
  2 34  1  0
  2 35  1  0
  4 36  1  0
 10 37  1  0
 13 38  1  0
 14 39  1  0
 18 40  1  0
 19 41  1  6
 20 42  1  0
 20 43  1  0
 21 44  1  0
 21 45  1  0
 24 46  1  0
 29 47  1  0
M  END
>  <meeko>  (1085) 
{"is_sidechain": [true], "free_energy": -10.27, "intermolecular_energy": 0.0, "internal_energy": -10.27, "cluster_size": 16, "cluster_id": 1, "rank_in_cluster": 1}

>  <_RMSD_MCS_to_ref>  (1085) 
0.7078582720667564

$$$$
ligand
     RDKit          3D

 43 46  0  0  0  0  0  0  0  0999 V2000
   18.9090   19.1540    7.5370 C   0  0  0  0  0  0  0  0  0  0  0  0
   18.7730   17.6460    7.6780 C   0  0  0  0  0  0  0  0  0  0  0  0
   20.0280   17.0130    8.1640 C   0  0  0  0  0  0  0  0  0  0  0  0
   20.1900   16.0570    9.1470 C   0  0  0  0  0  0  0  0  0  0  0  0
   21.5380   15.8610    9.2050 N   0  0  0  0  0  0  0  0  0  0  0  0
   22.3730   14.9340   10.3290 S   0  0  0  0  0  6  0  0  0  0  0  0
   23.0700   13.9390    9.5310 O   0  0  0  0  0  0  0  0  0  0  0  0
   21.4220   14.5610   11.3560 O   0  0  0  0  0  0  0  0  0  0  0  0
   23.5770   16.0020   11.0360 C   0  0  0  0  0  0  0  0  0  0  0  0
   24.7250   16.3380   10.2970 C   0  0  0  0  0  0  0  0  0  0  0  0
   25.6880   17.1940   10.8350 C   0  0  0  0  0  0  0  0  0  0  0  0
   25.5400   17.7430   12.1150 C   0  0  0  0  0  0  0  0  0  0  0  0
   24.3890   17.3900   12.8280 C   0  0  0  0  0  0  0  0  0  0  0  0
   23.4180   16.5290   12.3210 C   0  0  0  0  0  0  0  0  0  0  0  0
   22.4300   16.3650   13.2520 N   0  0  0  0  0  0  0  0  0  0  0  0
   22.7360   17.0870   14.3180 N   0  0  0  0  0  0  0  0  0  0  0  0
   23.9080   17.7050   14.0750 N   0  0  0  0  0  0  0  0  0  0  0  0
   24.4780   18.6120   15.0560 C   0  0  1  0  0  0  0  0  0  0  0  0
   25.5650   17.9600   15.9180 C   0  0  0  0  0  0  0  0  0  0  0  0
   26.1250   18.9780   16.8980 C   0  0  0  0  0  0  0  0  0  0  0  0
   26.6610   20.1890   16.1720 C   0  0  0  0  0  0  0  0  0  0  0  0
   27.4770   20.9500   16.6800 O   0  0  0  0  0  0  0  0  0  0  0  0
   26.1160   20.4510   14.9400 N   0  0  0  0  0  0  0  0  0  0  0  0
   25.0060   19.8640   14.3750 C   0  0  0  0  0  0  0  0  0  0  0  0
   24.4390   20.4090   13.4300 O   0  0  0  0  0  0  0  0  0  0  0  0
   22.1450   16.6660    8.2940 C   0  0  0  0  0  0  0  0  0  0  0  0
   21.2540   17.3810    7.6400 N   0  0  0  0  0  0  0  0  0  0  0  0
   18.9504   19.6134    8.5356 H   0  0  0  0  0  0  0  0  0  0  0  0
   19.8320   19.3891    6.9867 H   0  0  0  0  0  0  0  0  0  0  0  0
   18.0430   19.5504    6.9867 H   0  0  0  0  0  0  0  0  0  0  0  0
   17.9661   17.4282    8.3932 H   0  0  0  0  0  0  0  0  0  0  0  0
   18.5484   17.2322    6.6838 H   0  0  0  0  0  0  0  0  0  0  0  0
   19.4096   15.5656    9.7465 H   0  0  0  0  0  0  0  0  0  0  0  0
   24.8655   15.9235    9.2878 H   0  0  0  0  0  0  0  0  0  0  0  0
   26.5805   17.4421   10.2419 H   0  0  0  0  0  0  0  0  0  0  0  0
   26.2945   18.4210   12.5405 H   0  0  0  0  0  0  0  0  0  0  0  0
   23.6648   18.8888   15.7431 H   0  0  0  0  0  0  0  0  0  0  0  0
   25.1318   17.1165   16.4755 H   0  0  0  0  0  0  0  0  0  0  0  0
   26.3752   17.5979   15.2680 H   0  0  0  0  0  0  0  0  0  0  0  0
   25.3256   19.2944   17.5842 H   0  0  0  0  0  0  0  0  0  0  0  0
   26.9493   18.5106   17.4566 H   0  0  0  0  0  0  0  0  0  0  0  0
   26.5913   21.1682   14.3737 H   0  0  0  0  0  0  0  0  0  0  0  0
   23.2311   16.7136    8.1262 H   0  0  0  0  0  0  0  0  0  0  0  0
  1  2  1  0
  2  3  1  0
  3  4  2  0
  4  5  1  0
  5  6  1  0
  6  7  2  0
  6  8  2  0
  6  9  1  0
  9 10  2  0
 10 11  1  0
 11 12  2  0
 12 13  1  0
 13 14  2  0
 14 15  1  0
 15 16  2  0
 16 17  1  0
 17 18  1  0
 18 19  1  0
 19 20  1  0
 20 21  1  0
 21 22  2  0
 21 23  1  0
 23 24  1  0
 24 25  2  0
  5 26  1  0
 26 27  2  0
 27  3  1  0
 14  9  1  0
 24 18  1  0
 17 13  1  0
  1 28  1  0
  1 29  1  0
  1 30  1  0
  2 31  1  0
  2 32  1  0
  4 33  1  0
 10 34  1  0
 11 35  1  0
 12 36  1  0
 18 37  1  1
 19 38  1  0
 19 39  1  0
 20 40  1  0
 20 41  1  0
 23 42  1  0
 26 43  1  0
M  END
>  <meeko>  (1086) 
{"is_sidechain": [true], "free_energy": -10.27, "intermolecular_energy": 0.0, "internal_energy": -10.27, "cluster_size": 20, "cluster_id": 1, "rank_in_cluster": 1}

>  <_RMSD_MCS_to_ref>  (1086) 
0.49902972523354394

$$$$
ligand
     RDKit          3D

 49 52  0  0  0  0  0  0  0  0999 V2000
   18.9090   19.1540    7.5370 C   0  0  0  0  0  0  0  0  0  0  0  0
   18.7730   17.6460    7.6780 C   0  0  0  0  0  0  0  0  0  0  0  0
   20.0640   16.9420    7.4510 C   0  0  0  0  0  0  0  0  0  0  0  0
   20.5520   15.8020    8.0590 C   0  0  0  0  0  0  0  0  0  0  0  0
   21.7790   15.6190    7.4850 N   0  0  0  0  0  0  0  0  0  0  0  0
   22.7680   14.2890    7.7190 S   0  0  0  0  0  6  0  0  0  0  0  0
   23.0310   13.6840    6.4300 O   0  0  0  0  0  0  0  0  0  0  0  0
   22.1420   13.5500    8.8000 O   0  0  0  0  0  0  0  0  0  0  0  0
   24.3530   14.7590    8.3720 C   0  0  0  0  0  0  0  0  0  0  0  0
   25.6200   14.4780    7.8730 C   0  0  0  0  0  0  0  0  0  0  0  0
   26.5770   15.1210    8.6810 C   0  0  0  0  0  0  0  0  0  0  0  0
   25.8870   15.7840    9.6660 C   0  0  0  0  0  0  0  0  0  0  0  0
   26.3050   16.6090   10.7390 C   0  0  0  0  0  0  0  0  0  0  0  0
   25.3820   17.1000   11.5770 C   0  0  0  0  0  0  0  0  0  0  0  0
   25.8250   17.9720   12.7150 C   0  0  0  0  0  0  0  0  0  0  0  0
   26.9500   18.4510   12.7770 O   0  0  0  0  0  0  0  0  0  0  0  0
   24.8680   18.1520   13.6860 N   0  0  0  0  0  0  0  0  0  0  0  0
   25.1930   18.8360   14.9330 C   0  0  1  0  0  0  0  0  0  0  0  0
   26.2420   18.0900   15.7490 C   0  0  0  0  0  0  0  0  0  0  0  0
   26.5690   18.8860   17.0030 C   0  0  0  0  0  0  0  0  0  0  0  0
   27.0130   20.2900   16.6630 C   0  0  0  0  0  0  0  0  0  0  0  0
   27.8440   20.8970   17.3310 O   0  0  0  0  0  0  0  0  0  0  0  0
   26.4140   20.8790   15.5780 N   0  0  0  0  0  0  0  0  0  0  0  0
   25.7270   20.2290   14.5850 C   0  0  0  0  0  0  0  0  0  0  0  0
   25.5420   20.7480   13.4850 O   0  0  0  0  0  0  0  0  0  0  0  0
   24.0460   16.8150   11.3980 N   0  0  0  0  0  0  0  0  0  0  0  0
   23.5340   16.0420   10.3860 C   0  0  0  0  0  0  0  0  0  0  0  0
   22.3570   15.7610   10.2410 O   0  0  0  0  0  0  0  0  0  0  0  0
   24.5220   15.5460    9.5080 N   0  0  0  0  0  0  0  0  0  0  0  0
   21.9740   16.5660    6.5340 C   0  0  0  0  0  0  0  0  0  0  0  0
   20.9580   17.4060    6.5040 N   0  0  0  0  0  0  0  0  0  0  0  0
   18.9504   19.6134    8.5356 H   0  0  0  0  0  0  0  0  0  0  0  0
   19.8320   19.3891    6.9867 H   0  0  0  0  0  0  0  0  0  0  0  0
   18.0430   19.5504    6.9867 H   0  0  0  0  0  0  0  0  0  0  0  0
   18.4175   17.4157    8.6932 H   0  0  0  0  0  0  0  0  0  0  0  0
   18.0600   17.2983    6.9159 H   0  0  0  0  0  0  0  0  0  0  0  0
   20.0655   15.1838    8.8279 H   0  0  0  0  0  0  0  0  0  0  0  0
   25.8385   13.8561    6.9924 H   0  0  0  0  0  0  0  0  0  0  0  0
   27.6687   15.0969    8.5486 H   0  0  0  0  0  0  0  0  0  0  0  0
   27.3703   16.8428   10.8819 H   0  0  0  0  0  0  0  0  0  0  0  0
   23.9123   17.8004   13.5314 H   0  0  0  0  0  0  0  0  0  0  0  0
   24.2808   18.8909   15.5453 H   0  0  0  0  0  0  0  0  0  0  0  0
   25.8509   17.1020   16.0334 H   0  0  0  0  0  0  0  0  0  0  0  0
   27.1537   17.9639   15.1466 H   0  0  0  0  0  0  0  0  0  0  0  0
   25.6725   18.9378   17.6383 H   0  0  0  0  0  0  0  0  0  0  0  0
   27.3914   18.3803   17.5302 H   0  0  0  0  0  0  0  0  0  0  0  0
   26.4871   21.9036   15.5025 H   0  0  0  0  0  0  0  0  0  0  0  0
   23.3802   17.2126   12.0758 H   0  0  0  0  0  0  0  0  0  0  0  0
   22.8561   16.6251    5.8794 H   0  0  0  0  0  0  0  0  0  0  0  0
  1  2  1  0
  2  3  1  0
  3  4  2  0
  4  5  1  0
  5  6  1  0
  6  7  2  0
  6  8  2  0
  6  9  1  0
  9 10  2  0
 10 11  1  0
 11 12  2  0
 12 13  1  0
 13 14  2  0
 14 15  1  0
 15 16  2  0
 15 17  1  0
 17 18  1  0
 18 19  1  0
 19 20  1  0
 20 21  1  0
 21 22  2  0
 21 23  1  0
 23 24  1  0
 24 25  2  0
 14 26  1  0
 26 27  1  0
 27 28  2  0
 27 29  1  0
  5 30  1  0
 30 31  2  0
 31  3  1  0
 29  9  1  0
 29 12  1  0
 24 18  1  0
  1 32  1  0
  1 33  1  0
  1 34  1  0
  2 35  1  0
  2 36  1  0
  4 37  1  0
 10 38  1  0
 11 39  1  0
 13 40  1  0
 17 41  1  0
 18 42  1  1
 19 43  1  0
 19 44  1  0
 20 45  1  0
 20 46  1  0
 23 47  1  0
 26 48  1  0
 30 49  1  0
M  END
>  <meeko>  (1087) 
{"is_sidechain": [true], "free_energy": -10.27, "intermolecular_energy": 0.0, "internal_energy": -10.27, "cluster_size": 19, "cluster_id": 1, "rank_in_cluster": 1}

>  <_RMSD_MCS_to_ref>  (1087) 
0.6816712306285689

$$$$
ligand
     RDKit          3D

 48 51  0  0  0  0  0  0  0  0999 V2000
   18.9090   19.1540    7.5370 C   0  0  0  0  0  0  0  0  0  0  0  0
   18.7730   17.6460    7.6780 C   0  0  0  0  0  0  0  0  0  0  0  0
   20.0700   16.9430    7.4830 C   0  0  0  0  0  0  0  0  0  0  0  0
   21.0740   16.7050    8.4020 C   0  0  0  0  0  0  0  0  0  0  0  0
   22.0250   16.0310    7.6920 N   0  0  0  0  0  0  0  0  0  0  0  0
   23.4140   15.3130    8.3090 S   0  0  0  0  0  6  0  0  0  0  0  0
   24.3170   16.3910    8.6570 O   0  0  0  0  0  0  0  0  0  0  0  0
   23.7620   14.2930    7.3370 O   0  0  0  0  0  0  0  0  0  0  0  0
   22.8650   14.5240    9.8050 C   0  0  0  0  0  0  0  0  0  0  0  0
   22.0070   13.4160    9.6830 C   0  0  0  0  0  0  0  0  0  0  0  0
   21.5130   12.7830   10.8130 C   0  0  0  0  0  0  0  0  0  0  0  0
   21.8630   13.2380   12.0830 C   0  0  0  0  0  0  0  0  0  0  0  0
   22.7350   14.3380   12.2050 C   0  0  0  0  0  0  0  0  0  0  0  0
   23.2830   15.0410   13.6770 S   0  0  0  0  0  0  0  0  0  0  0  0
   24.2280   16.2120   12.8740 C   0  0  0  0  0  0  0  0  0  0  0  0
   24.9740   17.1870   13.6590 C   0  0  0  0  0  0  0  0  0  0  0  0
   26.1890   17.3560   13.5880 O   0  0  0  0  0  0  0  0  0  0  0  0
   24.2120   17.9260   14.5420 N   0  0  0  0  0  0  0  0  0  0  0  0
   24.8270   18.8110   15.5200 C   0  0  1  0  0  0  0  0  0  0  0  0
   25.8650   18.0980   16.3800 C   0  0  0  0  0  0  0  0  0  0  0  0
   26.5000   19.0940   17.3360 C   0  0  0  0  0  0  0  0  0  0  0  0
   27.0940   20.2690   16.5930 C   0  0  0  0  0  0  0  0  0  0  0  0
   28.1060   20.8470   16.9740 O   0  0  0  0  0  0  0  0  0  0  0  0
   26.4260   20.6870   15.4700 N   0  0  0  0  0  0  0  0  0  0  0  0
   25.5090   19.9520   14.7600 C   0  0  0  0  0  0  0  0  0  0  0  0
   25.2510   20.2120   13.5830 O   0  0  0  0  0  0  0  0  0  0  0  0
   24.1500   16.0470   11.5040 C   0  0  0  0  0  0  0  0  0  0  0  0
   23.2620   14.9920   11.0880 C   0  0  0  0  0  0  0  0  0  0  0  0
   21.6030   15.8810    6.4110 C   0  0  0  0  0  0  0  0  0  0  0  0
   20.4110   16.4180    6.2520 N   0  0  0  0  0  0  0  0  0  0  0  0
   18.9504   19.6134    8.5356 H   0  0  0  0  0  0  0  0  0  0  0  0
   19.8320   19.3891    6.9867 H   0  0  0  0  0  0  0  0  0  0  0  0
   18.0430   19.5504    6.9867 H   0  0  0  0  0  0  0  0  0  0  0  0
   18.3942   17.4173    8.6851 H   0  0  0  0  0  0  0  0  0  0  0  0
   18.0791   17.2957    6.8996 H   0  0  0  0  0  0  0  0  0  0  0  0
   21.1007   16.9929    9.4633 H   0  0  0  0  0  0  0  0  0  0  0  0
   21.7263   13.0495    8.6846 H   0  0  0  0  0  0  0  0  0  0  0  0
   20.8419   11.9179   10.7069 H   0  0  0  0  0  0  0  0  0  0  0  0
   21.4628   12.7437   12.9805 H   0  0  0  0  0  0  0  0  0  0  0  0
   23.1854   17.8492   14.5078 H   0  0  0  0  0  0  0  0  0  0  0  0
   24.0411   19.1803   16.1952 H   0  0  0  0  0  0  0  0  0  0  0  0
   25.3773   17.2972   16.9552 H   0  0  0  0  0  0  0  0  0  0  0  0
   26.6416   17.6636   15.7333 H   0  0  0  0  0  0  0  0  0  0  0  0
   25.7318   19.4619   18.0321 H   0  0  0  0  0  0  0  0  0  0  0  0
   27.3082   18.5843   17.8810 H   0  0  0  0  0  0  0  0  0  0  0  0
   26.6307   21.6371   15.1290 H   0  0  0  0  0  0  0  0  0  0  0  0
   24.7164   16.6670   10.7936 H   0  0  0  0  0  0  0  0  0  0  0  0
   22.1763   15.3809    5.6166 H   0  0  0  0  0  0  0  0  0  0  0  0
  1  2  1  0
  2  3  1  0
  3  4  2  0
  4  5  1  0
  5  6  1  0
  6  7  2  0
  6  8  2  0
  6  9  1  0
  9 10  2  0
 10 11  1  0
 11 12  2  0
 12 13  1  0
 13 14  1  0
 14 15  1  0
 15 16  1  0
 16 17  2  0
 16 18  1  0
 18 19  1  0
 19 20  1  0
 20 21  1  0
 21 22  1  0
 22 23  2  0
 22 24  1  0
 24 25  1  0
 25 26  2  0
 15 27  2  0
 27 28  1  0
  5 29  1  0
 29 30  2  0
 30  3  1  0
 28  9  1  0
 28 13  2  0
 25 19  1  0
  1 31  1  0
  1 32  1  0
  1 33  1  0
  2 34  1  0
  2 35  1  0
  4 36  1  0
 10 37  1  0
 11 38  1  0
 12 39  1  0
 18 40  1  0
 19 41  1  1
 20 42  1  0
 20 43  1  0
 21 44  1  0
 21 45  1  0
 24 46  1  0
 27 47  1  0
 29 48  1  0
M  END
>  <meeko>  (1088) 
{"is_sidechain": [true], "free_energy": -10.27, "intermolecular_energy": 0.0, "internal_energy": -10.27, "cluster_size": 20, "cluster_id": 1, "rank_in_cluster": 1}

>  <_RMSD_MCS_to_ref>  (1088) 
0.7753924454393688

$$$$
ligand
     RDKit          3D

 50 53  0  0  0  0  0  0  0  0999 V2000
   18.9090   19.1540    7.5370 C   0  0  0  0  0  0  0  0  0  0  0  0
   18.7730   17.6460    7.6780 C   0  0  0  0  0  0  0  0  0  0  0  0
   20.0670   16.9950    8.0210 C   0  0  0  0  0  0  0  0  0  0  0  0
   20.3580   16.1380    9.0630 C   0  0  0  0  0  0  0  0  0  0  0  0
   21.6880   15.8660    8.9120 N   0  0  0  0  0  0  0  0  0  0  0  0
   22.5680   14.7330    9.7880 S   0  0  0  0  0  6  0  0  0  0  0  0
   23.9530   15.1140    9.5850 O   0  0  0  0  0  0  0  0  0  0  0  0
   22.0440   13.4430    9.3850 O   0  0  0  0  0  0  0  0  0  0  0  0
   22.1770   14.9600   11.5150 C   0  0  0  0  0  0  0  0  0  0  0  0
   21.0910   14.2750   12.0830 C   0  0  0  0  0  0  0  0  0  0  0  0
   20.7740   14.4620   13.4250 C   0  0  0  0  0  0  0  0  0  0  0  0
   21.5280   15.3310   14.2050 C   0  0  0  0  0  0  0  0  0  0  0  0
   22.6190   16.0250   13.6580 C   0  0  0  0  0  0  0  0  0  0  0  0
   22.9720   15.8280   12.3040 C   0  0  0  0  0  0  0  0  0  0  0  0
   24.1460   16.5860   11.7150 C   0  0  0  0  0  0  0  0  0  0  0  0
   25.1130   17.1430   12.7600 C   0  0  0  0  0  0  0  0  0  0  0  0
   24.3370   17.9060   13.8340 C   0  0  2  0  0  0  0  0  0  0  0  0
   25.1970   18.6710   14.7600 N   0  0  0  0  0  0  0  0  0  0  0  0
   25.1780   18.3810   16.1890 C   0  0  0  0  0  0  0  0  0  0  0  0
   26.4830   18.7990   16.8310 C   0  0  0  0  0  0  0  0  0  0  0  0
   26.7560   20.2370   16.4990 C   0  0  0  0  0  0  0  0  0  0  0  0
   27.4620   20.9520   17.2050 O   0  0  0  0  0  0  0  0  0  0  0  0
   26.2320   20.6890   15.3200 N   0  0  0  0  0  0  0  0  0  0  0  0
   25.5880   19.9460   14.3670 C   0  0  0  0  0  0  0  0  0  0  0  0
   25.3890   20.4140   13.2500 O   0  0  0  0  0  0  0  0  0  0  0  0
   23.4070   16.9340   14.5780 C   0  0  0  0  0  0  0  0  0  0  0  0
   22.1540   16.5160    7.8140 C   0  0  0  0  0  0  0  0  0  0  0  0
   21.1900   17.2070    7.2440 N   0  0  0  0  0  0  0  0  0  0  0  0
   18.9504   19.6134    8.5356 H   0  0  0  0  0  0  0  0  0  0  0  0
   19.8320   19.3891    6.9867 H   0  0  0  0  0  0  0  0  0  0  0  0
   18.0430   19.5504    6.9867 H   0  0  0  0  0  0  0  0  0  0  0  0
   18.0451   17.4287    8.4736 H   0  0  0  0  0  0  0  0  0  0  0  0
   18.4390   17.2448    6.7098 H   0  0  0  0  0  0  0  0  0  0  0  0
   19.6749   15.7603    9.8380 H   0  0  0  0  0  0  0  0  0  0  0  0
   20.4903   13.5900   11.4667 H   0  0  0  0  0  0  0  0  0  0  0  0
   19.9254   13.9212   13.8693 H   0  0  0  0  0  0  0  0  0  0  0  0
   21.2668   15.4767   15.2635 H   0  0  0  0  0  0  0  0  0  0  0  0
   24.7035   15.9034   11.0568 H   0  0  0  0  0  0  0  0  0  0  0  0
   23.7293   17.4488   11.1746 H   0  0  0  0  0  0  0  0  0  0  0  0
   25.6622   16.3126   13.2277 H   0  0  0  0  0  0  0  0  0  0  0  0
   25.8205   17.8278   12.2696 H   0  0  0  0  0  0  0  0  0  0  0  0
   23.7325   18.6710   13.3247 H   0  0  0  0  0  0  0  0  0  0  0  0
   24.3502   18.9319   16.6594 H   0  0  0  0  0  0  0  0  0  0  0  0
   25.0418   17.2987   16.3310 H   0  0  0  0  0  0  0  0  0  0  0  0
   26.4112   18.6802   17.9222 H   0  0  0  0  0  0  0  0  0  0  0  0
   27.3010   18.1695   16.4509 H   0  0  0  0  0  0  0  0  0  0  0  0
   26.3323   21.6960   15.1281 H   0  0  0  0  0  0  0  0  0  0  0  0
   24.0191   16.3084   15.2444 H   0  0  0  0  0  0  0  0  0  0  0  0
   22.6777   17.5445   15.1305 H   0  0  0  0  0  0  0  0  0  0  0  0
   23.1918   16.4710    7.4520 H   0  0  0  0  0  0  0  0  0  0  0  0
  1  2  1  0
  2  3  1  0
  3  4  2  0
  4  5  1  0
  5  6  1  0
  6  7  2  0
  6  8  2  0
  6  9  1  0
  9 10  2  0
 10 11  1  0
 11 12  2  0
 12 13  1  0
 13 14  2  0
 14 15  1  0
 15 16  1  0
 16 17  1  0
 17 18  1  0
 18 19  1  0
 19 20  1  0
 20 21  1  0
 21 22  2  0
 21 23  1  0
 23 24  1  0
 24 25  2  0
 17 26  1  0
  5 27  1  0
 27 28  2  0
 28  3  1  0
 14  9  1  0
 24 18  1  0
 26 13  1  0
  1 29  1  0
  1 30  1  0
  1 31  1  0
  2 32  1  0
  2 33  1  0
  4 34  1  0
 10 35  1  0
 11 36  1  0
 12 37  1  0
 15 38  1  0
 15 39  1  0
 16 40  1  0
 16 41  1  0
 17 42  1  6
 19 43  1  0
 19 44  1  0
 20 45  1  0
 20 46  1  0
 23 47  1  0
 26 48  1  0
 26 49  1  0
 27 50  1  0
M  END
>  <meeko>  (1089) 
{"is_sidechain": [true], "free_energy": -10.27, "intermolecular_energy": 0.0, "internal_energy": -10.27, "cluster_size": 20, "cluster_id": 1, "rank_in_cluster": 1}

>  <_RMSD_MCS_to_ref>  (1089) 
0.596976025481761

$$$$
ligand
     RDKit          3D

 52 56  0  0  0  0  0  0  0  0999 V2000
   18.9090   19.1540    7.5370 C   0  0  0  0  0  0  0  0  0  0  0  0
   18.7730   17.6460    7.6780 C   0  0  0  0  0  0  0  0  0  0  0  0
   20.0930   16.9720    7.8060 C   0  0  0  0  0  0  0  0  0  0  0  0
   20.8970   16.8390    8.9220 C   0  0  0  0  0  0  0  0  0  0  0  0
   21.9890   16.1570    8.4670 N   0  0  0  0  0  0  0  0  0  0  0  0
   23.2020   15.5100    9.4320 S   0  0  0  0  0  6  0  0  0  0  0  0
   24.2930   16.4640    9.4650 O   0  0  0  0  0  0  0  0  0  0  0  0
   23.4060   14.1750    8.8980 O   0  0  0  0  0  0  0  0  0  0  0  0
   22.5150   15.3670   11.0630 C   0  0  0  0  0  0  0  0  0  0  0  0
   21.4140   14.5240   11.3290 C   0  0  0  0  0  0  0  0  0  0  0  0
   20.8130   13.6860   10.3230 C   0  0  0  0  0  0  0  0  0  0  0  0
   21.2320   12.4320    9.9480 C   0  0  0  0  0  0  0  0  0  0  0  0
   20.3190   12.0630    9.0050 N   0  0  0  0  0  0  0  0  0  0  0  0
   19.4190   13.0340    8.7880 N   0  0  0  0  0  0  0  0  0  0  0  0
   19.7170   14.0440    9.5950 N   0  0  0  0  0  0  0  0  0  0  0  0
   20.8740   14.4560   12.6370 C   0  0  0  0  0  0  0  0  0  0  0  0
   21.4070   15.2130   13.6790 C   0  0  0  0  0  0  0  0  0  0  0  0
   22.4730   16.0390   13.3820 C   0  0  0  0  0  0  0  0  0  0  0  0
   23.0300   16.1390   12.1050 C   0  0  0  0  0  0  0  0  0  0  0  0
   24.1620   17.1200   12.1430 C   0  0  0  0  0  0  0  0  0  0  0  0
   24.1560   17.5780   13.5260 N   0  0  0  0  0  0  0  0  0  0  0  0
   25.2690   18.3020   14.1290 C   0  0  2  0  0  0  0  0  0  0  0  0
   25.4960   17.9200   15.5880 C   0  0  0  0  0  0  0  0  0  0  0  0
   26.7180   18.6560   16.1160 C   0  0  0  0  0  0  0  0  0  0  0  0
   26.5790   20.1510   15.9360 C   0  0  0  0  0  0  0  0  0  0  0  0
   27.0380   20.9550   16.7430 O   0  0  0  0  0  0  0  0  0  0  0  0
   25.9320   20.5760   14.8040 N   0  0  0  0  0  0  0  0  0  0  0  0
   25.0740   19.8250   14.0350 C   0  0  0  0  0  0  0  0  0  0  0  0
   24.2180   20.3710   13.3400 O   0  0  0  0  0  0  0  0  0  0  0  0
   23.2170   16.9120   14.2930 C   0  0  0  0  0  0  0  0  0  0  0  0
   23.0240   16.9980   15.4890 O   0  0  0  0  0  0  0  0  0  0  0  0
   21.8050   15.8440    7.1590 C   0  0  0  0  0  0  0  0  0  0  0  0
   20.6650   16.3380    6.7210 N   0  0  0  0  0  0  0  0  0  0  0  0
   18.9504   19.6134    8.5356 H   0  0  0  0  0  0  0  0  0  0  0  0
   19.8320   19.3891    6.9867 H   0  0  0  0  0  0  0  0  0  0  0  0
   18.0430   19.5504    6.9867 H   0  0  0  0  0  0  0  0  0  0  0  0
   18.1749   17.4266    8.5747 H   0  0  0  0  0  0  0  0  0  0  0  0
   18.2859   17.2645    6.7685 H   0  0  0  0  0  0  0  0  0  0  0  0
   20.7021   17.1998    9.9427 H   0  0  0  0  0  0  0  0  0  0  0  0
   22.0967   11.8625   10.3196 H   0  0  0  0  0  0  0  0  0  0  0  0
   20.3201   11.1540    8.5206 H   0  0  0  0  0  0  0  0  0  0  0  0
   20.0182   13.7935   12.8339 H   0  0  0  0  0  0  0  0  0  0  0  0
   20.9949   15.1547   14.6972 H   0  0  0  0  0  0  0  0  0  0  0  0
   25.1157   16.6324   11.8926 H   0  0  0  0  0  0  0  0  0  0  0  0
   24.0499   17.9380   11.4161 H   0  0  0  0  0  0  0  0  0  0  0  0
   26.1581   18.0104   13.5508 H   0  0  0  0  0  0  0  0  0  0  0  0
   24.6136   18.1991   16.1825 H   0  0  0  0  0  0  0  0  0  0  0  0
   25.6582   16.8347   15.6638 H   0  0  0  0  0  0  0  0  0  0  0  0
   26.8355   18.4334   17.1868 H   0  0  0  0  0  0  0  0  0  0  0  0
   27.5984   18.3184   15.5495 H   0  0  0  0  0  0  0  0  0  0  0  0
   26.1043   21.5456   14.5023 H   0  0  0  0  0  0  0  0  0  0  0  0
   22.5097   15.2592    6.5496 H   0  0  0  0  0  0  0  0  0  0  0  0
  1  2  1  0
  2  3  1  0
  3  4  2  0
  4  5  1  0
  5  6  1  0
  6  7  2  0
  6  8  2  0
  6  9  1  0
  9 10  1  0
 10 11  1  0
 11 12  2  0
 12 13  1  0
 13 14  1  0
 14 15  2  0
 10 16  2  0
 16 17  1  0
 17 18  2  0
 18 19  1  0
 19 20  1  0
 20 21  1  0
 21 22  1  0
 22 23  1  0
 23 24  1  0
 24 25  1  0
 25 26  2  0
 25 27  1  0
 27 28  1  0
 28 29  2  0
 21 30  1  0
 30 31  2  0
  5 32  1  0
 32 33  2  0
 33  3  1  0
 19  9  2  0
 28 22  1  0
 15 11  1  0
 30 18  1  0
  1 34  1  0
  1 35  1  0
  1 36  1  0
  2 37  1  0
  2 38  1  0
  4 39  1  0
 12 40  1  0
 13 41  1  0
 16 42  1  0
 17 43  1  0
 20 44  1  0
 20 45  1  0
 22 46  1  6
 23 47  1  0
 23 48  1  0
 24 49  1  0
 24 50  1  0
 27 51  1  0
 32 52  1  0
M  END
>  <meeko>  (1090) 
{"is_sidechain": [true], "free_energy": -10.27, "intermolecular_energy": 0.0, "internal_energy": -10.27, "cluster_size": 19, "cluster_id": 1, "rank_in_cluster": 1}

>  <_RMSD_MCS_to_ref>  (1090) 
1.9817853622989103

$$$$
ligand
     RDKit          3D

 59 63  0  0  0  0  0  0  0  0999 V2000
   18.8250   19.0180    7.5350 C   0  0  0  0  0  0  0  0  0  0  0  0
   18.5200   17.5410    7.7330 C   0  0  0  0  0  0  0  0  0  0  0  0
   19.7520   16.7080    7.7180 C   0  0  0  0  0  0  0  0  0  0  0  0
   20.0900   15.6400    8.5250 C   0  0  0  0  0  0  0  0  0  0  0  0
   21.3240   15.2610    8.0790 N   0  0  0  0  0  0  0  0  0  0  0  0
   22.2770   14.0560    8.7510 S   0  0  0  0  0  6  0  0  0  0  0  0
   21.3390   12.9800    9.0130 O   0  0  0  0  0  0  0  0  0  0  0  0
   23.4180   13.8790    7.8760 O   0  0  0  0  0  0  0  0  0  0  0  0
   22.8560   14.6690   10.3200 C   0  0  0  0  0  0  0  0  0  0  0  0
   22.3320   14.0240   11.4710 C   0  0  0  0  0  0  0  0  0  0  0  0
   22.7080   14.4230   12.7530 C   0  0  0  0  0  0  0  0  0  0  0  0
   23.6080   15.4640   12.8490 C   0  0  0  0  0  0  0  0  0  0  0  0
   24.1420   16.1090   11.7330 C   0  0  0  0  0  0  0  0  0  0  0  0
   23.7810   15.7260   10.4410 C   0  0  0  0  0  0  0  0  0  0  0  0
   24.4250   16.4220    9.3260 C   0  0  0  0  0  0  0  0  0  0  0  0
   25.5090   15.9530    8.6890 C   0  0  0  0  0  0  0  0  0  0  0  0
   26.2540   14.6770    8.9630 C   0  0  0  0  0  0  0  0  0  0  0  0
   27.5720   14.9160    8.2410 C   0  0  0  0  0  0  0  0  0  0  0  0
   27.2020   15.7230    7.0760 N   0  0  0  0  0  0  0  0  0  0  0  0
   26.1980   16.6710    7.5630 C   0  0  0  0  0  0  0  0  0  0  0  0
   25.1130   17.1580   12.1820 C   0  0  0  0  0  0  0  0  0  0  0  0
   24.9970   17.1070   13.6340 N   0  0  0  0  0  0  0  0  0  0  0  0
   25.9430   17.7540   14.5360 C   0  0  2  0  0  0  0  0  0  0  0  0
   25.4700   17.7410   15.9860 C   0  0  0  0  0  0  0  0  0  0  0  0
   26.5450   18.3540   16.8730 C   0  0  0  0  0  0  0  0  0  0  0  0
   26.9060   19.7450   16.4070 C   0  0  0  0  0  0  0  0  0  0  0  0
   27.1810   20.6490   17.1900 O   0  0  0  0  0  0  0  0  0  0  0  0
   26.9280   19.9520   15.0520 N   0  0  0  0  0  0  0  0  0  0  0  0
   26.2400   19.2060   14.1220 C   0  0  0  0  0  0  0  0  0  0  0  0
   25.8930   19.7090   13.0560 O   0  0  0  0  0  0  0  0  0  0  0  0
   24.1830   16.0670   14.0550 C   0  0  0  0  0  0  0  0  0  0  0  0
   23.9670   15.6970   15.1910 O   0  0  0  0  0  0  0  0  0  0  0  0
   21.6840   16.0500    7.0350 C   0  0  0  0  0  0  0  0  0  0  0  0
   20.7600   16.9620    6.8080 N   0  0  0  0  0  0  0  0  0  0  0  0
   18.9258   19.5062    8.5155 H   0  0  0  0  0  0  0  0  0  0  0  0
   19.7645   19.1263    6.9731 H   0  0  0  0  0  0  0  0  0  0  0  0
   18.0053   19.4896    6.9731 H   0  0  0  0  0  0  0  0  0  0  0  0
   18.0151   17.4099    8.7014 H   0  0  0  0  0  0  0  0  0  0  0  0
   17.8795   17.2131    6.9010 H   0  0  0  0  0  0  0  0  0  0  0  0
   19.5004   15.1959    9.3406 H   0  0  0  0  0  0  0  0  0  0  0  0
   21.6179   13.1962   11.3495 H   0  0  0  0  0  0  0  0  0  0  0  0
   22.3044   13.9290   13.6491 H   0  0  0  0  0  0  0  0  0  0  0  0
   23.9981   17.3795    8.9928 H   0  0  0  0  0  0  0  0  0  0  0  0
   26.4107   14.5299   10.0418 H   0  0  0  0  0  0  0  0  0  0  0  0
   25.7231   13.7738    8.6277 H   0  0  0  0  0  0  0  0  0  0  0  0
   28.2767   15.4617    8.8857 H   0  0  0  0  0  0  0  0  0  0  0  0
   28.0755   13.9787    7.9617 H   0  0  0  0  0  0  0  0  0  0  0  0
   28.0235   16.2247    6.7095 H   0  0  0  0  0  0  0  0  0  0  0  0
   26.6780   17.5917    7.9262 H   0  0  0  0  0  0  0  0  0  0  0  0
   25.4961   16.9759    6.7729 H   0  0  0  0  0  0  0  0  0  0  0  0
   26.1358   16.9156   11.8577 H   0  0  0  0  0  0  0  0  0  0  0  0
   24.9024   18.1533   11.7635 H   0  0  0  0  0  0  0  0  0  0  0  0
   26.8665   17.1613   14.4598 H   0  0  0  0  0  0  0  0  0  0  0  0
   24.5428   18.3261   16.0750 H   0  0  0  0  0  0  0  0  0  0  0  0
   25.2796   16.7046   16.3016 H   0  0  0  0  0  0  0  0  0  0  0  0
   26.1713   18.4069   17.9062 H   0  0  0  0  0  0  0  0  0  0  0  0
   27.4444   17.7229   16.8192 H   0  0  0  0  0  0  0  0  0  0  0  0
   27.5063   20.7288   14.7014 H   0  0  0  0  0  0  0  0  0  0  0  0
   22.6154   15.9434    6.4596 H   0  0  0  0  0  0  0  0  0  0  0  0
  1  2  1  0
  2  3  1  0
  3  4  2  0
  4  5  1  0
  5  6  1  0
  6  7  2  0
  6  8  2  0
  6  9  1  0
  9 10  2  0
 10 11  1  0
 11 12  2  0
 12 13  1  0
 13 14  2  0
 14 15  1  0
 15 16  2  0
 16 17  1  0
 17 18  1  0
 18 19  1  0
 19 20  1  0
 13 21  1  0
 21 22  1  0
 22 23  1  0
 23 24  1  0
 24 25  1  0
 25 26  1  0
 26 27  2  0
 26 28  1  0
 28 29  1  0
 29 30  2  0
 22 31  1  0
 31 32  2  0
  5 33  1  0
 33 34  2  0
 34  3  1  0
 14  9  1  0
 20 16  1  0
 29 23  1  0
 31 12  1  0
  1 35  1  0
  1 36  1  0
  1 37  1  0
  2 38  1  0
  2 39  1  0
  4 40  1  0
 10 41  1  0
 11 42  1  0
 15 43  1  0
 17 44  1  0
 17 45  1  0
 18 46  1  0
 18 47  1  0
 19 48  1  0
 20 49  1  0
 20 50  1  0
 21 51  1  0
 21 52  1  0
 23 53  1  1
 24 54  1  0
 24 55  1  0
 25 56  1  0
 25 57  1  0
 28 58  1  0
 33 59  1  0
M  END
>  <meeko>  (1091) 
{"is_sidechain": [true], "free_energy": -10.26, "intermolecular_energy": 0.0, "internal_energy": -10.26, "cluster_size": 1, "cluster_id": 2, "rank_in_cluster": 1}

>  <_RMSD_MCS_to_ref>  (1091) 
1.0389004871604512

$$$$
ligand
     RDKit          3D

 47 50  0  0  0  0  0  0  0  0999 V2000
   18.7970   18.8160    7.7190 C   0  0  0  0  0  0  0  0  0  0  0  0
   18.5280   17.3300    7.8810 C   0  0  0  0  0  0  0  0  0  0  0  0
   19.7800   16.5500    8.0870 C   0  0  0  0  0  0  0  0  0  0  0  0
   20.2150   15.8870    9.2170 C   0  0  0  0  0  0  0  0  0  0  0  0
   21.3970   15.3160    8.8370 N   0  0  0  0  0  0  0  0  0  0  0  0
   22.5390   14.6270    9.8810 S   0  0  0  0  0  6  0  0  0  0  0  0
   23.4100   15.7480   10.1890 O   0  0  0  0  0  0  0  0  0  0  0  0
   23.0160   13.4810    9.1270 O   0  0  0  0  0  0  0  0  0  0  0  0
   21.7520   14.0890   11.3150 C   0  0  0  0  0  0  0  0  0  0  0  0
   20.8450   13.0970   11.3010 C   0  0  0  0  0  0  0  0  0  0  0  0
   20.2600   12.7570   12.6250 C   0  0  0  0  0  0  0  0  0  0  0  0
   20.5480   13.3250   13.7540 N   0  0  0  0  0  0  0  0  0  0  0  0
   21.4760   14.3250   13.7040 C   0  0  0  0  0  0  0  0  0  0  0  0
   21.9990   15.1230   14.6920 C   0  0  0  0  0  0  0  0  0  0  0  0
   22.9170   15.9770   14.0470 C   0  0  0  0  0  0  0  0  0  0  0  0
   23.7390   17.0220   14.6740 C   0  0  0  0  0  0  0  0  0  0  0  0
   23.2660   17.9140   15.3730 O   0  0  0  0  0  0  0  0  0  0  0  0
   25.0820   16.9050   14.4100 N   0  0  0  0  0  0  0  0  0  0  0  0
   26.0780   17.7500   15.0370 C   0  0  2  0  0  0  0  0  0  0  0  0
   25.9490   17.7430   16.5580 C   0  0  0  0  0  0  0  0  0  0  0  0
   27.0050   18.6540   17.1630 C   0  0  0  0  0  0  0  0  0  0  0  0
   26.9110   20.0520   16.6010 C   0  0  0  0  0  0  0  0  0  0  0  0
   27.1950   21.0480   17.2620 O   0  0  0  0  0  0  0  0  0  0  0  0
   26.5240   20.1610   15.2890 N   0  0  0  0  0  0  0  0  0  0  0  0
   25.9270   19.1870   14.5270 C   0  0  0  0  0  0  0  0  0  0  0  0
   25.3350   19.4750   13.4890 O   0  0  0  0  0  0  0  0  0  0  0  0
   22.9710   15.7290   12.7260 N   0  0  0  0  0  0  0  0  0  0  0  0
   22.0890   14.7210   12.5080 N   0  0  0  0  0  0  0  0  0  0  0  0
   21.6670   15.6660    7.5510 C   0  0  0  0  0  0  0  0  0  0  0  0
   20.7080   16.4280    7.0710 N   0  0  0  0  0  0  0  0  0  0  0  0
   18.8816   19.2836    8.7111 H   0  0  0  0  0  0  0  0  0  0  0  0
   19.7359   18.9603    7.1643 H   0  0  0  0  0  0  0  0  0  0  0  0
   17.9683   19.2803    7.1643 H   0  0  0  0  0  0  0  0  0  0  0  0
   17.8713   17.1818    8.7509 H   0  0  0  0  0  0  0  0  0  0  0  0
   18.0547   16.9700    6.9556 H   0  0  0  0  0  0  0  0  0  0  0  0
   19.7226   15.8311   10.1991 H   0  0  0  0  0  0  0  0  0  0  0  0
   20.5565   12.5746   10.3770 H   0  0  0  0  0  0  0  0  0  0  0  0
   19.5140   11.9489   12.6486 H   0  0  0  0  0  0  0  0  0  0  0  0
   21.7528   15.1005   15.7639 H   0  0  0  0  0  0  0  0  0  0  0  0
   25.3934   16.1878   13.7395 H   0  0  0  0  0  0  0  0  0  0  0  0
   27.0690   17.3515   14.7742 H   0  0  0  0  0  0  0  0  0  0  0  0
   24.9490   18.1023   16.8423 H   0  0  0  0  0  0  0  0  0  0  0  0
   26.0921   16.7186   16.9323 H   0  0  0  0  0  0  0  0  0  0  0  0
   26.8607   18.6955   18.2527 H   0  0  0  0  0  0  0  0  0  0  0  0
   27.9968   18.2469   16.9169 H   0  0  0  0  0  0  0  0  0  0  0  0
   26.6992   21.0657   14.8288 H   0  0  0  0  0  0  0  0  0  0  0  0
   22.5614   15.3557    6.9909 H   0  0  0  0  0  0  0  0  0  0  0  0
  1  2  1  0
  2  3  1  0
  3  4  2  0
  4  5  1  0
  5  6  1  0
  6  7  2  0
  6  8  2  0
  6  9  1  0
  9 10  2  0
 10 11  1  0
 11 12  2  0
 12 13  1  0
 13 14  2  0
 14 15  1  0
 15 16  1  0
 16 17  2  0
 16 18  1  0
 18 19  1  0
 19 20  1  0
 20 21  1  0
 21 22  1  0
 22 23  2  0
 22 24  1  0
 24 25  1  0
 25 26  2  0
 15 27  2  0
 27 28  1  0
  5 29  1  0
 29 30  2  0
 30  3  1  0
 28  9  1  0
 28 13  1  0
 25 19  1  0
  1 31  1  0
  1 32  1  0
  1 33  1  0
  2 34  1  0
  2 35  1  0
  4 36  1  0
 10 37  1  0
 11 38  1  0
 14 39  1  0
 18 40  1  0
 19 41  1  1
 20 42  1  0
 20 43  1  0
 21 44  1  0
 21 45  1  0
 24 46  1  0
 29 47  1  0
M  END
>  <meeko>  (1092) 
{"is_sidechain": [true], "free_energy": -10.26, "intermolecular_energy": 0.0, "internal_energy": -10.26, "cluster_size": 10, "cluster_id": 1, "rank_in_cluster": 1}

>  <_RMSD_MCS_to_ref>  (1092) 
0.6945700508628013

$$$$
ligand
     RDKit          3D

 45 48  0  0  0  0  0  0  0  0999 V2000
   18.7970   18.8170    7.7190 C   0  0  0  0  0  0  0  0  0  0  0  0
   18.5280   17.3290    7.8810 C   0  0  0  0  0  0  0  0  0  0  0  0
   19.7230   16.5030    7.5610 C   0  0  0  0  0  0  0  0  0  0  0  0
   20.9690   16.5190    8.1550 C   0  0  0  0  0  0  0  0  0  0  0  0
   21.6650   15.5470    7.4990 N   0  0  0  0  0  0  0  0  0  0  0  0
   23.2080   14.9730    7.8610 S   0  0  0  0  0  6  0  0  0  0  0  0
   23.4800   14.0280    6.7910 O   0  0  0  0  0  0  0  0  0  0  0  0
   24.0510   16.1440    8.0340 O   0  0  0  0  0  0  0  0  0  0  0  0
   23.1560   14.1210    9.2470 O   0  0  0  0  0  0  0  0  0  0  0  0
   23.3570   14.7430   10.4530 C   0  0  0  0  0  0  0  0  0  0  0  0
   22.3050   14.6880   11.3780 C   0  0  0  0  0  0  0  0  0  0  0  0
   22.4340   15.3450   12.6070 C   0  0  0  0  0  0  0  0  0  0  0  0
   23.6100   16.0260   12.8210 C   0  0  0  0  0  0  0  0  0  0  0  0
   24.5800   16.0310   11.8500 C   0  0  0  0  0  0  0  0  0  0  0  0
   24.5030   15.4220   10.6530 N   0  0  0  0  0  0  0  0  0  0  0  0
   25.7150   16.8180   12.3510 C   0  0  0  0  0  0  0  0  0  0  0  0
   26.7750   16.9750   11.7760 O   0  0  0  0  0  0  0  0  0  0  0  0
   25.3370   17.2910   13.5820 N   0  0  0  0  0  0  0  0  0  0  0  0
   26.2130   17.9850   14.5160 C   0  0  2  0  0  0  0  0  0  0  0  0
   25.9110   17.7170   15.9870 C   0  0  0  0  0  0  0  0  0  0  0  0
   26.9110   18.4730   16.8480 C   0  0  0  0  0  0  0  0  0  0  0  0
   26.8970   19.9520   16.5380 C   0  0  0  0  0  0  0  0  0  0  0  0
   27.2010   20.8000   17.3710 O   0  0  0  0  0  0  0  0  0  0  0  0
   26.5780   20.3080   15.2500 N   0  0  0  0  0  0  0  0  0  0  0  0
   26.1510   19.4880   14.2290 C   0  0  0  0  0  0  0  0  0  0  0  0
   25.8030   19.9620   13.1500 O   0  0  0  0  0  0  0  0  0  0  0  0
   24.1050   16.8120   13.9410 C   0  0  0  0  0  0  0  0  0  0  0  0
   23.4900   16.9790   14.9760 O   0  0  0  0  0  0  0  0  0  0  0  0
   20.8680   14.9890    6.5520 C   0  0  0  0  0  0  0  0  0  0  0  0
   19.6760   15.5500    6.5600 N   0  0  0  0  0  0  0  0  0  0  0  0
   18.8815   19.2845    8.7111 H   0  0  0  0  0  0  0  0  0  0  0  0
   19.7359   18.9616    7.1643 H   0  0  0  0  0  0  0  0  0  0  0  0
   17.9682   19.2812    7.1643 H   0  0  0  0  0  0  0  0  0  0  0  0
   18.2313   17.1341    8.9222 H   0  0  0  0  0  0  0  0  0  0  0  0
   17.7285   17.0522    7.1780 H   0  0  0  0  0  0  0  0  0  0  0  0
   21.3202   17.1676    8.9711 H   0  0  0  0  0  0  0  0  0  0  0  0
   21.3856   14.1330   11.1398 H   0  0  0  0  0  0  0  0  0  0  0  0
   21.6357   15.3182   13.3633 H   0  0  0  0  0  0  0  0  0  0  0  0
   27.2257   17.5880   14.3524 H   0  0  0  0  0  0  0  0  0  0  0  0
   24.8918   18.0578   16.2215 H   0  0  0  0  0  0  0  0  0  0  0  0
   25.9890   16.6387   16.1900 H   0  0  0  0  0  0  0  0  0  0  0  0
   26.6539   18.3268   17.9075 H   0  0  0  0  0  0  0  0  0  0  0  0
   27.9171   18.0835   16.6336 H   0  0  0  0  0  0  0  0  0  0  0  0
   26.6691   21.3079   15.0203 H   0  0  0  0  0  0  0  0  0  0  0  0
   21.1750   14.1805    5.8722 H   0  0  0  0  0  0  0  0  0  0  0  0
  1  2  1  0
  2  3  1  0
  3  4  2  0
  4  5  1  0
  5  6  1  0
  6  7  2  0
  6  8  2  0
  6  9  1  0
  9 10  1  0
 10 11  2  0
 11 12  1  0
 12 13  2  0
 13 14  1  0
 14 15  2  0
 14 16  1  0
 16 17  2  0
 16 18  1  0
 18 19  1  0
 19 20  1  0
 20 21  1  0
 21 22  1  0
 22 23  2  0
 22 24  1  0
 24 25  1  0
 25 26  2  0
 18 27  1  0
 27 28  2  0
  5 29  1  0
 29 30  2  0
 30  3  1  0
 15 10  1  0
 25 19  1  0
 27 13  1  0
  1 31  1  0
  1 32  1  0
  1 33  1  0
  2 34  1  0
  2 35  1  0
  4 36  1  0
 11 37  1  0
 12 38  1  0
 19 39  1  6
 20 40  1  0
 20 41  1  0
 21 42  1  0
 21 43  1  0
 24 44  1  0
 29 45  1  0
M  END
>  <meeko>  (1093) 
{"is_sidechain": [true], "free_energy": -10.26, "intermolecular_energy": 0.0, "internal_energy": -10.26, "cluster_size": 19, "cluster_id": 1, "rank_in_cluster": 1}

>  <_RMSD_MCS_to_ref>  (1093) 
1.7329194400531966

$$$$
ligand
     RDKit          3D

 46 49  0  0  0  0  0  0  0  0999 V2000
   18.7970   18.8170    7.7190 C   0  0  0  0  0  0  0  0  0  0  0  0
   18.5280   17.3290    7.8810 C   0  0  0  0  0  0  0  0  0  0  0  0
   19.7660   16.5160    7.7330 C   0  0  0  0  0  0  0  0  0  0  0  0
   20.5360   15.9210    8.7130 C   0  0  0  0  0  0  0  0  0  0  0  0
   21.5300   15.2910    8.0200 N   0  0  0  0  0  0  0  0  0  0  0  0
   22.8510   14.4910    8.6850 S   0  0  0  0  0  6  0  0  0  0  0  0
   23.8910   15.4970    8.8030 O   0  0  0  0  0  0  0  0  0  0  0  0
   23.0130   13.2900    7.8870 O   0  0  0  0  0  0  0  0  0  0  0  0
   22.3550   14.0170   10.3080 C   0  0  0  0  0  0  0  0  0  0  0  0
   21.2620   13.2190   10.3730 N   0  0  0  0  0  0  0  0  0  0  0  0
   20.8450   12.8370   11.5870 C   0  0  0  0  0  0  0  0  0  0  0  0
   21.3950   13.1590   12.7590 N   0  0  0  0  0  0  0  0  0  0  0  0
   22.4850   13.9600   12.6800 C   0  0  0  0  0  0  0  0  0  0  0  0
   23.2350   14.4380   13.7900 C   0  0  0  0  0  0  0  0  0  0  0  0
   24.2970   15.2390   13.4210 C   0  0  0  0  0  0  0  0  0  0  0  0
   25.2480   15.8810   14.3180 C   0  0  0  0  0  0  0  0  0  0  0  0
   26.0120   15.2450   15.0390 O   0  0  0  0  0  0  0  0  0  0  0  0
   25.2570   17.2580   14.3130 N   0  0  0  0  0  0  0  0  0  0  0  0
   26.2510   18.0260   15.0450 C   0  0  2  0  0  0  0  0  0  0  0  0
   26.1330   17.8320   16.5540 C   0  0  0  0  0  0  0  0  0  0  0  0
   27.1750   18.6880   17.2570 C   0  0  0  0  0  0  0  0  0  0  0  0
   27.0470   20.1420   16.8640 C   0  0  0  0  0  0  0  0  0  0  0  0
   27.2910   21.0580   17.6430 O   0  0  0  0  0  0  0  0  0  0  0  0
   26.6680   20.3970   15.5700 N   0  0  0  0  0  0  0  0  0  0  0  0
   26.0590   19.5100   14.7180 C   0  0  0  0  0  0  0  0  0  0  0  0
   25.4140   19.9000   13.7470 O   0  0  0  0  0  0  0  0  0  0  0  0
   24.3760   15.4040   11.7200 S   0  0  0  0  0  0  0  0  0  0  0  0
   22.9990   14.4120   11.4700 C   0  0  0  0  0  0  0  0  0  0  0  0
   21.3760   15.5390    6.6930 C   0  0  0  0  0  0  0  0  0  0  0  0
   20.3020   16.2740    6.4830 N   0  0  0  0  0  0  0  0  0  0  0  0
   18.8815   19.2845    8.7111 H   0  0  0  0  0  0  0  0  0  0  0  0
   19.7359   18.9616    7.1643 H   0  0  0  0  0  0  0  0  0  0  0  0
   17.9682   19.2812    7.1643 H   0  0  0  0  0  0  0  0  0  0  0  0
   18.1050   17.1520    8.8809 H   0  0  0  0  0  0  0  0  0  0  0  0
   17.8264   17.0240    7.0906 H   0  0  0  0  0  0  0  0  0  0  0  0
   20.3836   15.9483    9.8021 H   0  0  0  0  0  0  0  0  0  0  0  0
   19.9560   12.1901   11.6214 H   0  0  0  0  0  0  0  0  0  0  0  0
   22.9936   14.1944   14.8352 H   0  0  0  0  0  0  0  0  0  0  0  0
   24.5369   17.7596   13.7737 H   0  0  0  0  0  0  0  0  0  0  0  0
   27.2472   17.6737   14.7394 H   0  0  0  0  0  0  0  0  0  0  0  0
   25.1278   18.1320   16.8850 H   0  0  0  0  0  0  0  0  0  0  0  0
   26.2994   16.7734   16.8022 H   0  0  0  0  0  0  0  0  0  0  0  0
   27.0385   18.5974   18.3447 H   0  0  0  0  0  0  0  0  0  0  0  0
   28.1732   18.3344   16.9593 H   0  0  0  0  0  0  0  0  0  0  0  0
   26.8581   21.3410   15.2045 H   0  0  0  0  0  0  0  0  0  0  0  0
   22.0525   15.1773    5.9046 H   0  0  0  0  0  0  0  0  0  0  0  0
  1  2  1  0
  2  3  1  0
  3  4  2  0
  4  5  1  0
  5  6  1  0
  6  7  2  0
  6  8  2  0
  6  9  1  0
  9 10  2  0
 10 11  1  0
 11 12  2  0
 12 13  1  0
 13 14  1  0
 14 15  2  0
 15 16  1  0
 16 17  2  0
 16 18  1  0
 18 19  1  0
 19 20  1  0
 20 21  1  0
 21 22  1  0
 22 23  2  0
 22 24  1  0
 24 25  1  0
 25 26  2  0
 15 27  1  0
 27 28  1  0
  5 29  1  0
 29 30  2  0
 30  3  1  0
 28  9  1  0
 28 13  2  0
 25 19  1  0
  1 31  1  0
  1 32  1  0
  1 33  1  0
  2 34  1  0
  2 35  1  0
  4 36  1  0
 11 37  1  0
 14 38  1  0
 18 39  1  0
 19 40  1  6
 20 41  1  0
 20 42  1  0
 21 43  1  0
 21 44  1  0
 24 45  1  0
 29 46  1  0
M  END
>  <meeko>  (1094) 
{"is_sidechain": [true], "free_energy": -10.26, "intermolecular_energy": 0.0, "internal_energy": -10.26, "cluster_size": 19, "cluster_id": 1, "rank_in_cluster": 1}

>  <_RMSD_MCS_to_ref>  (1094) 
0.7206865553839001

$$$$
ligand
     RDKit          3D

 48 51  0  0  0  0  0  0  0  0999 V2000
   18.9090   19.1540    7.5370 C   0  0  0  0  0  0  0  0  0  0  0  0
   18.7730   17.6460    7.6780 C   0  0  0  0  0  0  0  0  0  0  0  0
   20.0940   16.9620    7.6910 C   0  0  0  0  0  0  0  0  0  0  0  0
   20.5080   15.8870    8.4520 C   0  0  0  0  0  0  0  0  0  0  0  0
   21.7970   15.6690    8.0520 N   0  0  0  0  0  0  0  0  0  0  0  0
   22.8880   14.6130    8.7700 S   0  0  0  0  0  6  0  0  0  0  0  0
   22.1780   14.0590    9.9070 O   0  0  0  0  0  0  0  0  0  0  0  0
   23.3850   13.7910    7.6840 O   0  0  0  0  0  0  0  0  0  0  0  0
   24.2490   15.5700    9.3940 C   0  0  0  0  0  0  0  0  0  0  0  0
   25.4270   15.6970    8.6480 C   0  0  0  0  0  0  0  0  0  0  0  0
   26.4780   16.4500    9.1560 C   0  0  0  0  0  0  0  0  0  0  0  0
   26.3490   17.0710   10.3970 C   0  0  0  0  0  0  0  0  0  0  0  0
   25.1960   16.9630   11.1590 C   0  0  0  0  0  0  0  0  0  0  0  0
   25.1770   17.6020   12.3410 N   0  0  0  0  0  0  0  0  0  0  0  0
   24.0810   17.5400   13.1180 C   0  0  0  0  0  0  0  0  0  0  0  0
   24.0600   18.1660   14.3710 N   0  0  0  0  0  0  0  0  0  0  0  0
   25.3740   18.5310   14.9240 C   0  0  2  0  0  0  0  0  0  0  0  0
   25.3780   18.3310   16.4380 C   0  0  0  0  0  0  0  0  0  0  0  0
   26.7080   18.7870   17.0120 C   0  0  0  0  0  0  0  0  0  0  0  0
   26.9880   20.2280   16.6640 C   0  0  0  0  0  0  0  0  0  0  0  0
   27.6790   20.9540   17.3730 O   0  0  0  0  0  0  0  0  0  0  0  0
   26.4770   20.6820   15.4750 N   0  0  0  0  0  0  0  0  0  0  0  0
   25.6440   20.0120   14.6120 C   0  0  0  0  0  0  0  0  0  0  0  0
   25.1760   20.5780   13.6230 O   0  0  0  0  0  0  0  0  0  0  0  0
   22.9730   16.8040   12.7340 C   0  0  0  0  0  0  0  0  0  0  0  0
   22.9850   16.1410   11.5090 C   0  0  0  0  0  0  0  0  0  0  0  0
   24.1160   16.2030   10.6670 C   0  0  0  0  0  0  0  0  0  0  0  0
   22.1340   16.5910    7.1130 C   0  0  0  0  0  0  0  0  0  0  0  0
   21.1220   17.3990    6.8770 N   0  0  0  0  0  0  0  0  0  0  0  0
   18.9504   19.6134    8.5356 H   0  0  0  0  0  0  0  0  0  0  0  0
   19.8320   19.3891    6.9867 H   0  0  0  0  0  0  0  0  0  0  0  0
   18.0430   19.5504    6.9867 H   0  0  0  0  0  0  0  0  0  0  0  0
   18.2497   17.4239    8.6197 H   0  0  0  0  0  0  0  0  0  0  0  0
   18.2088   17.2749    6.8097 H   0  0  0  0  0  0  0  0  0  0  0  0
   19.9322   15.3325    9.2076 H   0  0  0  0  0  0  0  0  0  0  0  0
   25.5194   15.2050    7.6685 H   0  0  0  0  0  0  0  0  0  0  0  0
   27.4094   16.5558    8.5804 H   0  0  0  0  0  0  0  0  0  0  0  0
   27.1892   17.6660   10.7843 H   0  0  0  0  0  0  0  0  0  0  0  0
   23.1814   18.3584   14.8729 H   0  0  0  0  0  0  0  0  0  0  0  0
   26.1514   17.8953   14.4751 H   0  0  0  0  0  0  0  0  0  0  0  0
   24.5649   18.9206   16.8867 H   0  0  0  0  0  0  0  0  0  0  0  0
   25.2303   17.2648   16.6646 H   0  0  0  0  0  0  0  0  0  0  0  0
   26.6815   18.6810   18.1066 H   0  0  0  0  0  0  0  0  0  0  0  0
   27.5052   18.1637   16.5807 H   0  0  0  0  0  0  0  0  0  0  0  0
   26.7492   21.6356   15.1968 H   0  0  0  0  0  0  0  0  0  0  0  0
   22.0919   16.7434   13.3898 H   0  0  0  0  0  0  0  0  0  0  0  0
   22.1036   15.5629   11.1945 H   0  0  0  0  0  0  0  0  0  0  0  0
   23.1149   16.6536    6.6192 H   0  0  0  0  0  0  0  0  0  0  0  0
  1  2  1  0
  2  3  1  0
  3  4  2  0
  4  5  1  0
  5  6  1  0
  6  7  2  0
  6  8  2  0
  6  9  1  0
  9 10  2  0
 10 11  1  0
 11 12  2  0
 12 13  1  0
 13 14  2  0
 14 15  1  0
 15 16  1  0
 16 17  1  0
 17 18  1  0
 18 19  1  0
 19 20  1  0
 20 21  2  0
 20 22  1  0
 22 23  1  0
 23 24  2  0
 15 25  2  0
 25 26  1  0
 26 27  2  0
  5 28  1  0
 28 29  2  0
 29  3  1  0
 27  9  1  0
 27 13  1  0
 23 17  1  0
  1 30  1  0
  1 31  1  0
  1 32  1  0
  2 33  1  0
  2 34  1  0
  4 35  1  0
 10 36  1  0
 11 37  1  0
 12 38  1  0
 16 39  1  0
 17 40  1  6
 18 41  1  0
 18 42  1  0
 19 43  1  0
 19 44  1  0
 22 45  1  0
 25 46  1  0
 26 47  1  0
 28 48  1  0
M  END
>  <meeko>  (1095) 
{"is_sidechain": [true], "free_energy": -10.26, "intermolecular_energy": 0.0, "internal_energy": -10.26, "cluster_size": 20, "cluster_id": 1, "rank_in_cluster": 1}

>  <_RMSD_MCS_to_ref>  (1095) 
0.7546900761975811

$$$$
ligand
     RDKit          3D

 48 51  0  0  0  0  0  0  0  0999 V2000
   18.9090   19.1540    7.5370 C   0  0  0  0  0  0  0  0  0  0  0  0
   18.7730   17.6460    7.6780 C   0  0  0  0  0  0  0  0  0  0  0  0
   19.9420   16.9210    7.1100 C   0  0  0  0  0  0  0  0  0  0  0  0
   20.8080   16.0460    7.7340 C   0  0  0  0  0  0  0  0  0  0  0  0
   21.6920   15.6950    6.7550 N   0  0  0  0  0  0  0  0  0  0  0  0
   22.9030   14.5470    6.8810 S   0  0  0  0  0  6  0  0  0  0  0  0
   23.5740   14.5050    5.5950 O   0  0  0  0  0  0  0  0  0  0  0  0
   22.3050   13.3760    7.4940 O   0  0  0  0  0  0  0  0  0  0  0  0
   24.1000   15.0870    8.0030 C   0  0  0  0  0  0  0  0  0  0  0  0
   25.4410   15.2020    7.6770 N   0  0  0  0  0  0  0  0  0  0  0  0
   26.0220   15.6460    8.7720 C   0  0  0  0  0  0  0  0  0  0  0  0
   25.1290   15.8240    9.8000 N   0  0  0  0  0  0  0  0  0  0  0  0
   25.3460   16.2630   11.1000 C   0  0  0  0  0  0  0  0  0  0  0  0
   24.3020   16.3470   11.9490 C   0  0  0  0  0  0  0  0  0  0  0  0
   24.5720   16.8340   13.3350 C   0  0  0  0  0  0  0  0  0  0  0  0
   24.2710   16.1730   14.3230 O   0  0  0  0  0  0  0  0  0  0  0  0
   25.1260   18.0860   13.4100 N   0  0  0  0  0  0  0  0  0  0  0  0
   25.2920   18.7660   14.6870 C   0  0  1  0  0  0  0  0  0  0  0  0
   26.2900   18.0550   15.5960 C   0  0  0  0  0  0  0  0  0  0  0  0
   26.4450   18.8390   16.8900 C   0  0  0  0  0  0  0  0  0  0  0  0
   26.8480   20.2700   16.6200 C   0  0  0  0  0  0  0  0  0  0  0  0
   27.5820   20.9010   17.3740 O   0  0  0  0  0  0  0  0  0  0  0  0
   26.3260   20.8530   15.4920 N   0  0  0  0  0  0  0  0  0  0  0  0
   25.7900   20.1880   14.4180 C   0  0  0  0  0  0  0  0  0  0  0  0
   25.7100   20.7220   13.3120 O   0  0  0  0  0  0  0  0  0  0  0  0
   22.9670   16.0070   11.4550 C   0  0  0  0  0  0  0  0  0  0  0  0
   22.7670   15.5800   10.1910 C   0  0  0  0  0  0  0  0  0  0  0  0
   23.8810   15.4690    9.3110 C   0  0  0  0  0  0  0  0  0  0  0  0
   21.3250   16.2880    5.5910 C   0  0  0  0  0  0  0  0  0  0  0  0
   20.2790   17.0660    5.7780 N   0  0  0  0  0  0  0  0  0  0  0  0
   18.9504   19.6134    8.5356 H   0  0  0  0  0  0  0  0  0  0  0  0
   19.8320   19.3891    6.9867 H   0  0  0  0  0  0  0  0  0  0  0  0
   18.0430   19.5504    6.9867 H   0  0  0  0  0  0  0  0  0  0  0  0
   18.6859   17.3964    8.7458 H   0  0  0  0  0  0  0  0  0  0  0  0
   17.8780   17.3338    7.1198 H   0  0  0  0  0  0  0  0  0  0  0  0
   20.7899   15.7087    8.7808 H   0  0  0  0  0  0  0  0  0  0  0  0
   27.0996   15.8509    8.8540 H   0  0  0  0  0  0  0  0  0  0  0  0
   26.3575   16.5388   11.4327 H   0  0  0  0  0  0  0  0  0  0  0  0
   25.4310   18.5552   12.5453 H   0  0  0  0  0  0  0  0  0  0  0  0
   24.3192   18.7703   15.2005 H   0  0  0  0  0  0  0  0  0  0  0  0
   25.9234   17.0428   15.8222 H   0  0  0  0  0  0  0  0  0  0  0  0
   27.2640   17.9875   15.0893 H   0  0  0  0  0  0  0  0  0  0  0  0
   25.4867   18.8324   17.4299 H   0  0  0  0  0  0  0  0  0  0  0  0
   27.2339   18.3637   17.4915 H   0  0  0  0  0  0  0  0  0  0  0  0
   26.3377   21.8820   15.4479 H   0  0  0  0  0  0  0  0  0  0  0  0
   22.1048   16.1020   12.1315 H   0  0  0  0  0  0  0  0  0  0  0  0
   21.7557   15.3208    9.8444 H   0  0  0  0  0  0  0  0  0  0  0  0
   21.8308   16.1395    4.6255 H   0  0  0  0  0  0  0  0  0  0  0  0
  1  2  1  0
  2  3  1  0
  3  4  2  0
  4  5  1  0
  5  6  1  0
  6  7  2  0
  6  8  2  0
  6  9  1  0
  9 10  1  0
 10 11  2  0
 11 12  1  0
 12 13  1  0
 13 14  2  0
 14 15  1  0
 15 16  2  0
 15 17  1  0
 17 18  1  0
 18 19  1  0
 19 20  1  0
 20 21  1  0
 21 22  2  0
 21 23  1  0
 23 24  1  0
 24 25  2  0
 14 26  1  0
 26 27  2  0
 27 28  1  0
  5 29  1  0
 29 30  2  0
 30  3  1  0
 28  9  2  0
 28 12  1  0
 24 18  1  0
  1 31  1  0
  1 32  1  0
  1 33  1  0
  2 34  1  0
  2 35  1  0
  4 36  1  0
 11 37  1  0
 13 38  1  0
 17 39  1  0
 18 40  1  1
 19 41  1  0
 19 42  1  0
 20 43  1  0
 20 44  1  0
 23 45  1  0
 26 46  1  0
 27 47  1  0
 29 48  1  0
M  END
>  <meeko>  (1096) 
{"is_sidechain": [true], "free_energy": -10.26, "intermolecular_energy": 0.0, "internal_energy": -10.26, "cluster_size": 19, "cluster_id": 1, "rank_in_cluster": 1}

>  <_RMSD_MCS_to_ref>  (1096) 
0.6665272354191956

$$$$
ligand
     RDKit          3D

 47 50  0  0  0  0  0  0  0  0999 V2000
   18.9090   19.1540    7.5370 C   0  0  0  0  0  0  0  0  0  0  0  0
   18.7730   17.6460    7.6780 C   0  0  0  0  0  0  0  0  0  0  0  0
   19.9230   16.9190    7.0750 C   0  0  0  0  0  0  0  0  0  0  0  0
   21.0820   16.4710    7.6780 C   0  0  0  0  0  0  0  0  0  0  0  0
   21.7940   15.9070    6.6590 N   0  0  0  0  0  0  0  0  0  0  0  0
   23.2000   15.0110    6.8230 S   0  0  0  0  0  6  0  0  0  0  0  0
   22.8350   13.6260    6.6030 O   0  0  0  0  0  0  0  0  0  0  0  0
   24.2170   15.6970    6.0510 O   0  0  0  0  0  0  0  0  0  0  0  0
   23.7350   15.1070    8.5170 C   0  0  0  0  0  0  0  0  0  0  0  0
   23.8650   16.2040    9.3650 C   0  0  0  0  0  0  0  0  0  0  0  0
   24.3340   15.7290   10.6040 C   0  0  0  0  0  0  0  0  0  0  0  0
   24.6170   16.3930   11.7500 N   0  0  0  0  0  0  0  0  0  0  0  0
   25.0560   15.5840   12.7590 C   0  0  0  0  0  0  0  0  0  0  0  0
   25.3770   16.2830   14.0480 C   0  0  0  0  0  0  0  0  0  0  0  0
   25.6270   15.6610   15.0750 O   0  0  0  0  0  0  0  0  0  0  0  0
   25.3540   17.6580   13.9810 N   0  0  0  0  0  0  0  0  0  0  0  0
   25.4800   18.5010   15.1570 C   0  0  1  0  0  0  0  0  0  0  0  0
   26.4380   17.9090   16.1850 C   0  0  0  0  0  0  0  0  0  0  0  0
   26.5430   18.8440   17.3790 C   0  0  0  0  0  0  0  0  0  0  0  0
   26.9630   20.2300   16.9540 C   0  0  0  0  0  0  0  0  0  0  0  0
   27.6580   20.9540   17.6610 O   0  0  0  0  0  0  0  0  0  0  0  0
   26.4990   20.6680   15.7390 N   0  0  0  0  0  0  0  0  0  0  0  0
   25.9910   19.8830   14.7340 C   0  0  0  0  0  0  0  0  0  0  0  0
   25.9420   20.2940   13.5760 O   0  0  0  0  0  0  0  0  0  0  0  0
   25.2170   14.1990   12.6810 C   0  0  0  0  0  0  0  0  0  0  0  0
   24.9170   13.5370   11.4900 C   0  0  0  0  0  0  0  0  0  0  0  0
   24.4720   14.3570   10.4620 C   0  0  0  0  0  0  0  0  0  0  0  0
   24.1150   13.9740    9.2110 O   0  0  0  0  0  0  0  0  0  0  0  0
   21.0580   15.9590    5.5200 C   0  0  0  0  0  0  0  0  0  0  0  0
   19.9210   16.5870    5.7330 N   0  0  0  0  0  0  0  0  0  0  0  0
   18.9504   19.6134    8.5356 H   0  0  0  0  0  0  0  0  0  0  0  0
   19.8320   19.3891    6.9867 H   0  0  0  0  0  0  0  0  0  0  0  0
   18.0430   19.5504    6.9867 H   0  0  0  0  0  0  0  0  0  0  0  0
   18.7159   17.3939    8.7472 H   0  0  0  0  0  0  0  0  0  0  0  0
   17.8616   17.3378    7.1447 H   0  0  0  0  0  0  0  0  0  0  0  0
   21.3664   16.5505    8.7376 H   0  0  0  0  0  0  0  0  0  0  0  0
   23.6418   17.2511    9.1124 H   0  0  0  0  0  0  0  0  0  0  0  0
   25.2430   18.1066   13.0605 H   0  0  0  0  0  0  0  0  0  0  0  0
   24.4870   18.5772   15.6240 H   0  0  0  0  0  0  0  0  0  0  0  0
   26.0600   16.9310   16.5176 H   0  0  0  0  0  0  0  0  0  0  0  0
   27.4315   17.7833   15.7299 H   0  0  0  0  0  0  0  0  0  0  0  0
   25.5632   18.9028   17.8755 H   0  0  0  0  0  0  0  0  0  0  0  0
   27.3039   18.4458   18.0664 H   0  0  0  0  0  0  0  0  0  0  0  0
   26.5354   21.6825   15.5646 H   0  0  0  0  0  0  0  0  0  0  0  0
   25.5780   13.6337   13.5528 H   0  0  0  0  0  0  0  0  0  0  0  0
   25.0249   12.4484   11.3744 H   0  0  0  0  0  0  0  0  0  0  0  0
   21.3684   15.5354    4.5535 H   0  0  0  0  0  0  0  0  0  0  0  0
  1  2  1  0
  2  3  1  0
  3  4  2  0
  4  5  1  0
  5  6  1  0
  6  7  2  0
  6  8  2  0
  6  9  1  0
  9 10  2  0
 10 11  1  0
 11 12  2  0
 12 13  1  0
 13 14  1  0
 14 15  2  0
 14 16  1  0
 16 17  1  0
 17 18  1  0
 18 19  1  0
 19 20  1  0
 20 21  2  0
 20 22  1  0
 22 23  1  0
 23 24  2  0
 13 25  2  0
 25 26  1  0
 26 27  2  0
 27 28  1  0
  5 29  1  0
 29 30  2  0
 30  3  1  0
 28  9  1  0
 27 11  1  0
 23 17  1  0
  1 31  1  0
  1 32  1  0
  1 33  1  0
  2 34  1  0
  2 35  1  0
  4 36  1  0
 10 37  1  0
 16 38  1  0
 17 39  1  1
 18 40  1  0
 18 41  1  0
 19 42  1  0
 19 43  1  0
 22 44  1  0
 25 45  1  0
 26 46  1  0
 29 47  1  0
M  END
>  <meeko>  (1097) 
{"is_sidechain": [true], "free_energy": -10.26, "intermolecular_energy": 0.0, "internal_energy": -10.26, "cluster_size": 4, "cluster_id": 1, "rank_in_cluster": 1}

>  <_RMSD_MCS_to_ref>  (1097) 
0.8341626540030028

$$$$
ligand
     RDKit          3D

 49 52  0  0  0  0  0  0  0  0999 V2000
   18.9090   19.1540    7.5370 C   0  0  0  0  0  0  0  0  0  0  0  0
   18.7730   17.6460    7.6780 C   0  0  0  0  0  0  0  0  0  0  0  0
   19.9260   16.9190    7.0790 C   0  0  0  0  0  0  0  0  0  0  0  0
   21.2750   17.2010    7.1730 C   0  0  0  0  0  0  0  0  0  0  0  0
   21.8720   16.2350    6.4160 N   0  0  0  0  0  0  0  0  0  0  0  0
   23.5210   15.9260    6.3350 S   0  0  0  0  0  6  0  0  0  0  0  0
   23.6960   15.0120    5.2230 O   0  0  0  0  0  0  0  0  0  0  0  0
   24.1780   17.2170    6.3940 O   0  0  0  0  0  0  0  0  0  0  0  0
   23.8610   15.0590    7.8410 C   0  0  0  0  0  0  0  0  0  0  0  0
   23.9060   13.6670    7.8540 C   0  0  0  0  0  0  0  0  0  0  0  0
   24.1850   13.0090    9.0530 C   0  0  0  0  0  0  0  0  0  0  0  0
   24.4270   13.7120   10.2270 C   0  0  0  0  0  0  0  0  0  0  0  0
   24.6880   13.0380   11.3630 N   0  0  0  0  0  0  0  0  0  0  0  0
   24.9160   13.7850   12.4720 C   0  0  0  0  0  0  0  0  0  0  0  0
   24.8820   15.1640   12.4410 C   0  0  0  0  0  0  0  0  0  0  0  0
   25.1280   15.9500   13.6820 C   0  0  0  0  0  0  0  0  0  0  0  0
   25.2200   15.4070   14.7770 O   0  0  0  0  0  0  0  0  0  0  0  0
   25.2270   17.3100   13.4920 N   0  0  0  0  0  0  0  0  0  0  0  0
   25.2990   18.2520   14.5960 C   0  0  1  0  0  0  0  0  0  0  0  0
   26.2340   17.7690   15.6990 C   0  0  0  0  0  0  0  0  0  0  0  0
   26.2860   18.8070   16.8100 C   0  0  0  0  0  0  0  0  0  0  0  0
   26.6960   20.1590   16.2780 C   0  0  0  0  0  0  0  0  0  0  0  0
   27.3580   20.9540   16.9380 O   0  0  0  0  0  0  0  0  0  0  0  0
   26.2620   20.4820   15.0160 N   0  0  0  0  0  0  0  0  0  0  0  0
   25.7990   19.6020   14.0680 C   0  0  0  0  0  0  0  0  0  0  0  0
   25.7810   19.9070   12.8770 O   0  0  0  0  0  0  0  0  0  0  0  0
   24.6180   15.8670   11.3040 N   0  0  0  0  0  0  0  0  0  0  0  0
   24.3920   15.1330   10.2000 C   0  0  0  0  0  0  0  0  0  0  0  0
   24.1160   15.7850    9.0080 C   0  0  0  0  0  0  0  0  0  0  0  0
   20.9200   15.3910    5.9380 C   0  0  0  0  0  0  0  0  0  0  0  0
   19.7230   15.7850    6.3170 N   0  0  0  0  0  0  0  0  0  0  0  0
   18.9504   19.6134    8.5356 H   0  0  0  0  0  0  0  0  0  0  0  0
   19.8320   19.3891    6.9867 H   0  0  0  0  0  0  0  0  0  0  0  0
   18.0430   19.5504    6.9867 H   0  0  0  0  0  0  0  0  0  0  0  0
   18.7122   17.3942    8.7471 H   0  0  0  0  0  0  0  0  0  0  0  0
   17.8636   17.3373    7.1417 H   0  0  0  0  0  0  0  0  0  0  0  0
   21.7576   18.0173    7.7304 H   0  0  0  0  0  0  0  0  0  0  0  0
   23.7243   13.0943    6.9326 H   0  0  0  0  0  0  0  0  0  0  0  0
   24.2139   11.9095    9.0689 H   0  0  0  0  0  0  0  0  0  0  0  0
   25.1342   13.2770   13.4230 H   0  0  0  0  0  0  0  0  0  0  0  0
   25.2510   17.6742   12.5289 H   0  0  0  0  0  0  0  0  0  0  0  0
   24.2915   18.3479   15.0269 H   0  0  0  0  0  0  0  0  0  0  0  0
   25.8619   16.8165   16.1042 H   0  0  0  0  0  0  0  0  0  0  0  0
   27.2431   17.6225   15.2864 H   0  0  0  0  0  0  0  0  0  0  0  0
   25.2903   18.8898   17.2701 H   0  0  0  0  0  0  0  0  0  0  0  0
   27.0316   18.4849   17.5518 H   0  0  0  0  0  0  0  0  0  0  0  0
   26.2858   21.4782   14.7554 H   0  0  0  0  0  0  0  0  0  0  0  0
   24.0975   16.8845    8.9803 H   0  0  0  0  0  0  0  0  0  0  0  0
   21.1218   14.5031    5.3209 H   0  0  0  0  0  0  0  0  0  0  0  0
  1  2  1  0
  2  3  1  0
  3  4  2  0
  4  5  1  0
  5  6  1  0
  6  7  2  0
  6  8  2  0
  6  9  1  0
  9 10  2  0
 10 11  1  0
 11 12  2  0
 12 13  1  0
 13 14  2  0
 14 15  1  0
 15 16  1  0
 16 17  2  0
 16 18  1  0
 18 19  1  0
 19 20  1  0
 20 21  1  0
 21 22  1  0
 22 23  2  0
 22 24  1  0
 24 25  1  0
 25 26  2  0
 15 27  2  0
 27 28  1  0
 28 29  2  0
  5 30  1  0
 30 31  2  0
 31  3  1  0
 29  9  1  0
 28 12  1  0
 25 19  1  0
  1 32  1  0
  1 33  1  0
  1 34  1  0
  2 35  1  0
  2 36  1  0
  4 37  1  0
 10 38  1  0
 11 39  1  0
 14 40  1  0
 18 41  1  0
 19 42  1  1
 20 43  1  0
 20 44  1  0
 21 45  1  0
 21 46  1  0
 24 47  1  0
 29 48  1  0
 30 49  1  0
M  END
>  <meeko>  (1098) 
{"is_sidechain": [true], "free_energy": -10.26, "intermolecular_energy": 0.0, "internal_energy": -10.26, "cluster_size": 20, "cluster_id": 1, "rank_in_cluster": 1}

>  <_RMSD_MCS_to_ref>  (1098) 
0.6002080194954629

$$$$
ligand
     RDKit          3D

 48 51  0  0  0  0  0  0  0  0999 V2000
   18.9090   19.1540    7.5370 C   0  0  0  0  0  0  0  0  0  0  0  0
   18.7730   17.6460    7.6780 C   0  0  0  0  0  0  0  0  0  0  0  0
   19.8410   16.9150    6.9420 C   0  0  0  0  0  0  0  0  0  0  0  0
   21.1220   16.6050    7.3510 C   0  0  0  0  0  0  0  0  0  0  0  0
   21.6660   15.9500    6.2830 N   0  0  0  0  0  0  0  0  0  0  0  0
   23.1360   15.1370    6.2710 S   0  0  0  0  0  6  0  0  0  0  0  0
   22.8900   13.8900    5.5750 O   0  0  0  0  0  0  0  0  0  0  0  0
   24.1210   16.1000    5.8180 O   0  0  0  0  0  0  0  0  0  0  0  0
   23.4290   14.7880    7.9850 C   0  0  0  0  0  0  0  0  0  0  0  0
   23.3420   13.4800    8.4480 C   0  0  0  0  0  0  0  0  0  0  0  0
   23.5710   13.2010    9.7980 C   0  0  0  0  0  0  0  0  0  0  0  0
   23.8990   14.2590   10.6690 C   0  0  0  0  0  0  0  0  0  0  0  0
   24.2180   14.1480   12.3560 S   0  0  0  0  0  0  0  0  0  0  0  0
   24.5010   15.8250   12.5050 C   0  0  0  0  0  0  0  0  0  0  0  0
   24.8480   16.4530   13.7730 C   0  0  0  0  0  0  0  0  0  0  0  0
   24.9030   15.8310   14.8310 O   0  0  0  0  0  0  0  0  0  0  0  0
   25.1080   17.8050   13.7310 N   0  0  0  0  0  0  0  0  0  0  0  0
   25.3100   18.5920   14.9360 C   0  0  1  0  0  0  0  0  0  0  0  0
   26.3370   17.9620   15.8710 C   0  0  0  0  0  0  0  0  0  0  0  0
   26.5270   18.8510   17.0890 C   0  0  0  0  0  0  0  0  0  0  0  0
   26.9160   20.2550   16.6890 C   0  0  0  0  0  0  0  0  0  0  0  0
   27.6690   20.9480   17.3650 O   0  0  0  0  0  0  0  0  0  0  0  0
   26.3580   20.7410   15.5340 N   0  0  0  0  0  0  0  0  0  0  0  0
   25.7950   19.9890   14.5330 C   0  0  0  0  0  0  0  0  0  0  0  0
   25.6830   20.4300   13.3900 O   0  0  0  0  0  0  0  0  0  0  0  0
   24.3540   16.4620   11.2890 C   0  0  0  0  0  0  0  0  0  0  0  0
   24.0040   15.5760   10.2170 C   0  0  0  0  0  0  0  0  0  0  0  0
   23.7700   15.8400    8.8460 C   0  0  0  0  0  0  0  0  0  0  0  0
   20.7290   15.8380    5.3070 C   0  0  0  0  0  0  0  0  0  0  0  0
   19.6090   16.4250    5.6710 N   0  0  0  0  0  0  0  0  0  0  0  0
   18.9504   19.6134    8.5356 H   0  0  0  0  0  0  0  0  0  0  0  0
   19.8320   19.3891    6.9867 H   0  0  0  0  0  0  0  0  0  0  0  0
   18.0430   19.5504    6.9867 H   0  0  0  0  0  0  0  0  0  0  0  0
   18.8335   17.3828    8.7443 H   0  0  0  0  0  0  0  0  0  0  0  0
   17.8041   17.3521    7.2481 H   0  0  0  0  0  0  0  0  0  0  0  0
   21.5967   16.8333    8.3167 H   0  0  0  0  0  0  0  0  0  0  0  0
   23.0931   12.6653    7.7521 H   0  0  0  0  0  0  0  0  0  0  0  0
   23.4963   12.1704   10.1753 H   0  0  0  0  0  0  0  0  0  0  0  0
   25.1610   18.2737   12.8154 H   0  0  0  0  0  0  0  0  0  0  0  0
   24.3524   18.6406   15.4751 H   0  0  0  0  0  0  0  0  0  0  0  0
   25.9816   16.9717   16.1919 H   0  0  0  0  0  0  0  0  0  0  0  0
   27.2959   17.8545   15.3428 H   0  0  0  0  0  0  0  0  0  0  0  0
   25.5851   18.8880   17.6560 H   0  0  0  0  0  0  0  0  0  0  0  0
   27.3354   18.4288   17.7041 H   0  0  0  0  0  0  0  0  0  0  0  0
   26.3618   21.7630   15.4062 H   0  0  0  0  0  0  0  0  0  0  0  0
   24.4921   17.5451   11.1552 H   0  0  0  0  0  0  0  0  0  0  0  0
   23.8554   16.8659    8.4583 H   0  0  0  0  0  0  0  0  0  0  0  0
   20.8845   15.3273    4.3452 H   0  0  0  0  0  0  0  0  0  0  0  0
  1  2  1  0
  2  3  1  0
  3  4  2  0
  4  5  1  0
  5  6  1  0
  6  7  2  0
  6  8  2  0
  6  9  1  0
  9 10  2  0
 10 11  1  0
 11 12  2  0
 12 13  1  0
 13 14  1  0
 14 15  1  0
 15 16  2  0
 15 17  1  0
 17 18  1  0
 18 19  1  0
 19 20  1  0
 20 21  1  0
 21 22  2  0
 21 23  1  0
 23 24  1  0
 24 25  2  0
 14 26  2  0
 26 27  1  0
 27 28  2  0
  5 29  1  0
 29 30  2  0
 30  3  1  0
 28  9  1  0
 27 12  1  0
 24 18  1  0
  1 31  1  0
  1 32  1  0
  1 33  1  0
  2 34  1  0
  2 35  1  0
  4 36  1  0
 10 37  1  0
 11 38  1  0
 17 39  1  0
 18 40  1  1
 19 41  1  0
 19 42  1  0
 20 43  1  0
 20 44  1  0
 23 45  1  0
 26 46  1  0
 28 47  1  0
 29 48  1  0
M  END
>  <meeko>  (1099) 
{"is_sidechain": [true], "free_energy": -10.26, "intermolecular_energy": 0.0, "internal_energy": -10.26, "cluster_size": 16, "cluster_id": 1, "rank_in_cluster": 1}

>  <_RMSD_MCS_to_ref>  (1099) 
0.6230529672507786

$$$$
ligand
     RDKit          3D

 44 46  0  0  0  0  0  0  0  0999 V2000
   18.9090   19.1540    7.5370 C   0  0  0  0  0  0  0  0  0  0  0  0
   18.7730   17.6460    7.6780 C   0  0  0  0  0  0  0  0  0  0  0  0
   20.0810   16.9490    7.5390 C   0  0  0  0  0  0  0  0  0  0  0  0
   21.1010   16.8250    8.4630 C   0  0  0  0  0  0  0  0  0  0  0  0
   22.0620   16.1120    7.8060 N   0  0  0  0  0  0  0  0  0  0  0  0
   23.5080   15.5640    8.4570 S   0  0  0  0  0  6  0  0  0  0  0  0
   23.7140   14.2330    7.9180 O   0  0  0  0  0  0  0  0  0  0  0  0
   24.4630   16.6380    8.2500 O   0  0  0  0  0  0  0  0  0  0  0  0
   23.2270   15.4160   10.2010 C   0  0  0  0  0  0  0  0  0  0  0  0
   24.1530   15.9430   11.0860 C   0  0  0  0  0  0  0  0  0  0  0  0
   23.8740   15.8050   12.4440 C   0  0  0  0  0  0  0  0  0  0  0  0
   24.7750   16.3420   13.4970 C   0  0  0  0  0  0  0  0  0  0  0  0
   25.3170   15.5790   14.2880 O   0  0  0  0  0  0  0  0  0  0  0  0
   24.9780   17.7030   13.5090 N   0  0  0  0  0  0  0  0  0  0  0  0
   25.9530   18.3070   14.4100 C   0  0  2  0  0  0  0  0  0  0  0  0
   25.6860   17.9580   15.8700 C   0  0  0  0  0  0  0  0  0  0  0  0
   26.7100   18.6550   16.7520 C   0  0  0  0  0  0  0  0  0  0  0  0
   26.7090   20.1490   16.5210 C   0  0  0  0  0  0  0  0  0  0  0  0
   26.9400   20.9540   17.4180 O   0  0  0  0  0  0  0  0  0  0  0  0
   26.4660   20.5720   15.2390 N   0  0  0  0  0  0  0  0  0  0  0  0
   25.8880   19.8280   14.2400 C   0  0  0  0  0  0  0  0  0  0  0  0
   25.3630   20.3630   13.2640 O   0  0  0  0  0  0  0  0  0  0  0  0
   22.6910   15.1740   12.8470 C   0  0  0  0  0  0  0  0  0  0  0  0
   21.8370   14.6830   11.8750 C   0  0  0  0  0  0  0  0  0  0  0  0
   22.0790   14.7860   10.5530 N   0  0  0  0  0  0  0  0  0  0  0  0
   21.6080   15.7890    6.5680 C   0  0  0  0  0  0  0  0  0  0  0  0
   20.4100   16.2990    6.3660 N   0  0  0  0  0  0  0  0  0  0  0  0
   18.9504   19.6134    8.5356 H   0  0  0  0  0  0  0  0  0  0  0  0
   19.8320   19.3891    6.9867 H   0  0  0  0  0  0  0  0  0  0  0  0
   18.0430   19.5504    6.9867 H   0  0  0  0  0  0  0  0  0  0  0  0
   18.3541   17.4191    8.6695 H   0  0  0  0  0  0  0  0  0  0  0  0
   18.1127   17.2894    6.8738 H   0  0  0  0  0  0  0  0  0  0  0  0
   21.1316   17.2121    9.4922 H   0  0  0  0  0  0  0  0  0  0  0  0
   25.0652   16.4465   10.7334 H   0  0  0  0  0  0  0  0  0  0  0  0
   24.4340   18.3034   12.8730 H   0  0  0  0  0  0  0  0  0  0  0  0
   26.9478   17.9141   14.1531 H   0  0  0  0  0  0  0  0  0  0  0  0
   24.6751   18.2911   16.1479 H   0  0  0  0  0  0  0  0  0  0  0  0
   25.7635   16.8694   16.0074 H   0  0  0  0  0  0  0  0  0  0  0  0
   26.4693   18.4555   17.8066 H   0  0  0  0  0  0  0  0  0  0  0  0
   27.7074   18.2657   16.4996 H   0  0  0  0  0  0  0  0  0  0  0  0
   26.7424   21.5360   15.0042 H   0  0  0  0  0  0  0  0  0  0  0  0
   22.4454   15.0706   13.9142 H   0  0  0  0  0  0  0  0  0  0  0  0
   20.9123   14.1825   12.1982 H   0  0  0  0  0  0  0  0  0  0  0  0
   22.1633   15.1852    5.8351 H   0  0  0  0  0  0  0  0  0  0  0  0
  1  2  1  0
  2  3  1  0
  3  4  2  0
  4  5  1  0
  5  6  1  0
  6  7  2  0
  6  8  2  0
  6  9  1  0
  9 10  2  0
 10 11  1  0
 11 12  1  0
 12 13  2  0
 12 14  1  0
 14 15  1  0
 15 16  1  0
 16 17  1  0
 17 18  1  0
 18 19  2  0
 18 20  1  0
 20 21  1  0
 21 22  2  0
 11 23  2  0
 23 24  1  0
 24 25  2  0
  5 26  1  0
 26 27  2  0
 27  3  1  0
 25  9  1  0
 21 15  1  0
  1 28  1  0
  1 29  1  0
  1 30  1  0
  2 31  1  0
  2 32  1  0
  4 33  1  0
 10 34  1  0
 14 35  1  0
 15 36  1  6
 16 37  1  0
 16 38  1  0
 17 39  1  0
 17 40  1  0
 20 41  1  0
 23 42  1  0
 24 43  1  0
 26 44  1  0
M  END
>  <meeko>  (1100) 
{"is_sidechain": [true], "free_energy": -10.26, "intermolecular_energy": 0.0, "internal_energy": -10.26, "cluster_size": 20, "cluster_id": 1, "rank_in_cluster": 1}

>  <_RMSD_MCS_to_ref>  (1100) 
0.633623266968981

$$$$
ligand
     RDKit          3D

 43 45  0  0  0  0  0  0  0  0999 V2000
   18.9090   19.1540    7.5370 C   0  0  0  0  0  0  0  0  0  0  0  0
   18.7730   17.6460    7.6780 C   0  0  0  0  0  0  0  0  0  0  0  0
   20.0880   16.9820    7.8900 C   0  0  0  0  0  0  0  0  0  0  0  0
   20.7210   16.6700    9.0780 C   0  0  0  0  0  0  0  0  0  0  0  0
   21.8740   16.0510    8.6910 N   0  0  0  0  0  0  0  0  0  0  0  0
   23.1560   15.6290    9.6920 S   0  0  0  0  0  6  0  0  0  0  0  0
   24.0190   16.7940    9.7330 O   0  0  0  0  0  0  0  0  0  0  0  0
   23.6150   14.3330    9.2310 O   0  0  0  0  0  0  0  0  0  0  0  0
   22.4440   15.4230   11.3010 C   0  0  0  0  0  0  0  0  0  0  0  0
   21.5720   14.3820   11.5250 C   0  0  0  0  0  0  0  0  0  0  0  0
   21.1110   14.2900   12.8150 C   0  0  0  0  0  0  0  0  0  0  0  0
   21.4760   15.1390   13.7940 N   0  0  0  0  0  0  0  0  0  0  0  0
   22.3330   16.1220   13.4550 C   0  0  0  0  0  0  0  0  0  0  0  0
   22.7740   17.0910   14.5280 C   0  0  0  0  0  0  0  0  0  0  0  0
   22.0710   17.3830   15.4900 O   0  0  0  0  0  0  0  0  0  0  0  0
   24.0370   17.6290   14.3420 N   0  0  0  0  0  0  0  0  0  0  0  0
   24.5930   18.6280   15.2370 C   0  0  1  0  0  0  0  0  0  0  0  0
   25.6570   18.0240   16.1480 C   0  0  0  0  0  0  0  0  0  0  0  0
   26.2250   19.1050   17.0510 C   0  0  0  0  0  0  0  0  0  0  0  0
   26.7660   20.2650   16.2480 C   0  0  0  0  0  0  0  0  0  0  0  0
   27.7150   20.9450   16.6300 O   0  0  0  0  0  0  0  0  0  0  0  0
   26.1170   20.5590   15.0760 N   0  0  0  0  0  0  0  0  0  0  0  0
   25.2070   19.7660   14.4170 C   0  0  0  0  0  0  0  0  0  0  0  0
   24.8980   20.0010   13.2490 O   0  0  0  0  0  0  0  0  0  0  0  0
   22.8510   16.3170   12.2260 N   0  0  0  0  0  0  0  0  0  0  0  0
   21.9380   16.0380    7.3340 C   0  0  0  0  0  0  0  0  0  0  0  0
   20.8670   16.5990    6.8140 N   0  0  0  0  0  0  0  0  0  0  0  0
   18.9504   19.6134    8.5356 H   0  0  0  0  0  0  0  0  0  0  0  0
   19.8320   19.3891    6.9867 H   0  0  0  0  0  0  0  0  0  0  0  0
   18.0430   19.5504    6.9867 H   0  0  0  0  0  0  0  0  0  0  0  0
   18.1227   17.4275    8.5379 H   0  0  0  0  0  0  0  0  0  0  0  0
   18.3437   17.2560    6.7433 H   0  0  0  0  0  0  0  0  0  0  0  0
   20.3746   16.8740   10.1019 H   0  0  0  0  0  0  0  0  0  0  0  0
   21.2688   13.6802   10.7341 H   0  0  0  0  0  0  0  0  0  0  0  0
   20.4074   13.4811   13.0612 H   0  0  0  0  0  0  0  0  0  0  0  0
   24.6009   17.3094   13.5415 H   0  0  0  0  0  0  0  0  0  0  0  0
   23.7793   19.0155   15.8677 H   0  0  0  0  0  0  0  0  0  0  0  0
   25.2056   17.2320   16.7637 H   0  0  0  0  0  0  0  0  0  0  0  0
   26.4646   17.5973   15.5350 H   0  0  0  0  0  0  0  0  0  0  0  0
   25.4289   19.4705   17.7164 H   0  0  0  0  0  0  0  0  0  0  0  0
   27.0514   18.6713   17.6332 H   0  0  0  0  0  0  0  0  0  0  0  0
   26.3338   21.4687   14.6444 H   0  0  0  0  0  0  0  0  0  0  0  0
   22.7700   15.6168    6.7505 H   0  0  0  0  0  0  0  0  0  0  0  0
  1  2  1  0
  2  3  1  0
  3  4  2  0
  4  5  1  0
  5  6  1  0
  6  7  2  0
  6  8  2  0
  6  9  1  0
  9 10  2  0
 10 11  1  0
 11 12  2  0
 12 13  1  0
 13 14  1  0
 14 15  2  0
 14 16  1  0
 16 17  1  0
 17 18  1  0
 18 19  1  0
 19 20  1  0
 20 21  2  0
 20 22  1  0
 22 23  1  0
 23 24  2  0
 13 25  2  0
  5 26  1  0
 26 27  2  0
 27  3  1  0
 25  9  1  0
 23 17  1  0
  1 28  1  0
  1 29  1  0
  1 30  1  0
  2 31  1  0
  2 32  1  0
  4 33  1  0
 10 34  1  0
 11 35  1  0
 16 36  1  0
 17 37  1  1
 18 38  1  0
 18 39  1  0
 19 40  1  0
 19 41  1  0
 22 42  1  0
 26 43  1  0
M  END
>  <meeko>  (1101) 
{"is_sidechain": [true], "free_energy": -10.26, "intermolecular_energy": 0.0, "internal_energy": -10.26, "cluster_size": 9, "cluster_id": 2, "rank_in_cluster": 1}

>  <_RMSD_MCS_to_ref>  (1101) 
0.5732730588471783

$$$$
ligand
     RDKit          3D

 52 56  0  0  0  0  0  0  0  0999 V2000
   18.9090   19.1540    7.5370 C   0  0  0  0  0  0  0  0  0  0  0  0
   18.7730   17.6460    7.6780 C   0  0  0  0  0  0  0  0  0  0  0  0
   20.0510   16.9380    7.3940 C   0  0  0  0  0  0  0  0  0  0  0  0
   20.6550   15.9180    8.1020 C   0  0  0  0  0  0  0  0  0  0  0  0
   21.8110   15.6720    7.4170 N   0  0  0  0  0  0  0  0  0  0  0  0
   22.8180   14.3490    7.6520 S   0  0  0  0  0  6  0  0  0  0  0  0
   22.1650   13.5220    8.6450 O   0  0  0  0  0  0  0  0  0  0  0  0
   23.1690   13.8860    6.3280 O   0  0  0  0  0  0  0  0  0  0  0  0
   24.2980   14.8810    8.3890 C   0  0  0  0  0  0  0  0  0  0  0  0
   25.5430   15.1010    7.8310 C   0  0  0  0  0  0  0  0  0  0  0  0
   26.4590   15.3290    8.7990 N   0  0  0  0  0  0  0  0  0  0  0  0
   25.8320   15.2630    9.9600 N   0  0  0  0  0  0  0  0  0  0  0  0
   24.4980   15.0910    9.7450 N   0  0  0  0  0  0  0  0  0  0  0  0
   23.6110   15.1700   10.8570 C   0  0  0  0  0  0  0  0  0  0  0  0
   22.4120   14.4370   10.9100 C   0  0  0  0  0  0  0  0  0  0  0  0
   21.5500   14.5110   12.0240 C   0  0  0  0  0  0  0  0  0  0  0  0
   21.8570   15.3240   13.1080 C   0  0  0  0  0  0  0  0  0  0  0  0
   23.0200   16.0650   13.0300 C   0  0  0  0  0  0  0  0  0  0  0  0
   23.8880   16.0200   11.9330 C   0  0  0  0  0  0  0  0  0  0  0  0
   25.0490   16.9320   12.2040 C   0  0  0  0  0  0  0  0  0  0  0  0
   24.7230   17.5160   13.4980 N   0  0  0  0  0  0  0  0  0  0  0  0
   25.6770   18.2710   14.3000 C   0  0  2  0  0  0  0  0  0  0  0  0
   25.6220   17.8980   15.7780 C   0  0  0  0  0  0  0  0  0  0  0  0
   26.7030   18.6600   16.5310 C   0  0  0  0  0  0  0  0  0  0  0  0
   26.5720   20.1500   16.3170 C   0  0  0  0  0  0  0  0  0  0  0  0
   26.8390   20.9660   17.1950 O   0  0  0  0  0  0  0  0  0  0  0  0
   26.1560   20.5580   15.0750 N   0  0  0  0  0  0  0  0  0  0  0  0
   25.4790   19.7890   14.1570 C   0  0  0  0  0  0  0  0  0  0  0  0
   24.7720   20.3220   13.3040 O   0  0  0  0  0  0  0  0  0  0  0  0
   23.5690   16.9780   14.0370 C   0  0  0  0  0  0  0  0  0  0  0  0
   23.0810   17.1920   15.1300 O   0  0  0  0  0  0  0  0  0  0  0  0
   21.8560   16.4720    6.3210 C   0  0  0  0  0  0  0  0  0  0  0  0
   20.8020   17.2590    6.2810 N   0  0  0  0  0  0  0  0  0  0  0  0
   18.9504   19.6134    8.5356 H   0  0  0  0  0  0  0  0  0  0  0  0
   19.8320   19.3891    6.9867 H   0  0  0  0  0  0  0  0  0  0  0  0
   18.0430   19.5504    6.9867 H   0  0  0  0  0  0  0  0  0  0  0  0
   18.4598   17.4130    8.7064 H   0  0  0  0  0  0  0  0  0  0  0  0
   18.0271   17.3039    6.9455 H   0  0  0  0  0  0  0  0  0  0  0  0
   20.2888   15.4176    9.0105 H   0  0  0  0  0  0  0  0  0  0  0  0
   25.7582   15.0919    6.7523 H   0  0  0  0  0  0  0  0  0  0  0  0
   22.1399   13.7906   10.0626 H   0  0  0  0  0  0  0  0  0  0  0  0
   20.6236   13.9179   12.0346 H   0  0  0  0  0  0  0  0  0  0  0  0
   21.2021   15.3753   13.9903 H   0  0  0  0  0  0  0  0  0  0  0  0
   25.9911   16.3663   12.2533 H   0  0  0  0  0  0  0  0  0  0  0  0
   25.1963   17.6861   11.4168 H   0  0  0  0  0  0  0  0  0  0  0  0
   26.6676   17.9995   13.9064 H   0  0  0  0  0  0  0  0  0  0  0  0
   24.6351   18.1609   16.1866 H   0  0  0  0  0  0  0  0  0  0  0  0
   25.7877   16.8164   15.8909 H   0  0  0  0  0  0  0  0  0  0  0  0
   26.6127   18.4427   17.6055 H   0  0  0  0  0  0  0  0  0  0  0  0
   27.6841   18.3388   16.1511 H   0  0  0  0  0  0  0  0  0  0  0  0
   26.3701   21.5287   14.8052 H   0  0  0  0  0  0  0  0  0  0  0  0
   22.6609   16.4635    5.5713 H   0  0  0  0  0  0  0  0  0  0  0  0
  1  2  1  0
  2  3  1  0
  3  4  2  0
  4  5  1  0
  5  6  1  0
  6  7  2  0
  6  8  2  0
  6  9  1  0
  9 10  2  0
 10 11  1  0
 11 12  2  0
 12 13  1  0
 13 14  1  0
 14 15  2  0
 15 16  1  0
 16 17  2  0
 17 18  1  0
 18 19  2  0
 19 20  1  0
 20 21  1  0
 21 22  1  0
 22 23  1  0
 23 24  1  0
 24 25  1  0
 25 26  2  0
 25 27  1  0
 27 28  1  0
 28 29  2  0
 21 30  1  0
 30 31  2  0
  5 32  1  0
 32 33  2  0
 33  3  1  0
 13  9  1  0
 19 14  1  0
 28 22  1  0
 30 18  1  0
  1 34  1  0
  1 35  1  0
  1 36  1  0
  2 37  1  0
  2 38  1  0
  4 39  1  0
 10 40  1  0
 15 41  1  0
 16 42  1  0
 17 43  1  0
 20 44  1  0
 20 45  1  0
 22 46  1  6
 23 47  1  0
 23 48  1  0
 24 49  1  0
 24 50  1  0
 27 51  1  0
 32 52  1  0
M  END
>  <meeko>  (1102) 
{"is_sidechain": [true], "free_energy": -10.26, "intermolecular_energy": 0.0, "internal_energy": -10.26, "cluster_size": 17, "cluster_id": 1, "rank_in_cluster": 1}

>  <_RMSD_MCS_to_ref>  (1102) 
1.5671088868224488

$$$$
ligand
     RDKit          3D

 46 49  0  0  0  0  0  0  0  0999 V2000
   18.7970   18.8170    7.7190 C   0  0  0  0  0  0  0  0  0  0  0  0
   18.5280   17.3290    7.8810 C   0  0  0  0  0  0  0  0  0  0  0  0
   19.7540   16.5100    7.6780 C   0  0  0  0  0  0  0  0  0  0  0  0
   20.6560   16.0500    8.6170 C   0  0  0  0  0  0  0  0  0  0  0  0
   21.5670   15.3420    7.8870 N   0  0  0  0  0  0  0  0  0  0  0  0
   23.0220   14.7250    8.4560 S   0  0  0  0  0  6  0  0  0  0  0  0
   23.9940   15.7850    8.2730 O   0  0  0  0  0  0  0  0  0  0  0  0
   23.1720   13.4180    7.8490 O   0  0  0  0  0  0  0  0  0  0  0  0
   22.7440   14.5070   10.1870 C   0  0  0  0  0  0  0  0  0  0  0  0
   22.0130   13.4130   10.6400 C   0  0  0  0  0  0  0  0  0  0  0  0
   21.8200   13.3000   12.0020 C   0  0  0  0  0  0  0  0  0  0  0  0
   22.2960   14.1880   12.9020 N   0  0  0  0  0  0  0  0  0  0  0  0
   22.9950   15.2550   12.4340 C   0  0  0  0  0  0  0  0  0  0  0  0
   23.4960   16.1950   13.4180 C   0  0  0  0  0  0  0  0  0  0  0  0
   24.8190   16.4730   13.6840 C   0  0  0  0  0  0  0  0  0  0  0  0
   24.7650   17.4200   14.6630 N   0  0  0  0  0  0  0  0  0  0  0  0
   25.8750   18.0450   15.3580 C   0  0  2  0  0  0  0  0  0  0  0  0
   25.6600   18.0870   16.8740 C   0  0  0  0  0  0  0  0  0  0  0  0
   26.8310   18.7890   17.5410 C   0  0  0  0  0  0  0  0  0  0  0  0
   27.0200   20.1780   16.9810 C   0  0  0  0  0  0  0  0  0  0  0  0
   27.6200   21.0560   17.5940 O   0  0  0  0  0  0  0  0  0  0  0  0
   26.5650   20.3860   15.7040 N   0  0  0  0  0  0  0  0  0  0  0  0
   26.1400   19.4350   14.8040 C   0  0  0  0  0  0  0  0  0  0  0  0
   26.0900   19.7080   13.6060 O   0  0  0  0  0  0  0  0  0  0  0  0
   23.4920   17.6970   15.0060 N   0  0  0  0  0  0  0  0  0  0  0  0
   22.7030   16.9540   14.2420 N   0  0  0  0  0  0  0  0  0  0  0  0
   23.2360   15.4540   11.0820 C   0  0  0  0  0  0  0  0  0  0  0  0
   21.2420   15.4220    6.5720 C   0  0  0  0  0  0  0  0  0  0  0  0
   20.1370   16.1180    6.4100 N   0  0  0  0  0  0  0  0  0  0  0  0
   18.8815   19.2845    8.7111 H   0  0  0  0  0  0  0  0  0  0  0  0
   19.7359   18.9616    7.1643 H   0  0  0  0  0  0  0  0  0  0  0  0
   17.9682   19.2812    7.1643 H   0  0  0  0  0  0  0  0  0  0  0  0
   18.1445   17.1469    8.8958 H   0  0  0  0  0  0  0  0  0  0  0  0
   17.7945   17.0335    7.1164 H   0  0  0  0  0  0  0  0  0  0  0  0
   20.6434   16.2160    9.7043 H   0  0  0  0  0  0  0  0  0  0  0  0
   21.6053   12.6682    9.9407 H   0  0  0  0  0  0  0  0  0  0  0  0
   21.2466   12.4388   12.3755 H   0  0  0  0  0  0  0  0  0  0  0  0
   25.7115   16.0330   13.2152 H   0  0  0  0  0  0  0  0  0  0  0  0
   26.7644   17.4227   15.1801 H   0  0  0  0  0  0  0  0  0  0  0  0
   24.7318   18.6339   17.0961 H   0  0  0  0  0  0  0  0  0  0  0  0
   25.5859   17.0592   17.2588 H   0  0  0  0  0  0  0  0  0  0  0  0
   26.6394   18.8600   18.6219 H   0  0  0  0  0  0  0  0  0  0  0  0
   27.7441   18.2066   17.3486 H   0  0  0  0  0  0  0  0  0  0  0  0
   26.5383   21.3640   15.3821 H   0  0  0  0  0  0  0  0  0  0  0  0
   23.7975   16.3314   10.7285 H   0  0  0  0  0  0  0  0  0  0  0  0
   21.8218   14.9681    5.7548 H   0  0  0  0  0  0  0  0  0  0  0  0
  1  2  1  0
  2  3  1  0
  3  4  2  0
  4  5  1  0
  5  6  1  0
  6  7  2  0
  6  8  2  0
  6  9  1  0
  9 10  2  0
 10 11  1  0
 11 12  2  0
 12 13  1  0
 13 14  1  0
 14 15  2  0
 15 16  1  0
 16 17  1  0
 17 18  1  0
 18 19  1  0
 19 20  1  0
 20 21  2  0
 20 22  1  0
 22 23  1  0
 23 24  2  0
 16 25  1  0
 25 26  2  0
 13 27  2  0
  5 28  1  0
 28 29  2  0
 29  3  1  0
 27  9  1  0
 26 14  1  0
 23 17  1  0
  1 30  1  0
  1 31  1  0
  1 32  1  0
  2 33  1  0
  2 34  1  0
  4 35  1  0
 10 36  1  0
 11 37  1  0
 15 38  1  0
 17 39  1  1
 18 40  1  0
 18 41  1  0
 19 42  1  0
 19 43  1  0
 22 44  1  0
 27 45  1  0
 28 46  1  0
M  END
>  <meeko>  (1103) 
{"is_sidechain": [true], "free_energy": -10.25, "intermolecular_energy": 0.0, "internal_energy": -10.25, "cluster_size": 20, "cluster_id": 1, "rank_in_cluster": 1}

>  <_RMSD_MCS_to_ref>  (1103) 
0.8261826540044144

$$$$
ligand
     RDKit          3D

 48 51  0  0  0  0  0  0  0  0999 V2000
   18.7970   18.8170    7.7190 C   0  0  0  0  0  0  0  0  0  0  0  0
   18.5280   17.3290    7.8810 C   0  0  0  0  0  0  0  0  0  0  0  0
   19.7670   16.5160    7.7410 C   0  0  0  0  0  0  0  0  0  0  0  0
   20.7020   16.1840    8.7020 C   0  0  0  0  0  0  0  0  0  0  0  0
   21.6370   15.4570    8.0230 N   0  0  0  0  0  0  0  0  0  0  0  0
   22.9160   14.6180    8.7050 S   0  0  0  0  0  6  0  0  0  0  0  0
   24.0900   15.4510    8.5290 O   0  0  0  0  0  0  0  0  0  0  0  0
   22.8260   13.2600    8.2090 O   0  0  0  0  0  0  0  0  0  0  0  0
   22.6500   14.5180   10.4600 C   0  0  0  0  0  0  0  0  0  0  0  0
   23.4100   14.9890   11.5230 C   0  0  0  0  0  0  0  0  0  0  0  0
   22.7500   14.6390   12.7330 C   0  0  0  0  0  0  0  0  0  0  0  0
   22.9720   14.8160   14.1170 C   0  0  0  0  0  0  0  0  0  0  0  0
   24.1890   15.5290   14.5840 C   0  0  0  0  0  0  0  0  0  0  0  0
   25.1870   14.9110   14.9310 O   0  0  0  0  0  0  0  0  0  0  0  0
   24.1340   16.9070   14.5730 N   0  0  0  0  0  0  0  0  0  0  0  0
   25.3170   17.7070   14.8570 C   0  0  2  0  0  0  0  0  0  0  0  0
   25.6920   17.6820   16.3360 C   0  0  0  0  0  0  0  0  0  0  0  0
   26.9040   18.5700   16.5670 C   0  0  0  0  0  0  0  0  0  0  0  0
   26.6560   19.9760   16.0740 C   0  0  0  0  0  0  0  0  0  0  0  0
   27.1310   20.9630   16.6270 O   0  0  0  0  0  0  0  0  0  0  0  0
   25.8870   20.1050   14.9440 N   0  0  0  0  0  0  0  0  0  0  0  0
   25.0350   19.1540   14.4410 C   0  0  0  0  0  0  0  0  0  0  0  0
   24.1090   19.4600   13.6890 O   0  0  0  0  0  0  0  0  0  0  0  0
   22.0350   14.2790   15.0240 C   0  0  0  0  0  0  0  0  0  0  0  0
   20.8950   13.6070   14.5710 C   0  0  0  0  0  0  0  0  0  0  0  0
   20.6540   13.4410   13.2060 C   0  0  0  0  0  0  0  0  0  0  0  0
   21.6030   13.9660   12.3340 C   0  0  0  0  0  0  0  0  0  0  0  0
   21.5380   13.8920   10.9810 O   0  0  0  0  0  0  0  0  0  0  0  0
   21.2360   15.3100    6.7330 C   0  0  0  0  0  0  0  0  0  0  0  0
   20.1100   15.9610    6.5240 N   0  0  0  0  0  0  0  0  0  0  0  0
   18.8815   19.2845    8.7111 H   0  0  0  0  0  0  0  0  0  0  0  0
   19.7359   18.9616    7.1643 H   0  0  0  0  0  0  0  0  0  0  0  0
   17.9682   19.2812    7.1643 H   0  0  0  0  0  0  0  0  0  0  0  0
   18.0994   17.1529    8.8786 H   0  0  0  0  0  0  0  0  0  0  0  0
   17.8313   17.0230    7.0867 H   0  0  0  0  0  0  0  0  0  0  0  0
   20.6949   16.4456    9.7704 H   0  0  0  0  0  0  0  0  0  0  0  0
   24.3595   15.5385   11.4426 H   0  0  0  0  0  0  0  0  0  0  0  0
   23.2426   17.3774   14.3607 H   0  0  0  0  0  0  0  0  0  0  0  0
   26.1600   17.2816   14.2927 H   0  0  0  0  0  0  0  0  0  0  0  0
   24.8468   18.0523   16.9348 H   0  0  0  0  0  0  0  0  0  0  0  0
   25.9305   16.6510   16.6362 H   0  0  0  0  0  0  0  0  0  0  0  0
   27.1249   18.6017   17.6441 H   0  0  0  0  0  0  0  0  0  0  0  0
   27.7534   18.1507   16.0077 H   0  0  0  0  0  0  0  0  0  0  0  0
   25.9556   20.9939   14.4283 H   0  0  0  0  0  0  0  0  0  0  0  0
   22.2035   14.3905   16.1053 H   0  0  0  0  0  0  0  0  0  0  0  0
   20.1779   13.2034   15.3010 H   0  0  0  0  0  0  0  0  0  0  0  0
   19.7576   12.9206   12.8377 H   0  0  0  0  0  0  0  0  0  0  0  0
   21.7757   14.7291    5.9705 H   0  0  0  0  0  0  0  0  0  0  0  0
  1  2  1  0
  2  3  1  0
  3  4  2  0
  4  5  1  0
  5  6  1  0
  6  7  2  0
  6  8  2  0
  6  9  1  0
  9 10  2  0
 10 11  1  0
 11 12  2  0
 12 13  1  0
 13 14  2  0
 13 15  1  0
 15 16  1  0
 16 17  1  0
 17 18  1  0
 18 19  1  0
 19 20  2  0
 19 21  1  0
 21 22  1  0
 22 23  2  0
 12 24  1  0
 24 25  2  0
 25 26  1  0
 26 27  2  0
 27 28  1  0
  5 29  1  0
 29 30  2  0
 30  3  1  0
 28  9  1  0
 27 11  1  0
 22 16  1  0
  1 31  1  0
  1 32  1  0
  1 33  1  0
  2 34  1  0
  2 35  1  0
  4 36  1  0
 10 37  1  0
 15 38  1  0
 16 39  1  6
 17 40  1  0
 17 41  1  0
 18 42  1  0
 18 43  1  0
 21 44  1  0
 24 45  1  0
 25 46  1  0
 26 47  1  0
 29 48  1  0
M  END
>  <meeko>  (1104) 
{"is_sidechain": [true], "free_energy": -10.25, "intermolecular_energy": 0.0, "internal_energy": -10.25, "cluster_size": 15, "cluster_id": 1, "rank_in_cluster": 1}

>  <_RMSD_MCS_to_ref>  (1104) 
0.758665641475581

$$$$
ligand
     RDKit          3D

 48 51  0  0  0  0  0  0  0  0999 V2000
   18.7970   18.8170    7.7190 C   0  0  0  0  0  0  0  0  0  0  0  0
   18.5280   17.3290    7.8810 C   0  0  0  0  0  0  0  0  0  0  0  0
   19.7590   16.5120    7.6960 C   0  0  0  0  0  0  0  0  0  0  0  0
   20.6510   16.0580    8.6450 C   0  0  0  0  0  0  0  0  0  0  0  0
   21.5750   15.3550    7.9280 N   0  0  0  0  0  0  0  0  0  0  0  0
   23.0250   14.7570    8.5250 S   0  0  0  0  0  6  0  0  0  0  0  0
   23.2340   13.4900    7.8500 O   0  0  0  0  0  0  0  0  0  0  0  0
   23.9800   15.8430    8.4670 O   0  0  0  0  0  0  0  0  0  0  0  0
   22.8530   14.3430   10.2400 C   0  0  0  0  0  0  0  0  0  0  0  0
   21.9890   13.4950   10.8950 C   0  0  0  0  0  0  0  0  0  0  0  0
   22.1980   13.4610   12.3140 C   0  0  0  0  0  0  0  0  0  0  0  0
   21.5000   12.7290   13.3060 C   0  0  0  0  0  0  0  0  0  0  0  0
   21.8430   12.8450   14.6510 C   0  0  0  0  0  0  0  0  0  0  0  0
   22.8860   13.6750   15.0280 C   0  0  0  0  0  0  0  0  0  0  0  0
   23.6220   14.4030   14.0770 C   0  0  0  0  0  0  0  0  0  0  0  0
   24.7210   15.2650   14.5890 C   0  0  0  0  0  0  0  0  0  0  0  0
   25.7630   14.7570   14.9920 O   0  0  0  0  0  0  0  0  0  0  0  0
   24.5370   16.6240   14.5390 N   0  0  0  0  0  0  0  0  0  0  0  0
   25.5930   17.5610   14.8910 C   0  0  2  0  0  0  0  0  0  0  0  0
   25.8220   17.6380   16.3970 C   0  0  0  0  0  0  0  0  0  0  0  0
   26.9130   18.6560   16.6910 C   0  0  0  0  0  0  0  0  0  0  0  0
   26.5810   20.0050   16.1010 C   0  0  0  0  0  0  0  0  0  0  0  0
   26.9220   21.0580   16.6320 O   0  0  0  0  0  0  0  0  0  0  0  0
   25.9000   20.0070   14.9100 N   0  0  0  0  0  0  0  0  0  0  0  0
   25.1990   18.9510   14.3820 C   0  0  0  0  0  0  0  0  0  0  0  0
   24.3160   19.1290   13.5420 O   0  0  0  0  0  0  0  0  0  0  0  0
   23.2580   14.2940   12.7090 C   0  0  0  0  0  0  0  0  0  0  0  0
   23.9260   15.0890   11.3220 S   0  0  0  0  0  0  0  0  0  0  0  0
   21.2670   15.4310    6.6070 C   0  0  0  0  0  0  0  0  0  0  0  0
   20.1580   16.1200    6.4330 N   0  0  0  0  0  0  0  0  0  0  0  0
   18.8815   19.2845    8.7111 H   0  0  0  0  0  0  0  0  0  0  0  0
   19.7359   18.9616    7.1643 H   0  0  0  0  0  0  0  0  0  0  0  0
   17.9682   19.2812    7.1643 H   0  0  0  0  0  0  0  0  0  0  0  0
   18.1314   17.1485    8.8910 H   0  0  0  0  0  0  0  0  0  0  0  0
   17.8048   17.0302    7.1079 H   0  0  0  0  0  0  0  0  0  0  0  0
   20.6238   16.2246    9.7320 H   0  0  0  0  0  0  0  0  0  0  0  0
   21.2164   12.9032   10.3823 H   0  0  0  0  0  0  0  0  0  0  0  0
   20.6774   12.0611   13.0105 H   0  0  0  0  0  0  0  0  0  0  0  0
   21.2867   12.2786   15.4124 H   0  0  0  0  0  0  0  0  0  0  0  0
   23.1436   13.7663   16.0935 H   0  0  0  0  0  0  0  0  0  0  0  0
   23.6219   16.9925   14.2428 H   0  0  0  0  0  0  0  0  0  0  0  0
   26.5266   17.2091   14.4278 H   0  0  0  0  0  0  0  0  0  0  0  0
   24.8902   17.9447   16.8946 H   0  0  0  0  0  0  0  0  0  0  0  0
   26.1297   16.6510   16.7727 H   0  0  0  0  0  0  0  0  0  0  0  0
   27.0221   18.7590   17.7807 H   0  0  0  0  0  0  0  0  0  0  0  0
   27.8497   18.3005   16.2368 H   0  0  0  0  0  0  0  0  0  0  0  0
   25.9160   20.8793   14.3626 H   0  0  0  0  0  0  0  0  0  0  0  0
   21.8599   14.9808    5.7972 H   0  0  0  0  0  0  0  0  0  0  0  0
  1  2  1  0
  2  3  1  0
  3  4  2  0
  4  5  1  0
  5  6  1  0
  6  7  2  0
  6  8  2  0
  6  9  1  0
  9 10  2  0
 10 11  1  0
 11 12  2  0
 12 13  1  0
 13 14  2  0
 14 15  1  0
 15 16  1  0
 16 17  2  0
 16 18  1  0
 18 19  1  0
 19 20  1  0
 20 21  1  0
 21 22  1  0
 22 23  2  0
 22 24  1  0
 24 25  1  0
 25 26  2  0
 15 27  2  0
 27 28  1  0
  5 29  1  0
 29 30  2  0
 30  3  1  0
 28  9  1  0
 27 11  1  0
 25 19  1  0
  1 31  1  0
  1 32  1  0
  1 33  1  0
  2 34  1  0
  2 35  1  0
  4 36  1  0
 10 37  1  0
 12 38  1  0
 13 39  1  0
 14 40  1  0
 18 41  1  0
 19 42  1  6
 20 43  1  0
 20 44  1  0
 21 45  1  0
 21 46  1  0
 24 47  1  0
 29 48  1  0
M  END
>  <meeko>  (1105) 
{"is_sidechain": [true], "free_energy": -10.25, "intermolecular_energy": 0.0, "internal_energy": -10.25, "cluster_size": 13, "cluster_id": 1, "rank_in_cluster": 1}

>  <_RMSD_MCS_to_ref>  (1105) 
0.8275073682115733

$$$$
ligand
     RDKit          3D

 54 58  0  0  0  0  0  0  0  0999 V2000
   18.7970   18.8170    7.7190 C   0  0  0  0  0  0  0  0  0  0  0  0
   18.5280   17.3290    7.8810 C   0  0  0  0  0  0  0  0  0  0  0  0
   19.5440   16.4950    7.1840 C   0  0  0  0  0  0  0  0  0  0  0  0
   19.9320   15.1960    7.4520 C   0  0  0  0  0  0  0  0  0  0  0  0
   20.8990   14.9380    6.5210 N   0  0  0  0  0  0  0  0  0  0  0  0
   21.6610   13.4660    6.2700 S   0  0  0  0  0  6  0  0  0  0  0  0
   20.6050   12.5070    6.0060 O   0  0  0  0  0  0  0  0  0  0  0  0
   22.7200   13.7320    5.3120 O   0  0  0  0  0  0  0  0  0  0  0  0
   22.4160   13.0440    7.8130 C   0  0  0  0  0  0  0  0  0  0  0  0
   22.5160   14.0040    8.7950 C   0  0  0  0  0  0  0  0  0  0  0  0
   23.1130   13.5890    9.9670 C   0  0  0  0  0  0  0  0  0  0  0  0
   23.3100   14.4790   11.1330 C   0  0  0  0  0  0  0  0  0  0  0  0
   22.3220   14.6130   12.1460 C   0  0  0  0  0  0  0  0  0  0  0  0
   22.5070   15.4500   13.2540 C   0  0  0  0  0  0  0  0  0  0  0  0
   23.6880   16.1550   13.3280 C   0  0  0  0  0  0  0  0  0  0  0  0
   24.6790   16.0600   12.3560 C   0  0  0  0  0  0  0  0  0  0  0  0
   24.5010   15.2300   11.2600 C   0  0  0  0  0  0  0  0  0  0  0  0
   25.8380   16.9270   12.7200 C   0  0  0  0  0  0  0  0  0  0  0  0
   25.3720   17.5860   13.9340 N   0  0  0  0  0  0  0  0  0  0  0  0
   26.2440   18.3490   14.8190 C   0  0  2  0  0  0  0  0  0  0  0  0
   26.0570   17.9780   16.2870 C   0  0  0  0  0  0  0  0  0  0  0  0
   27.0590   18.7470   17.1340 C   0  0  0  0  0  0  0  0  0  0  0  0
   26.9350   20.2350   16.9070 C   0  0  0  0  0  0  0  0  0  0  0  0
   27.0950   21.0530   17.8090 O   0  0  0  0  0  0  0  0  0  0  0  0
   26.6480   20.6390   15.6280 N   0  0  0  0  0  0  0  0  0  0  0  0
   26.0500   19.8670   14.6590 C   0  0  0  0  0  0  0  0  0  0  0  0
   25.4060   20.3950   13.7550 O   0  0  0  0  0  0  0  0  0  0  0  0
   24.1470   17.0920   14.3580 C   0  0  0  0  0  0  0  0  0  0  0  0
   23.5430   17.3610   15.3790 O   0  0  0  0  0  0  0  0  0  0  0  0
   23.5510   12.3160   10.1220 N   0  0  0  0  0  0  0  0  0  0  0  0
   23.4030   11.4720    9.0900 C   0  0  0  0  0  0  0  0  0  0  0  0
   22.8460   11.7710    7.9160 N   0  0  0  0  0  0  0  0  0  0  0  0
   21.0420   16.0220    5.7160 C   0  0  0  0  0  0  0  0  0  0  0  0
   20.2420   16.9950    6.1020 N   0  0  0  0  0  0  0  0  0  0  0  0
   18.8815   19.2845    8.7111 H   0  0  0  0  0  0  0  0  0  0  0  0
   19.7359   18.9616    7.1643 H   0  0  0  0  0  0  0  0  0  0  0  0
   17.9682   19.2812    7.1643 H   0  0  0  0  0  0  0  0  0  0  0  0
   18.5411   17.0813    8.9527 H   0  0  0  0  0  0  0  0  0  0  0  0
   17.5475   17.1123    7.4319 H   0  0  0  0  0  0  0  0  0  0  0  0
   19.5503   14.5240    8.2348 H   0  0  0  0  0  0  0  0  0  0  0  0
   22.1456   15.0302    8.6546 H   0  0  0  0  0  0  0  0  0  0  0  0
   21.3853   14.0432   12.0574 H   0  0  0  0  0  0  0  0  0  0  0  0
   21.7381   15.5408   14.0354 H   0  0  0  0  0  0  0  0  0  0  0  0
   25.2843   15.1560   10.4913 H   0  0  0  0  0  0  0  0  0  0  0  0
   26.7382   16.3256   12.9149 H   0  0  0  0  0  0  0  0  0  0  0  0
   26.1267   17.6290   11.9239 H   0  0  0  0  0  0  0  0  0  0  0  0
   27.2673   18.0831   14.5154 H   0  0  0  0  0  0  0  0  0  0  0  0
   25.0353   18.2352   16.6032 H   0  0  0  0  0  0  0  0  0  0  0  0
   26.2190   16.8977   16.4165 H   0  0  0  0  0  0  0  0  0  0  0  0
   26.8736   18.5290   18.1961 H   0  0  0  0  0  0  0  0  0  0  0  0
   28.0732   18.4332   16.8460 H   0  0  0  0  0  0  0  0  0  0  0  0
   26.9021   21.6035   15.3709 H   0  0  0  0  0  0  0  0  0  0  0  0
   23.7730   10.4448    9.2237 H   0  0  0  0  0  0  0  0  0  0  0  0
   21.7305   16.0798    4.8600 H   0  0  0  0  0  0  0  0  0  0  0  0
  1  2  1  0
  2  3  1  0
  3  4  2  0
  4  5  1  0
  5  6  1  0
  6  7  2  0
  6  8  2  0
  6  9  1  0
  9 10  2  0
 10 11  1  0
 11 12  1  0
 12 13  2  0
 13 14  1  0
 14 15  2  0
 15 16  1  0
 16 17  2  0
 16 18  1  0
 18 19  1  0
 19 20  1  0
 20 21  1  0
 21 22  1  0
 22 23  1  0
 23 24  2  0
 23 25  1  0
 25 26  1  0
 26 27  2  0
 19 28  1  0
 28 29  2  0
 11 30  2  0
 30 31  1  0
 31 32  2  0
  5 33  1  0
 33 34  2  0
 34  3  1  0
 32  9  1  0
 17 12  1  0
 26 20  1  0
 28 15  1  0
  1 35  1  0
  1 36  1  0
  1 37  1  0
  2 38  1  0
  2 39  1  0
  4 40  1  0
 10 41  1  0
 13 42  1  0
 14 43  1  0
 17 44  1  0
 18 45  1  0
 18 46  1  0
 20 47  1  6
 21 48  1  0
 21 49  1  0
 22 50  1  0
 22 51  1  0
 25 52  1  0
 31 53  1  0
 33 54  1  0
M  END
>  <meeko>  (1106) 
{"is_sidechain": [true], "free_energy": -10.25, "intermolecular_energy": 0.0, "internal_energy": -10.25, "cluster_size": 17, "cluster_id": 1, "rank_in_cluster": 1}

>  <_RMSD_MCS_to_ref>  (1106) 
1.061505299091813

$$$$
ligand
     RDKit          3D

 48 51  0  0  0  0  0  0  0  0999 V2000
   18.9090   19.1540    7.5370 C   0  0  0  0  0  0  0  0  0  0  0  0
   18.7730   17.6460    7.6780 C   0  0  0  0  0  0  0  0  0  0  0  0
   20.0380   16.9350    7.3500 C   0  0  0  0  0  0  0  0  0  0  0  0
   21.1900   16.8190    8.1030 C   0  0  0  0  0  0  0  0  0  0  0  0
   22.0330   16.0890    7.3150 N   0  0  0  0  0  0  0  0  0  0  0  0
   23.5120   15.4450    7.7870 S   0  0  0  0  0  6  0  0  0  0  0  0
   23.5830   14.1340    7.1710 O   0  0  0  0  0  0  0  0  0  0  0  0
   24.4970   16.4780    7.5310 O   0  0  0  0  0  0  0  0  0  0  0  0
   23.3400   15.2440    9.5370 C   0  0  0  0  0  0  0  0  0  0  0  0
   23.0530   13.9890   10.0670 C   0  0  0  0  0  0  0  0  0  0  0  0
   22.9240   13.8540   11.4480 C   0  0  0  0  0  0  0  0  0  0  0  0
   23.0900   14.9690   12.2880 C   0  0  0  0  0  0  0  0  0  0  0  0
   22.9710   14.8720   13.6750 C   0  0  0  0  0  0  0  0  0  0  0  0
   23.1500   16.0060   14.4590 C   0  0  0  0  0  0  0  0  0  0  0  0
   23.4340   17.2220   13.8470 C   0  0  0  0  0  0  0  0  0  0  0  0
   23.6490   18.3380   14.6700 N   0  0  0  0  0  0  0  0  0  0  0  0
   25.0490   18.6000   15.0390 C   0  0  2  0  0  0  0  0  0  0  0  0
   25.2300   18.4490   16.5470 C   0  0  0  0  0  0  0  0  0  0  0  0
   26.6580   18.8040   16.9310 C   0  0  0  0  0  0  0  0  0  0  0  0
   27.0100   20.2030   16.4880 C   0  0  0  0  0  0  0  0  0  0  0  0
   27.8420   20.8880   17.0750 O   0  0  0  0  0  0  0  0  0  0  0  0
   26.3930   20.6610   15.3530 N   0  0  0  0  0  0  0  0  0  0  0  0
   25.4030   20.0400   14.6310 C   0  0  0  0  0  0  0  0  0  0  0  0
   24.8610   20.6130   13.6840 O   0  0  0  0  0  0  0  0  0  0  0  0
   23.5640   17.3270   12.5090 N   0  0  0  0  0  0  0  0  0  0  0  0
   23.3940   16.2360   11.7460 C   0  0  0  0  0  0  0  0  0  0  0  0
   23.5200   16.3520   10.3720 C   0  0  0  0  0  0  0  0  0  0  0  0
   21.3890   15.7460    6.1710 C   0  0  0  0  0  0  0  0  0  0  0  0
   20.1740   16.2550    6.1550 N   0  0  0  0  0  0  0  0  0  0  0  0
   18.9504   19.6134    8.5356 H   0  0  0  0  0  0  0  0  0  0  0  0
   19.8320   19.3891    6.9867 H   0  0  0  0  0  0  0  0  0  0  0  0
   18.0430   19.5504    6.9867 H   0  0  0  0  0  0  0  0  0  0  0  0
   18.4932   17.4109    8.7155 H   0  0  0  0  0  0  0  0  0  0  0  0
   18.0022   17.3085    6.9695 H   0  0  0  0  0  0  0  0  0  0  0  0
   21.3840   17.2224    9.1078 H   0  0  0  0  0  0  0  0  0  0  0  0
   22.9301   13.1181    9.4064 H   0  0  0  0  0  0  0  0  0  0  0  0
   22.6913   12.8707   11.8827 H   0  0  0  0  0  0  0  0  0  0  0  0
   22.7372   13.9052   14.1446 H   0  0  0  0  0  0  0  0  0  0  0  0
   23.0677   15.9420   15.5540 H   0  0  0  0  0  0  0  0  0  0  0  0
   22.8758   18.9358   14.9951 H   0  0  0  0  0  0  0  0  0  0  0  0
   25.7053   17.8822   14.5252 H   0  0  0  0  0  0  0  0  0  0  0  0
   24.5334   19.1223   17.0679 H   0  0  0  0  0  0  0  0  0  0  0  0
   25.0237   17.4078   16.8358 H   0  0  0  0  0  0  0  0  0  0  0  0
   26.7631   18.7365   18.0239 H   0  0  0  0  0  0  0  0  0  0  0  0
   27.3387   18.0987   16.4318 H   0  0  0  0  0  0  0  0  0  0  0  0
   26.7079   21.5763   15.0009 H   0  0  0  0  0  0  0  0  0  0  0  0
   23.7651   17.3293    9.9307 H   0  0  0  0  0  0  0  0  0  0  0  0
   21.8210   15.1292    5.3691 H   0  0  0  0  0  0  0  0  0  0  0  0
  1  2  1  0
  2  3  1  0
  3  4  2  0
  4  5  1  0
  5  6  1  0
  6  7  2  0
  6  8  2  0
  6  9  1  0
  9 10  2  0
 10 11  1  0
 11 12  2  0
 12 13  1  0
 13 14  2  0
 14 15  1  0
 15 16  1  0
 16 17  1  0
 17 18  1  0
 18 19  1  0
 19 20  1  0
 20 21  2  0
 20 22  1  0
 22 23  1  0
 23 24  2  0
 15 25  2  0
 25 26  1  0
 26 27  2  0
  5 28  1  0
 28 29  2  0
 29  3  1  0
 27  9  1  0
 26 12  1  0
 23 17  1  0
  1 30  1  0
  1 31  1  0
  1 32  1  0
  2 33  1  0
  2 34  1  0
  4 35  1  0
 10 36  1  0
 11 37  1  0
 13 38  1  0
 14 39  1  0
 16 40  1  0
 17 41  1  6
 18 42  1  0
 18 43  1  0
 19 44  1  0
 19 45  1  0
 22 46  1  0
 27 47  1  0
 28 48  1  0
M  END
>  <meeko>  (1107) 
{"is_sidechain": [true], "free_energy": -10.25, "intermolecular_energy": 0.0, "internal_energy": -10.25, "cluster_size": 20, "cluster_id": 1, "rank_in_cluster": 1}

>  <_RMSD_MCS_to_ref>  (1107) 
0.8491555282226645

$$$$
ligand
     RDKit          3D

 48 51  0  0  0  0  0  0  0  0999 V2000
   18.9090   19.1540    7.5370 C   0  0  0  0  0  0  0  0  0  0  0  0
   18.7730   17.6460    7.6780 C   0  0  0  0  0  0  0  0  0  0  0  0
   20.0940   16.9600    7.6770 C   0  0  0  0  0  0  0  0  0  0  0  0
   20.9550   16.7320    8.7320 C   0  0  0  0  0  0  0  0  0  0  0  0
   22.0150   16.0850    8.1640 N   0  0  0  0  0  0  0  0  0  0  0  0
   23.3460   15.4780    8.9860 S   0  0  0  0  0  6  0  0  0  0  0  0
   23.6280   14.1720    8.4260 O   0  0  0  0  0  0  0  0  0  0  0  0
   24.3180   16.5560    8.9600 O   0  0  0  0  0  0  0  0  0  0  0  0
   22.8430   15.2610   10.6580 C   0  0  0  0  0  0  0  0  0  0  0  0
   23.5370   15.9420   11.6750 C   0  0  0  0  0  0  0  0  0  0  0  0
   23.1660   15.8040   13.0190 C   0  0  0  0  0  0  0  0  0  0  0  0
   23.8910   16.5130   14.1110 C   0  0  0  0  0  0  0  0  0  0  0  0
   24.2200   15.9100   15.1260 O   0  0  0  0  0  0  0  0  0  0  0  0
   24.1260   17.8570   13.9270 N   0  0  0  0  0  0  0  0  0  0  0  0
   24.6970   18.6700   14.9940 C   0  0  1  0  0  0  0  0  0  0  0  0
   25.8300   17.9530   15.7190 C   0  0  0  0  0  0  0  0  0  0  0  0
   26.4070   18.8680   16.7880 C   0  0  0  0  0  0  0  0  0  0  0  0
   26.8580   20.1840   16.2000 C   0  0  0  0  0  0  0  0  0  0  0  0
   27.8180   20.8080   16.6430 O   0  0  0  0  0  0  0  0  0  0  0  0
   26.1180   20.6770   15.1550 N   0  0  0  0  0  0  0  0  0  0  0  0
   25.2340   19.9670   14.3830 C   0  0  0  0  0  0  0  0  0  0  0  0
   24.8870   20.3710   13.2730 O   0  0  0  0  0  0  0  0  0  0  0  0
   22.1020   14.9560   13.3830 C   0  0  0  0  0  0  0  0  0  0  0  0
   21.4040   14.2650   12.3770 C   0  0  0  0  0  0  0  0  0  0  0  0
   20.3140   13.3560   12.3460 C   0  0  0  0  0  0  0  0  0  0  0  0
   20.1120   13.0360   11.0250 C   0  0  0  0  0  0  0  0  0  0  0  0
   21.0070   13.6840   10.2370 O   0  0  0  0  0  0  0  0  0  0  0  0
   21.7940   14.4380   11.0530 C   0  0  0  0  0  0  0  0  0  0  0  0
   21.7780   15.9190    6.8370 C   0  0  0  0  0  0  0  0  0  0  0  0
   20.6170   16.4450    6.5070 N   0  0  0  0  0  0  0  0  0  0  0  0
   18.9504   19.6134    8.5356 H   0  0  0  0  0  0  0  0  0  0  0  0
   19.8320   19.3891    6.9867 H   0  0  0  0  0  0  0  0  0  0  0  0
   18.0430   19.5504    6.9867 H   0  0  0  0  0  0  0  0  0  0  0  0
   18.2590   17.4236    8.6248 H   0  0  0  0  0  0  0  0  0  0  0  0
   18.1998   17.2764    6.8150 H   0  0  0  0  0  0  0  0  0  0  0  0
   20.8184   17.0082    9.7880 H   0  0  0  0  0  0  0  0  0  0  0  0
   24.3837   16.5926   11.4109 H   0  0  0  0  0  0  0  0  0  0  0  0
   23.8953   18.2940   13.0233 H   0  0  0  0  0  0  0  0  0  0  0  0
   23.9066   18.8735   15.7314 H   0  0  0  0  0  0  0  0  0  0  0  0
   25.4426   17.0376   16.1900 H   0  0  0  0  0  0  0  0  0  0  0  0
   26.6177   17.6892   14.9980 H   0  0  0  0  0  0  0  0  0  0  0  0
   25.6360   19.0610   17.5485 H   0  0  0  0  0  0  0  0  0  0  0  0
   27.2801   18.3708   17.2358 H   0  0  0  0  0  0  0  0  0  0  0  0
   26.2376   21.6747   14.9288 H   0  0  0  0  0  0  0  0  0  0  0  0
   21.8210   14.8360   14.4397 H   0  0  0  0  0  0  0  0  0  0  0  0
   19.7438   12.9817   13.2090 H   0  0  0  0  0  0  0  0  0  0  0  0
   19.3339   12.3507   10.6577 H   0  0  0  0  0  0  0  0  0  0  0  0
   22.4603   15.4157    6.1362 H   0  0  0  0  0  0  0  0  0  0  0  0
  1  2  1  0
  2  3  1  0
  3  4  2  0
  4  5  1  0
  5  6  1  0
  6  7  2  0
  6  8  2  0
  6  9  1  0
  9 10  2  0
 10 11  1  0
 11 12  1  0
 12 13  2  0
 12 14  1  0
 14 15  1  0
 15 16  1  0
 16 17  1  0
 17 18  1  0
 18 19  2  0
 18 20  1  0
 20 21  1  0
 21 22  2  0
 11 23  2  0
 23 24  1  0
 24 25  1  0
 25 26  2  0
 26 27  1  0
 27 28  1  0
  5 29  1  0
 29 30  2  0
 30  3  1  0
 28  9  1  0
 21 15  1  0
 28 24  2  0
  1 31  1  0
  1 32  1  0
  1 33  1  0
  2 34  1  0
  2 35  1  0
  4 36  1  0
 10 37  1  0
 14 38  1  0
 15 39  1  1
 16 40  1  0
 16 41  1  0
 17 42  1  0
 17 43  1  0
 20 44  1  0
 23 45  1  0
 25 46  1  0
 26 47  1  0
 29 48  1  0
M  END
>  <meeko>  (1108) 
{"is_sidechain": [true], "free_energy": -10.25, "intermolecular_energy": 0.0, "internal_energy": -10.25, "cluster_size": 20, "cluster_id": 1, "rank_in_cluster": 1}

>  <_RMSD_MCS_to_ref>  (1108) 
0.45159753468473834

$$$$
ligand
     RDKit          3D

 48 51  0  0  0  0  0  0  0  0999 V2000
   18.9090   19.1540    7.5370 C   0  0  0  0  0  0  0  0  0  0  0  0
   18.7730   17.6460    7.6780 C   0  0  0  0  0  0  0  0  0  0  0  0
   20.0920   16.9570    7.6430 C   0  0  0  0  0  0  0  0  0  0  0  0
   20.9630   16.6950    8.6820 C   0  0  0  0  0  0  0  0  0  0  0  0
   22.0000   16.0330    8.0910 N   0  0  0  0  0  0  0  0  0  0  0  0
   23.4960   15.6880    8.7980 S   0  0  0  0  0  6  0  0  0  0  0  0
   23.8330   14.3600    8.3180 O   0  0  0  0  0  0  0  0  0  0  0  0
   24.3200   16.8240    8.4240 O   0  0  0  0  0  0  0  0  0  0  0  0
   23.2410   15.6700   10.5130 C   0  0  0  0  0  0  0  0  0  0  0  0
   24.0320   16.4430   11.2890 C   0  0  0  0  0  0  0  0  0  0  0  0
   23.8230   16.4800   12.7350 C   0  0  0  0  0  0  0  0  0  0  0  0
   24.6820   17.3780   13.5690 C   0  0  0  0  0  0  0  0  0  0  0  0
   25.9030   17.3580   13.4590 O   0  0  0  0  0  0  0  0  0  0  0  0
   24.0150   18.1540   14.4800 N   0  0  0  0  0  0  0  0  0  0  0  0
   24.7350   18.9460   15.4690 C   0  0  1  0  0  0  0  0  0  0  0  0
   25.7290   18.1090   16.2680 C   0  0  0  0  0  0  0  0  0  0  0  0
   26.4710   19.0030   17.2490 C   0  0  0  0  0  0  0  0  0  0  0  0
   27.1440   20.1560   16.5410 C   0  0  0  0  0  0  0  0  0  0  0  0
   28.2120   20.6280   16.9200 O   0  0  0  0  0  0  0  0  0  0  0  0
   26.4870   20.6800   15.4570 N   0  0  0  0  0  0  0  0  0  0  0  0
   25.4920   20.0620   14.7420 C   0  0  0  0  0  0  0  0  0  0  0  0
   25.2260   20.4010   13.5900 O   0  0  0  0  0  0  0  0  0  0  0  0
   22.8220   15.7760   13.3000 C   0  0  0  0  0  0  0  0  0  0  0  0
   21.9890   14.9530   12.4920 C   0  0  0  0  0  0  0  0  0  0  0  0
   20.9770   14.1870   12.8330 N   0  0  0  0  0  0  0  0  0  0  0  0
   20.5450   13.6150   11.6710 C   0  0  0  0  0  0  0  0  0  0  0  0
   21.2980   14.0430   10.6040 C   0  0  0  0  0  0  0  0  0  0  0  0
   22.2300   14.9170   11.1150 N   0  0  0  0  0  0  0  0  0  0  0  0
   21.7700   15.9460    6.7550 C   0  0  0  0  0  0  0  0  0  0  0  0
   20.6120   16.4950    6.4500 N   0  0  0  0  0  0  0  0  0  0  0  0
   18.9504   19.6134    8.5356 H   0  0  0  0  0  0  0  0  0  0  0  0
   19.8320   19.3891    6.9867 H   0  0  0  0  0  0  0  0  0  0  0  0
   18.0430   19.5504    6.9867 H   0  0  0  0  0  0  0  0  0  0  0  0
   18.2819   17.4227    8.6366 H   0  0  0  0  0  0  0  0  0  0  0  0
   18.1779   17.2796    6.8285 H   0  0  0  0  0  0  0  0  0  0  0  0
   20.8475   16.9594    9.7435 H   0  0  0  0  0  0  0  0  0  0  0  0
   24.8325   17.0439   10.8329 H   0  0  0  0  0  0  0  0  0  0  0  0
   22.9854   18.1781   14.4656 H   0  0  0  0  0  0  0  0  0  0  0  0
   24.0007   19.3558   16.1782 H   0  0  0  0  0  0  0  0  0  0  0  0
   25.1884   17.3269   16.8213 H   0  0  0  0  0  0  0  0  0  0  0  0
   26.4496   17.6408   15.5813 H   0  0  0  0  0  0  0  0  0  0  0  0
   25.7548   19.4019   17.9825 H   0  0  0  0  0  0  0  0  0  0  0  0
   27.2458   18.4025   17.7481 H   0  0  0  0  0  0  0  0  0  0  0  0
   26.7659   21.6234   15.1518 H   0  0  0  0  0  0  0  0  0  0  0  0
   22.6493   15.8377   14.3846 H   0  0  0  0  0  0  0  0  0  0  0  0
   19.7066   12.9066   11.5985 H   0  0  0  0  0  0  0  0  0  0  0  0
   21.1794   13.7462    9.5515 H   0  0  0  0  0  0  0  0  0  0  0  0
   22.4546   15.4822    6.0296 H   0  0  0  0  0  0  0  0  0  0  0  0
  1  2  1  0
  2  3  1  0
  3  4  2  0
  4  5  1  0
  5  6  1  0
  6  7  2  0
  6  8  2  0
  6  9  1  0
  9 10  2  0
 10 11  1  0
 11 12  1  0
 12 13  2  0
 12 14  1  0
 14 15  1  0
 15 16  1  0
 16 17  1  0
 17 18  1  0
 18 19  2  0
 18 20  1  0
 20 21  1  0
 21 22  2  0
 11 23  2  0
 23 24  1  0
 24 25  2  0
 25 26  1  0
 26 27  2  0
 27 28  1  0
  5 29  1  0
 29 30  2  0
 30  3  1  0
 28  9  1  0
 21 15  1  0
 28 24  1  0
  1 31  1  0
  1 32  1  0
  1 33  1  0
  2 34  1  0
  2 35  1  0
  4 36  1  0
 10 37  1  0
 14 38  1  0
 15 39  1  1
 16 40  1  0
 16 41  1  0
 17 42  1  0
 17 43  1  0
 20 44  1  0
 23 45  1  0
 26 46  1  0
 27 47  1  0
 29 48  1  0
M  END
>  <meeko>  (1109) 
{"is_sidechain": [true], "free_energy": -10.25, "intermolecular_energy": 0.0, "internal_energy": -10.25, "cluster_size": 19, "cluster_id": 1, "rank_in_cluster": 1}

>  <_RMSD_MCS_to_ref>  (1109) 
0.8037085569063231

$$$$
ligand
     RDKit          3D

 47 50  0  0  0  0  0  0  0  0999 V2000
   18.9090   19.1540    7.5370 C   0  0  0  0  0  0  0  0  0  0  0  0
   18.7730   17.6460    7.6780 C   0  0  0  0  0  0  0  0  0  0  0  0
   20.0870   16.9530    7.5880 C   0  0  0  0  0  0  0  0  0  0  0  0
   20.4810   15.7620    8.1670 C   0  0  0  0  0  0  0  0  0  0  0  0
   21.7730   15.6010    7.7550 N   0  0  0  0  0  0  0  0  0  0  0  0
   22.8330   14.4080    8.2600 S   0  0  0  0  0  6  0  0  0  0  0  0
   23.9330   14.4260    7.3070 O   0  0  0  0  0  0  0  0  0  0  0  0
   22.0460   13.2120    8.4950 O   0  0  0  0  0  0  0  0  0  0  0  0
   23.4770   14.9880    9.7990 C   0  0  0  0  0  0  0  0  0  0  0  0
   24.7670   15.4190    9.7760 N   0  0  0  0  0  0  0  0  0  0  0  0
   25.3200   15.8740   10.9300 C   0  0  0  0  0  0  0  0  0  0  0  0
   24.6620   15.9460   12.1580 C   0  0  0  0  0  0  0  0  0  0  0  0
   25.3810   16.4720   13.3290 C   0  0  0  0  0  0  0  0  0  0  0  0
   25.9100   15.6960   14.1140 O   0  0  0  0  0  0  0  0  0  0  0  0
   25.4590   17.8410   13.4520 N   0  0  0  0  0  0  0  0  0  0  0  0
   26.2790   18.4540   14.4900 C   0  0  2  0  0  0  0  0  0  0  0  0
   25.8870   17.9890   15.8880 C   0  0  0  0  0  0  0  0  0  0  0  0
   26.7480   18.7000   16.9190 C   0  0  0  0  0  0  0  0  0  0  0  0
   26.6490   20.2020   16.7780 C   0  0  0  0  0  0  0  0  0  0  0  0
   26.7130   20.9600   17.7390 O   0  0  0  0  0  0  0  0  0  0  0  0
   26.5100   20.6900   15.5020 N   0  0  0  0  0  0  0  0  0  0  0  0
   26.1090   19.9730   14.4030 C   0  0  0  0  0  0  0  0  0  0  0  0
   25.6520   20.5310   13.4060 O   0  0  0  0  0  0  0  0  0  0  0  0
   23.3440   15.4610   12.1870 C   0  0  0  0  0  0  0  0  0  0  0  0
   22.3250   15.2510   13.1450 C   0  0  0  0  0  0  0  0  0  0  0  0
   21.2160   14.7300   12.6180 N   0  0  0  0  0  0  0  0  0  0  0  0
   21.5150   14.5770   11.3190 N   0  0  0  0  0  0  0  0  0  0  0  0
   22.7820   14.9930   11.0010 C   0  0  0  0  0  0  0  0  0  0  0  0
   22.1340   16.6690    6.9970 C   0  0  0  0  0  0  0  0  0  0  0  0
   21.1250   17.5040    6.8630 N   0  0  0  0  0  0  0  0  0  0  0  0
   18.9504   19.6134    8.5356 H   0  0  0  0  0  0  0  0  0  0  0  0
   19.8320   19.3891    6.9867 H   0  0  0  0  0  0  0  0  0  0  0  0
   18.0430   19.5504    6.9867 H   0  0  0  0  0  0  0  0  0  0  0  0
   18.3197   17.4208    8.6546 H   0  0  0  0  0  0  0  0  0  0  0  0
   18.1430   17.2847    6.8519 H   0  0  0  0  0  0  0  0  0  0  0  0
   19.8894   15.0959    8.8122 H   0  0  0  0  0  0  0  0  0  0  0  0
   26.3663   16.2114   10.8936 H   0  0  0  0  0  0  0  0  0  0  0  0
   24.9308   18.4403   12.8018 H   0  0  0  0  0  0  0  0  0  0  0  0
   27.3242   18.1544   14.3235 H   0  0  0  0  0  0  0  0  0  0  0  0
   24.8280   18.2250   16.0693 H   0  0  0  0  0  0  0  0  0  0  0  0
   26.0400   16.9027   15.9692 H   0  0  0  0  0  0  0  0  0  0  0  0
   26.4119   18.4120   17.9260 H   0  0  0  0  0  0  0  0  0  0  0  0
   27.7955   18.4052   16.7583 H   0  0  0  0  0  0  0  0  0  0  0  0
   26.7268   21.6863   15.3564 H   0  0  0  0  0  0  0  0  0  0  0  0
   22.4354   15.4920   14.2126 H   0  0  0  0  0  0  0  0  0  0  0  0
   20.8578   14.1858   10.6291 H   0  0  0  0  0  0  0  0  0  0  0  0
   23.1311   16.8158    6.5563 H   0  0  0  0  0  0  0  0  0  0  0  0
  1  2  1  0
  2  3  1  0
  3  4  2  0
  4  5  1  0
  5  6  1  0
  6  7  2  0
  6  8  2  0
  6  9  1  0
  9 10  2  0
 10 11  1  0
 11 12  2  0
 12 13  1  0
 13 14  2  0
 13 15  1  0
 15 16  1  0
 16 17  1  0
 17 18  1  0
 18 19  1  0
 19 20  2  0
 19 21  1  0
 21 22  1  0
 22 23  2  0
 12 24  1  0
 24 25  1  0
 25 26  2  0
 26 27  1  0
 27 28  1  0
  5 29  1  0
 29 30  2  0
 30  3  1  0
 28  9  1  0
 22 16  1  0
 28 24  2  0
  1 31  1  0
  1 32  1  0
  1 33  1  0
  2 34  1  0
  2 35  1  0
  4 36  1  0
 11 37  1  0
 15 38  1  0
 16 39  1  6
 17 40  1  0
 17 41  1  0
 18 42  1  0
 18 43  1  0
 21 44  1  0
 25 45  1  0
 27 46  1  0
 29 47  1  0
M  END
>  <meeko>  (1110) 
{"is_sidechain": [true], "free_energy": -10.25, "intermolecular_energy": 0.0, "internal_energy": -10.25, "cluster_size": 17, "cluster_id": 1, "rank_in_cluster": 1}

>  <_RMSD_MCS_to_ref>  (1110) 
0.8638698461638258

$$$$
ligand
     RDKit          3D

 42 44  0  0  0  0  0  0  0  0999 V2000
   18.9090   19.1540    7.5370 C   0  0  0  0  0  0  0  0  0  0  0  0
   18.7730   17.6460    7.6780 C   0  0  0  0  0  0  0  0  0  0  0  0
   20.0930   16.9580    7.6580 C   0  0  0  0  0  0  0  0  0  0  0  0
   20.8760   16.5550    8.7210 C   0  0  0  0  0  0  0  0  0  0  0  0
   21.9750   15.9910    8.1360 N   0  0  0  0  0  0  0  0  0  0  0  0
   23.4160   15.6360    8.9190 S   0  0  0  0  0  6  0  0  0  0  0  0
   24.2350   16.8290    8.8410 O   0  0  0  0  0  0  0  0  0  0  0  0
   23.8440   14.3410    8.4310 O   0  0  0  0  0  0  0  0  0  0  0  0
   23.0380   15.4100   10.6470 C   0  0  0  0  0  0  0  0  0  0  0  0
   22.1240   14.5880   11.2910 C   0  0  0  0  0  0  0  0  0  0  0  0
   22.2480   14.8160   12.6830 C   0  0  0  0  0  0  0  0  0  0  0  0
   23.2320   15.7680   12.8390 C   0  0  0  0  0  0  0  0  0  0  0  0
   23.7860   16.3970   14.0200 C   0  0  0  0  0  0  0  0  0  0  0  0
   23.8280   15.8620   15.1240 O   0  0  0  0  0  0  0  0  0  0  0  0
   24.2590   17.6700   13.8030 N   0  0  0  0  0  0  0  0  0  0  0  0
   24.7130   18.5320   14.8800 C   0  0  1  0  0  0  0  0  0  0  0  0
   25.8190   17.8820   15.7040 C   0  0  0  0  0  0  0  0  0  0  0  0
   26.2740   18.8470   16.7890 C   0  0  0  0  0  0  0  0  0  0  0  0
   26.7120   20.1690   16.2020 C   0  0  0  0  0  0  0  0  0  0  0  0
   27.6030   20.8480   16.7030 O   0  0  0  0  0  0  0  0  0  0  0  0
   26.0350   20.6020   15.0900 N   0  0  0  0  0  0  0  0  0  0  0  0
   25.2380   19.8390   14.2740 C   0  0  0  0  0  0  0  0  0  0  0  0
   24.9570   20.2080   13.1340 O   0  0  0  0  0  0  0  0  0  0  0  0
   23.7110   16.1280   11.6110 O   0  0  0  0  0  0  0  0  0  0  0  0
   21.8630   16.1030    6.7860 C   0  0  0  0  0  0  0  0  0  0  0  0
   20.7190   16.6680    6.4620 N   0  0  0  0  0  0  0  0  0  0  0  0
   18.9504   19.6134    8.5356 H   0  0  0  0  0  0  0  0  0  0  0  0
   19.8320   19.3891    6.9867 H   0  0  0  0  0  0  0  0  0  0  0  0
   18.0430   19.5504    6.9867 H   0  0  0  0  0  0  0  0  0  0  0  0
   18.2718   17.4231    8.6315 H   0  0  0  0  0  0  0  0  0  0  0  0
   18.1875   17.2783    6.8224 H   0  0  0  0  0  0  0  0  0  0  0  0
   20.6637   16.6632    9.7949 H   0  0  0  0  0  0  0  0  0  0  0  0
   21.4287   13.8861   10.8074 H   0  0  0  0  0  0  0  0  0  0  0  0
   21.6717   14.3286   13.4832 H   0  0  0  0  0  0  0  0  0  0  0  0
   24.2926   18.0266   12.8373 H   0  0  0  0  0  0  0  0  0  0  0  0
   23.8625   18.7206   15.5517 H   0  0  0  0  0  0  0  0  0  0  0  0
   25.4375   16.9608   16.1685 H   0  0  0  0  0  0  0  0  0  0  0  0
   26.6689   17.6369   15.0501 H   0  0  0  0  0  0  0  0  0  0  0  0
   25.4401   19.0228   17.4844 H   0  0  0  0  0  0  0  0  0  0  0  0
   27.1313   18.3996   17.3133 H   0  0  0  0  0  0  0  0  0  0  0  0
   26.1347   21.5971   14.8435 H   0  0  0  0  0  0  0  0  0  0  0  0
   22.6227   15.7681    6.0645 H   0  0  0  0  0  0  0  0  0  0  0  0
  1  2  1  0
  2  3  1  0
  3  4  2  0
  4  5  1  0
  5  6  1  0
  6  7  2  0
  6  8  2  0
  6  9  1  0
  9 10  2  0
 10 11  1  0
 11 12  2  0
 12 13  1  0
 13 14  2  0
 13 15  1  0
 15 16  1  0
 16 17  1  0
 17 18  1  0
 18 19  1  0
 19 20  2  0
 19 21  1  0
 21 22  1  0
 22 23  2  0
 12 24  1  0
  5 25  1  0
 25 26  2  0
 26  3  1  0
 24  9  1  0
 22 16  1  0
  1 27  1  0
  1 28  1  0
  1 29  1  0
  2 30  1  0
  2 31  1  0
  4 32  1  0
 10 33  1  0
 11 34  1  0
 15 35  1  0
 16 36  1  1
 17 37  1  0
 17 38  1  0
 18 39  1  0
 18 40  1  0
 21 41  1  0
 25 42  1  0
M  END
>  <meeko>  (1111) 
{"is_sidechain": [true], "free_energy": -10.25, "intermolecular_energy": 0.0, "internal_energy": -10.25, "cluster_size": 20, "cluster_id": 1, "rank_in_cluster": 1}

>  <_RMSD_MCS_to_ref>  (1111) 
0.35140906837094255

$$$$
ligand
     RDKit          3D

 47 50  0  0  0  0  0  0  0  0999 V2000
   18.9090   19.1540    7.5370 C   0  0  0  0  0  0  0  0  0  0  0  0
   18.7730   17.6460    7.6780 C   0  0  0  0  0  0  0  0  0  0  0  0
   20.0650   16.9430    7.4520 C   0  0  0  0  0  0  0  0  0  0  0  0
   20.5190   15.7670    8.0140 C   0  0  0  0  0  0  0  0  0  0  0  0
   21.7620   15.5980    7.4810 N   0  0  0  0  0  0  0  0  0  0  0  0
   22.9130   14.4540    7.9460 S   0  0  0  0  0  6  0  0  0  0  0  0
   23.5270   14.0650    6.6860 O   0  0  0  0  0  0  0  0  0  0  0  0
   22.1790   13.4740    8.7260 O   0  0  0  0  0  0  0  0  0  0  0  0
   24.0940   15.2400    8.9460 C   0  0  0  0  0  0  0  0  0  0  0  0
   25.1790   15.8020    8.3690 C   0  0  0  0  0  0  0  0  0  0  0  0
   26.2070   16.4550    9.1670 C   0  0  0  0  0  0  0  0  0  0  0  0
   26.0740   16.4830   10.5040 C   0  0  0  0  0  0  0  0  0  0  0  0
   24.9570   15.8900   11.0940 N   0  0  0  0  0  0  0  0  0  0  0  0
   24.5620   15.7680   12.4080 C   0  0  0  0  0  0  0  0  0  0  0  0
   25.2490   16.2520   13.5820 C   0  0  0  0  0  0  0  0  0  0  0  0
   25.5700   15.5480   14.5360 O   0  0  0  0  0  0  0  0  0  0  0  0
   25.5320   17.6000   13.5500 N   0  0  0  0  0  0  0  0  0  0  0  0
   26.3310   18.2580   14.5680 C   0  0  2  0  0  0  0  0  0  0  0  0
   25.8510   17.9220   15.9760 C   0  0  0  0  0  0  0  0  0  0  0  0
   26.7100   18.6560   16.9950 C   0  0  0  0  0  0  0  0  0  0  0  0
   26.7110   20.1450   16.7420 C   0  0  0  0  0  0  0  0  0  0  0  0
   26.7930   20.9660   17.6500 O   0  0  0  0  0  0  0  0  0  0  0  0
   26.6490   20.5450   15.4320 N   0  0  0  0  0  0  0  0  0  0  0  0
   26.2590   19.7750   14.3640 C   0  0  0  0  0  0  0  0  0  0  0  0
   25.8960   20.2920   13.3080 O   0  0  0  0  0  0  0  0  0  0  0  0
   23.4130   15.1160   12.4570 N   0  0  0  0  0  0  0  0  0  0  0  0
   23.0380   14.7990   11.1770 N   0  0  0  0  0  0  0  0  0  0  0  0
   23.9550   15.2630   10.3580 C   0  0  0  0  0  0  0  0  0  0  0  0
   22.0350   16.6400    6.6520 C   0  0  0  0  0  0  0  0  0  0  0  0
   21.0180   17.4730    6.6040 N   0  0  0  0  0  0  0  0  0  0  0  0
   18.9504   19.6134    8.5356 H   0  0  0  0  0  0  0  0  0  0  0  0
   19.8320   19.3891    6.9867 H   0  0  0  0  0  0  0  0  0  0  0  0
   18.0430   19.5504    6.9867 H   0  0  0  0  0  0  0  0  0  0  0  0
   18.4168   17.4155    8.6929 H   0  0  0  0  0  0  0  0  0  0  0  0
   18.0605   17.2978    6.9157 H   0  0  0  0  0  0  0  0  0  0  0  0
   19.9966   15.1147    8.7292 H   0  0  0  0  0  0  0  0  0  0  0  0
   25.2877   15.7654    7.2750 H   0  0  0  0  0  0  0  0  0  0  0  0
   27.0793   16.9184    8.6829 H   0  0  0  0  0  0  0  0  0  0  0  0
   26.8387   16.9690   11.1277 H   0  0  0  0  0  0  0  0  0  0  0  0
   25.1615   18.1641   12.7719 H   0  0  0  0  0  0  0  0  0  0  0  0
   27.3659   17.8990   14.4671 H   0  0  0  0  0  0  0  0  0  0  0  0
   24.8019   18.2328   16.0894 H   0  0  0  0  0  0  0  0  0  0  0  0
   25.9329   16.8376   16.1416 H   0  0  0  0  0  0  0  0  0  0  0  0
   26.3129   18.4642   18.0027 H   0  0  0  0  0  0  0  0  0  0  0  0
   27.7430   18.2885   16.9069 H   0  0  0  0  0  0  0  0  0  0  0  0
   26.9214   21.5174   15.2293 H   0  0  0  0  0  0  0  0  0  0  0  0
   22.9764   16.7689    6.0978 H   0  0  0  0  0  0  0  0  0  0  0  0
  1  2  1  0
  2  3  1  0
  3  4  2  0
  4  5  1  0
  5  6  1  0
  6  7  2  0
  6  8  2  0
  6  9  1  0
  9 10  2  0
 10 11  1  0
 11 12  2  0
 12 13  1  0
 13 14  1  0
 14 15  1  0
 15 16  2  0
 15 17  1  0
 17 18  1  0
 18 19  1  0
 19 20  1  0
 20 21  1  0
 21 22  2  0
 21 23  1  0
 23 24  1  0
 24 25  2  0
 14 26  2  0
 26 27  1  0
 27 28  2  0
  5 29  1  0
 29 30  2  0
 30  3  1  0
 28  9  1  0
 28 13  1  0
 24 18  1  0
  1 31  1  0
  1 32  1  0
  1 33  1  0
  2 34  1  0
  2 35  1  0
  4 36  1  0
 10 37  1  0
 11 38  1  0
 12 39  1  0
 17 40  1  0
 18 41  1  1
 19 42  1  0
 19 43  1  0
 20 44  1  0
 20 45  1  0
 23 46  1  0
 29 47  1  0
M  END
>  <meeko>  (1112) 
{"is_sidechain": [true], "free_energy": -10.25, "intermolecular_energy": 0.0, "internal_energy": -10.25, "cluster_size": 19, "cluster_id": 1, "rank_in_cluster": 1}

>  <_RMSD_MCS_to_ref>  (1112) 
0.9059729576538146

$$$$
ligand
     RDKit          3D

 54 57  0  0  0  0  0  0  0  0999 V2000
   18.9090   19.1540    7.5370 C   0  0  0  0  0  0  0  0  0  0  0  0
   18.7730   17.6460    7.6780 C   0  0  0  0  0  0  0  0  0  0  0  0
   20.0350   16.9330    7.3410 C   0  0  0  0  0  0  0  0  0  0  0  0
   21.0920   16.6020    8.1660 C   0  0  0  0  0  0  0  0  0  0  0  0
   21.9840   15.9850    7.3370 N   0  0  0  0  0  0  0  0  0  0  0  0
   23.3600   15.1480    7.8190 S   0  0  0  0  0  6  0  0  0  0  0  0
   23.1590   13.7790    7.3840 O   0  0  0  0  0  0  0  0  0  0  0  0
   24.4850   15.9480    7.3750 O   0  0  0  0  0  0  0  0  0  0  0  0
   23.2680   15.2090    9.5850 C   0  0  0  0  0  0  0  0  0  0  0  0
   23.0860   16.4330   10.2260 C   0  0  0  0  0  0  0  0  0  0  0  0
   23.0280   16.4680   11.6160 C   0  0  0  0  0  0  0  0  0  0  0  0
   23.1500   15.2830   12.3640 C   0  0  0  0  0  0  0  0  0  0  0  0
   23.3490   14.0510   11.7160 C   0  0  0  0  0  0  0  0  0  0  0  0
   23.3720   14.0220   10.3180 C   0  0  0  0  0  0  0  0  0  0  0  0
   23.3880   12.8480   12.4200 N   0  0  0  0  0  0  0  0  0  0  0  0
   23.6250   12.8870   13.8550 C   0  0  0  0  0  0  0  0  0  0  0  0
   22.8010   13.9880   14.5030 C   0  0  0  0  0  0  0  0  0  0  0  0
   23.1140   15.3520   13.8810 C   0  0  1  0  0  0  0  0  0  0  0  0
   24.3960   15.9280   14.4900 C   0  0  0  0  0  0  0  0  0  0  0  0
   25.3600   15.2120   14.7580 O   0  0  0  0  0  0  0  0  0  0  0  0
   24.4410   17.2910   14.6580 N   0  0  0  0  0  0  0  0  0  0  0  0
   25.6330   17.9820   15.1210 C   0  0  2  0  0  0  0  0  0  0  0  0
   25.8350   17.8320   16.6240 C   0  0  0  0  0  0  0  0  0  0  0  0
   27.0780   18.6010   17.0460 C   0  0  0  0  0  0  0  0  0  0  0  0
   26.9970   20.0510   16.6280 C   0  0  0  0  0  0  0  0  0  0  0  0
   27.5070   20.9550   17.2830 O   0  0  0  0  0  0  0  0  0  0  0  0
   26.3510   20.3160   15.4480 N   0  0  0  0  0  0  0  0  0  0  0  0
   25.5000   19.4700   14.7800 C   0  0  0  0  0  0  0  0  0  0  0  0
   24.6960   19.8970   13.9510 O   0  0  0  0  0  0  0  0  0  0  0  0
   21.4530   15.9130    6.0880 C   0  0  0  0  0  0  0  0  0  0  0  0
   20.2700   16.4880    6.0550 N   0  0  0  0  0  0  0  0  0  0  0  0
   18.9504   19.6134    8.5356 H   0  0  0  0  0  0  0  0  0  0  0  0
   19.8320   19.3891    6.9867 H   0  0  0  0  0  0  0  0  0  0  0  0
   18.0430   19.5504    6.9867 H   0  0  0  0  0  0  0  0  0  0  0  0
   18.5001   17.4107    8.7173 H   0  0  0  0  0  0  0  0  0  0  0  0
   17.9974   17.3100    6.9741 H   0  0  0  0  0  0  0  0  0  0  0  0
   21.1922   16.7921    9.2448 H   0  0  0  0  0  0  0  0  0  0  0  0
   22.9894   17.3594    9.6408 H   0  0  0  0  0  0  0  0  0  0  0  0
   22.8858   17.4284   12.1330 H   0  0  0  0  0  0  0  0  0  0  0  0
   23.4724   13.0611    9.7921 H   0  0  0  0  0  0  0  0  0  0  0  0
   23.2518   11.9501   11.9341 H   0  0  0  0  0  0  0  0  0  0  0  0
   23.3438   11.9186   14.2944 H   0  0  0  0  0  0  0  0  0  0  0  0
   24.6913   13.0901   14.0332 H   0  0  0  0  0  0  0  0  0  0  0  0
   21.7327   13.7664   14.3631 H   0  0  0  0  0  0  0  0  0  0  0  0
   23.0518   14.0271   15.5733 H   0  0  0  0  0  0  0  0  0  0  0  0
   22.2978   16.0485   14.1234 H   0  0  0  0  0  0  0  0  0  0  0  0
   23.5979   17.8441   14.4478 H   0  0  0  0  0  0  0  0  0  0  0  0
   26.5043   17.5350   14.6200 H   0  0  0  0  0  0  0  0  0  0  0  0
   24.9582   18.2324   17.1539 H   0  0  0  0  0  0  0  0  0  0  0  0
   25.9588   16.7679   16.8737 H   0  0  0  0  0  0  0  0  0  0  0  0
   27.1769   18.5489   18.1403 H   0  0  0  0  0  0  0  0  0  0  0  0
   27.9503   18.1467   16.5534 H   0  0  0  0  0  0  0  0  0  0  0  0
   26.5202   21.2382   15.0216 H   0  0  0  0  0  0  0  0  0  0  0  0
   21.9439   15.4398    5.2248 H   0  0  0  0  0  0  0  0  0  0  0  0
  1  2  1  0
  2  3  1  0
  3  4  2  0
  4  5  1  0
  5  6  1  0
  6  7  2  0
  6  8  2  0
  6  9  1  0
  9 10  2  0
 10 11  1  0
 11 12  2  0
 12 13  1  0
 13 14  2  0
 13 15  1  0
 15 16  1  0
 16 17  1  0
 17 18  1  0
 18 19  1  0
 19 20  2  0
 19 21  1  0
 21 22  1  0
 22 23  1  0
 23 24  1  0
 24 25  1  0
 25 26  2  0
 25 27  1  0
 27 28  1  0
 28 29  2  0
  5 30  1  0
 30 31  2  0
 31  3  1  0
 14  9  1  0
 28 22  1  0
 18 12  1  0
  1 32  1  0
  1 33  1  0
  1 34  1  0
  2 35  1  0
  2 36  1  0
  4 37  1  0
 10 38  1  0
 11 39  1  0
 14 40  1  0
 15 41  1  0
 16 42  1  0
 16 43  1  0
 17 44  1  0
 17 45  1  0
 18 46  1  6
 21 47  1  0
 22 48  1  6
 23 49  1  0
 23 50  1  0
 24 51  1  0
 24 52  1  0
 27 53  1  0
 30 54  1  0
M  END
>  <meeko>  (1113) 
{"is_sidechain": [true], "free_energy": -10.25, "intermolecular_energy": 0.0, "internal_energy": -10.25, "cluster_size": 20, "cluster_id": 1, "rank_in_cluster": 1}

>  <_RMSD_MCS_to_ref>  (1113) 
0.7549531994324766

$$$$
ligand
     RDKit          3D

 44 46  0  0  0  0  0  0  0  0999 V2000
   18.9090   19.1540    7.5370 C   0  0  0  0  0  0  0  0  0  0  0  0
   18.7730   17.6460    7.6780 C   0  0  0  0  0  0  0  0  0  0  0  0
   20.0880   16.9540    7.5960 C   0  0  0  0  0  0  0  0  0  0  0  0
   21.0150   16.7280    8.5940 C   0  0  0  0  0  0  0  0  0  0  0  0
   22.0150   16.0350    7.9720 N   0  0  0  0  0  0  0  0  0  0  0  0
   23.5190   15.6760    8.6270 S   0  0  0  0  0  6  0  0  0  0  0  0
   23.8530   14.3450    8.1610 O   0  0  0  0  0  0  0  0  0  0  0  0
   24.3520   16.8300    8.3530 O   0  0  0  0  0  0  0  0  0  0  0  0
   23.2200   15.6050   10.3560 C   0  0  0  0  0  0  0  0  0  0  0  0
   22.0490   15.0300   10.8140 C   0  0  0  0  0  0  0  0  0  0  0  0
   21.7350   14.9550   12.1270 N   0  0  0  0  0  0  0  0  0  0  0  0
   22.6420   15.4530   13.0080 C   0  0  0  0  0  0  0  0  0  0  0  0
   23.8610   16.0120   12.6360 C   0  0  0  0  0  0  0  0  0  0  0  0
   24.7630   16.5140   13.6990 C   0  0  0  0  0  0  0  0  0  0  0  0
   25.2660   15.7310   14.4960 O   0  0  0  0  0  0  0  0  0  0  0  0
   25.0120   17.8680   13.7200 N   0  0  0  0  0  0  0  0  0  0  0  0
   25.9980   18.4320   14.6350 C   0  0  2  0  0  0  0  0  0  0  0  0
   25.7180   18.0600   16.0870 C   0  0  0  0  0  0  0  0  0  0  0  0
   26.7540   18.7160   16.9880 C   0  0  0  0  0  0  0  0  0  0  0  0
   26.7860   20.2130   16.7860 C   0  0  0  0  0  0  0  0  0  0  0  0
   27.0280   20.9960   17.7000 O   0  0  0  0  0  0  0  0  0  0  0  0
   26.5600   20.6680   15.5110 N   0  0  0  0  0  0  0  0  0  0  0  0
   25.9670   19.9570   14.4970 C   0  0  0  0  0  0  0  0  0  0  0  0
   25.4560   20.5240   13.5320 O   0  0  0  0  0  0  0  0  0  0  0  0
   24.1520   16.0970   11.2720 C   0  0  0  0  0  0  0  0  0  0  0  0
   21.7110   15.9000    6.6560 C   0  0  0  0  0  0  0  0  0  0  0  0
   20.5410   16.4430    6.3950 N   0  0  0  0  0  0  0  0  0  0  0  0
   18.9504   19.6134    8.5356 H   0  0  0  0  0  0  0  0  0  0  0  0
   19.8320   19.3891    6.9867 H   0  0  0  0  0  0  0  0  0  0  0  0
   18.0430   19.5504    6.9867 H   0  0  0  0  0  0  0  0  0  0  0  0
   18.3142   17.4210    8.6521 H   0  0  0  0  0  0  0  0  0  0  0  0
   18.1479   17.2838    6.8485 H   0  0  0  0  0  0  0  0  0  0  0  0
   20.9609   17.0355    9.6487 H   0  0  0  0  0  0  0  0  0  0  0  0
   21.3429   14.6160   10.0791 H   0  0  0  0  0  0  0  0  0  0  0  0
   22.3979   15.4118   14.0798 H   0  0  0  0  0  0  0  0  0  0  0  0
   24.4957   18.4902   13.0818 H   0  0  0  0  0  0  0  0  0  0  0  0
   26.9845   18.0227   14.3717 H   0  0  0  0  0  0  0  0  0  0  0  0
   24.7137   18.4099   16.3679 H   0  0  0  0  0  0  0  0  0  0  0  0
   25.7714   16.9674   16.2022 H   0  0  0  0  0  0  0  0  0  0  0  0
   26.5041   18.5010   18.0374 H   0  0  0  0  0  0  0  0  0  0  0  0
   27.7439   18.3094   16.7333 H   0  0  0  0  0  0  0  0  0  0  0  0
   26.8623   21.6288   15.2955 H   0  0  0  0  0  0  0  0  0  0  0  0
   25.0965   16.5426   10.9267 H   0  0  0  0  0  0  0  0  0  0  0  0
   22.3528   15.4058    5.9118 H   0  0  0  0  0  0  0  0  0  0  0  0
  1  2  1  0
  2  3  1  0
  3  4  2  0
  4  5  1  0
  5  6  1  0
  6  7  2  0
  6  8  2  0
  6  9  1  0
  9 10  2  0
 10 11  1  0
 11 12  2  0
 12 13  1  0
 13 14  1  0
 14 15  2  0
 14 16  1  0
 16 17  1  0
 17 18  1  0
 18 19  1  0
 19 20  1  0
 20 21  2  0
 20 22  1  0
 22 23  1  0
 23 24  2  0
 13 25  2  0
  5 26  1  0
 26 27  2  0
 27  3  1  0
 25  9  1  0
 23 17  1  0
  1 28  1  0
  1 29  1  0
  1 30  1  0
  2 31  1  0
  2 32  1  0
  4 33  1  0
 10 34  1  0
 12 35  1  0
 16 36  1  0
 17 37  1  6
 18 38  1  0
 18 39  1  0
 19 40  1  0
 19 41  1  0
 22 42  1  0
 25 43  1  0
 26 44  1  0
M  END
>  <meeko>  (1114) 
{"is_sidechain": [true], "free_energy": -10.25, "intermolecular_energy": 0.0, "internal_energy": -10.25, "cluster_size": 20, "cluster_id": 1, "rank_in_cluster": 1}

>  <_RMSD_MCS_to_ref>  (1114) 
0.7394909660630674

$$$$
ligand
     RDKit          3D

 43 45  0  0  0  0  0  0  0  0999 V2000
   18.9090   19.1540    7.5370 C   0  0  0  0  0  0  0  0  0  0  0  0
   18.7730   17.6460    7.6780 C   0  0  0  0  0  0  0  0  0  0  0  0
   20.0920   16.9580    7.6430 C   0  0  0  0  0  0  0  0  0  0  0  0
   20.9880   16.7470    8.6730 C   0  0  0  0  0  0  0  0  0  0  0  0
   22.0160   16.0630    8.0890 N   0  0  0  0  0  0  0  0  0  0  0  0
   23.4710   15.6410    8.8140 S   0  0  0  0  0  6  0  0  0  0  0  0
   23.8360   14.3670    8.2160 O   0  0  0  0  0  0  0  0  0  0  0  0
   24.3030   16.8270    8.6940 O   0  0  0  0  0  0  0  0  0  0  0  0
   23.0570   15.3900   10.5260 C   0  0  0  0  0  0  0  0  0  0  0  0
   21.8980   14.7540   10.7890 N   0  0  0  0  0  0  0  0  0  0  0  0
   21.6090   14.6010   12.0940 C   0  0  0  0  0  0  0  0  0  0  0  0
   22.4210   15.0570   13.1050 C   0  0  0  0  0  0  0  0  0  0  0  0
   23.5790   15.6960   12.7050 C   0  0  0  0  0  0  0  0  0  0  0  0
   24.5190   16.2290   13.7410 C   0  0  0  0  0  0  0  0  0  0  0  0
   24.9540   15.5120   14.6350 O   0  0  0  0  0  0  0  0  0  0  0  0
   24.8510   17.5560   13.5970 N   0  0  0  0  0  0  0  0  0  0  0  0
   25.8540   18.2020   14.4260 C   0  0  2  0  0  0  0  0  0  0  0  0
   25.6410   17.9180   15.9080 C   0  0  0  0  0  0  0  0  0  0  0  0
   26.7060   18.6360   16.7220 C   0  0  0  0  0  0  0  0  0  0  0  0
   26.7140   20.1180   16.4300 C   0  0  0  0  0  0  0  0  0  0  0  0
   27.0000   20.9540   17.2820 O   0  0  0  0  0  0  0  0  0  0  0  0
   26.4160   20.4930   15.1460 N   0  0  0  0  0  0  0  0  0  0  0  0
   25.8020   19.7160   14.1930 C   0  0  0  0  0  0  0  0  0  0  0  0
   25.2650   20.2260   13.2100 O   0  0  0  0  0  0  0  0  0  0  0  0
   23.9370   15.8840   11.4140 N   0  0  0  0  0  0  0  0  0  0  0  0
   21.7510   15.9080    6.7650 C   0  0  0  0  0  0  0  0  0  0  0  0
   20.5810   16.4330    6.4630 N   0  0  0  0  0  0  0  0  0  0  0  0
   18.9504   19.6134    8.5356 H   0  0  0  0  0  0  0  0  0  0  0  0
   19.8320   19.3891    6.9867 H   0  0  0  0  0  0  0  0  0  0  0  0
   18.0430   19.5504    6.9867 H   0  0  0  0  0  0  0  0  0  0  0  0
   18.2820   17.4225    8.6366 H   0  0  0  0  0  0  0  0  0  0  0  0
   18.1777   17.2793    6.8288 H   0  0  0  0  0  0  0  0  0  0  0  0
   20.8949   17.0587    9.7238 H   0  0  0  0  0  0  0  0  0  0  0  0
   20.6762   14.0851   12.3655 H   0  0  0  0  0  0  0  0  0  0  0  0
   22.1649   14.9217   14.1662 H   0  0  0  0  0  0  0  0  0  0  0  0
   24.3709   18.1120   12.8750 H   0  0  0  0  0  0  0  0  0  0  0  0
   26.8363   17.7964   14.1420 H   0  0  0  0  0  0  0  0  0  0  0  0
   24.6457   18.2759   16.2102 H   0  0  0  0  0  0  0  0  0  0  0  0
   25.7122   16.8350   16.0868 H   0  0  0  0  0  0  0  0  0  0  0  0
   26.5029   18.4828   17.7922 H   0  0  0  0  0  0  0  0  0  0  0  0
   27.6884   18.2232   16.4492 H   0  0  0  0  0  0  0  0  0  0  0  0
   26.6775   21.4498   14.8683 H   0  0  0  0  0  0  0  0  0  0  0  0
   22.4202   15.4131    6.0458 H   0  0  0  0  0  0  0  0  0  0  0  0
  1  2  1  0
  2  3  1  0
  3  4  2  0
  4  5  1  0
  5  6  1  0
  6  7  2  0
  6  8  2  0
  6  9  1  0
  9 10  2  0
 10 11  1  0
 11 12  2  0
 12 13  1  0
 13 14  1  0
 14 15  2  0
 14 16  1  0
 16 17  1  0
 17 18  1  0
 18 19  1  0
 19 20  1  0
 20 21  2  0
 20 22  1  0
 22 23  1  0
 23 24  2  0
 13 25  2  0
  5 26  1  0
 26 27  2  0
 27  3  1  0
 25  9  1  0
 23 17  1  0
  1 28  1  0
  1 29  1  0
  1 30  1  0
  2 31  1  0
  2 32  1  0
  4 33  1  0
 11 34  1  0
 12 35  1  0
 16 36  1  0
 17 37  1  6
 18 38  1  0
 18 39  1  0
 19 40  1  0
 19 41  1  0
 22 42  1  0
 26 43  1  0
M  END
>  <meeko>  (1115) 
{"is_sidechain": [true], "free_energy": -10.25, "intermolecular_energy": 0.0, "internal_energy": -10.25, "cluster_size": 19, "cluster_id": 1, "rank_in_cluster": 1}

>  <_RMSD_MCS_to_ref>  (1115) 
0.5710134265788616

$$$$
ligand
     RDKit          3D

 43 45  0  0  0  0  0  0  0  0999 V2000
   18.9090   19.1540    7.5370 C   0  0  0  0  0  0  0  0  0  0  0  0
   18.7730   17.6460    7.6780 C   0  0  0  0  0  0  0  0  0  0  0  0
   20.0950   16.9630    7.6990 C   0  0  0  0  0  0  0  0  0  0  0  0
   20.8530   16.5700    8.7850 C   0  0  0  0  0  0  0  0  0  0  0  0
   21.9550   15.9840    8.2290 N   0  0  0  0  0  0  0  0  0  0  0  0
   23.3040   15.4280    9.0590 S   0  0  0  0  0  6  0  0  0  0  0  0
   23.5170   14.0710    8.5900 O   0  0  0  0  0  0  0  0  0  0  0  0
   24.3110   16.4650    8.9230 O   0  0  0  0  0  0  0  0  0  0  0  0
   22.8230   15.3490   10.7610 C   0  0  0  0  0  0  0  0  0  0  0  0
   23.5860   15.9890   11.7030 C   0  0  0  0  0  0  0  0  0  0  0  0
   23.1110   15.8550   12.9830 C   0  0  0  0  0  0  0  0  0  0  0  0
   23.8470   16.5010   14.1150 C   0  0  0  0  0  0  0  0  0  0  0  0
   24.1670   15.8650   15.1120 O   0  0  0  0  0  0  0  0  0  0  0  0
   24.1120   17.8390   13.9440 N   0  0  0  0  0  0  0  0  0  0  0  0
   24.6700   18.6670   14.9990 C   0  0  1  0  0  0  0  0  0  0  0  0
   25.7810   17.9520   15.7600 C   0  0  0  0  0  0  0  0  0  0  0  0
   26.3390   18.8770   16.8310 C   0  0  0  0  0  0  0  0  0  0  0  0
   26.8140   20.1810   16.2360 C   0  0  0  0  0  0  0  0  0  0  0  0
   27.7740   20.8000   16.6860 O   0  0  0  0  0  0  0  0  0  0  0  0
   26.0970   20.6700   15.1740 N   0  0  0  0  0  0  0  0  0  0  0  0
   25.2310   19.9530   14.3840 C   0  0  0  0  0  0  0  0  0  0  0  0
   24.9260   20.3490   13.2590 O   0  0  0  0  0  0  0  0  0  0  0  0
   21.9950   15.1550   13.3150 N   0  0  0  0  0  0  0  0  0  0  0  0
   21.3440   14.5770   12.3000 C   0  0  0  0  0  0  0  0  0  0  0  0
   21.7040   14.6360   11.0140 N   0  0  0  0  0  0  0  0  0  0  0  0
   21.8680   16.0660    6.8770 C   0  0  0  0  0  0  0  0  0  0  0  0
   20.7410   16.6450    6.5190 N   0  0  0  0  0  0  0  0  0  0  0  0
   18.9504   19.6134    8.5356 H   0  0  0  0  0  0  0  0  0  0  0  0
   19.8320   19.3891    6.9867 H   0  0  0  0  0  0  0  0  0  0  0  0
   18.0430   19.5504    6.9867 H   0  0  0  0  0  0  0  0  0  0  0  0
   18.2444   17.4240    8.6168 H   0  0  0  0  0  0  0  0  0  0  0  0
   18.2139   17.2739    6.8068 H   0  0  0  0  0  0  0  0  0  0  0  0
   20.6223   16.6992    9.8527 H   0  0  0  0  0  0  0  0  0  0  0  0
   24.4948   16.5573   11.4555 H   0  0  0  0  0  0  0  0  0  0  0  0
   23.9068   18.2714   13.0319 H   0  0  0  0  0  0  0  0  0  0  0  0
   23.8637   18.8933   15.7122 H   0  0  0  0  0  0  0  0  0  0  0  0
   25.3764   17.0452   16.2333 H   0  0  0  0  0  0  0  0  0  0  0  0
   26.5838   17.6740   15.0612 H   0  0  0  0  0  0  0  0  0  0  0  0
   25.5514   19.0860   17.5699 H   0  0  0  0  0  0  0  0  0  0  0  0
   27.1968   18.3795   17.3071 H   0  0  0  0  0  0  0  0  0  0  0  0
   26.2190   21.6674   14.9476 H   0  0  0  0  0  0  0  0  0  0  0  0
   20.4364   14.0052   12.5436 H   0  0  0  0  0  0  0  0  0  0  0  0
   22.6333   15.6994    6.1771 H   0  0  0  0  0  0  0  0  0  0  0  0
  1  2  1  0
  2  3  1  0
  3  4  2  0
  4  5  1  0
  5  6  1  0
  6  7  2  0
  6  8  2  0
  6  9  1  0
  9 10  2  0
 10 11  1  0
 11 12  1  0
 12 13  2  0
 12 14  1  0
 14 15  1  0
 15 16  1  0
 16 17  1  0
 17 18  1  0
 18 19  2  0
 18 20  1  0
 20 21  1  0
 21 22  2  0
 11 23  2  0
 23 24  1  0
 24 25  2  0
  5 26  1  0
 26 27  2  0
 27  3  1  0
 25  9  1  0
 21 15  1  0
  1 28  1  0
  1 29  1  0
  1 30  1  0
  2 31  1  0
  2 32  1  0
  4 33  1  0
 10 34  1  0
 14 35  1  0
 15 36  1  1
 16 37  1  0
 16 38  1  0
 17 39  1  0
 17 40  1  0
 20 41  1  0
 24 42  1  0
 26 43  1  0
M  END
>  <meeko>  (1116) 
{"is_sidechain": [true], "free_energy": -10.25, "intermolecular_energy": 0.0, "internal_energy": -10.25, "cluster_size": 20, "cluster_id": 1, "rank_in_cluster": 1}

>  <_RMSD_MCS_to_ref>  (1116) 
0.4406290957256462

$$$$
ligand
     RDKit          3D

 51 54  0  0  0  0  0  0  0  0999 V2000
   18.9090   19.1540    7.5370 C   0  0  0  0  0  0  0  0  0  0  0  0
   18.7730   17.6460    7.6780 C   0  0  0  0  0  0  0  0  0  0  0  0
   20.0570   16.9400    7.4190 C   0  0  0  0  0  0  0  0  0  0  0  0
   20.7730   16.1060    8.2550 C   0  0  0  0  0  0  0  0  0  0  0  0
   21.8600   15.7420    7.5130 N   0  0  0  0  0  0  0  0  0  0  0  0
   23.1440   14.8040    8.0540 S   0  0  0  0  0  6  0  0  0  0  0  0
   22.5840   13.4680    8.1710 O   0  0  0  0  0  0  0  0  0  0  0  0
   24.2730   15.0880    7.1890 O   0  0  0  0  0  0  0  0  0  0  0  0
   23.5180   15.3860    9.6840 C   0  0  0  0  0  0  0  0  0  0  0  0
   24.6890   16.1270    9.8720 C   0  0  0  0  0  0  0  0  0  0  0  0
   25.0130   16.5970   11.1440 C   0  0  0  0  0  0  0  0  0  0  0  0
   24.1820   16.3330   12.2460 C   0  0  0  0  0  0  0  0  0  0  0  0
   24.6360   16.8750   13.5690 C   0  0  0  0  0  0  0  0  0  0  0  0
   24.6900   16.1410   14.5520 O   0  0  0  0  0  0  0  0  0  0  0  0
   24.9840   18.2010   13.6320 N   0  0  0  0  0  0  0  0  0  0  0  0
   25.2860   18.8660   14.8890 C   0  0  1  0  0  0  0  0  0  0  0  0
   26.3640   18.1330   15.6810 C   0  0  0  0  0  0  0  0  0  0  0  0
   26.6530   18.8910   16.9660 C   0  0  0  0  0  0  0  0  0  0  0  0
   27.0390   20.3230   16.6830 C   0  0  0  0  0  0  0  0  0  0  0  0
   27.8480   20.9360   17.3730 O   0  0  0  0  0  0  0  0  0  0  0  0
   26.4150   20.9300   15.6230 N   0  0  0  0  0  0  0  0  0  0  0  0
   25.7660   20.2930   14.5940 C   0  0  0  0  0  0  0  0  0  0  0  0
   25.5790   20.8570   13.5170 O   0  0  0  0  0  0  0  0  0  0  0  0
   23.0100   15.5790   12.0500 C   0  0  0  0  0  0  0  0  0  0  0  0
   22.6650   15.1290   10.7600 C   0  0  0  0  0  0  0  0  0  0  0  0
   21.5130   14.4300   10.5090 O   0  0  0  0  0  0  0  0  0  0  0  0
   20.5730   14.4890   11.5860 C   0  0  0  0  0  0  0  0  0  0  0  0
   21.2810   14.2480   12.9000 C   0  0  0  0  0  0  0  0  0  0  0  0
   22.2190   15.3020   13.1420 O   0  0  0  0  0  0  0  0  0  0  0  0
   21.7870   16.3360    6.2940 C   0  0  0  0  0  0  0  0  0  0  0  0
   20.7040   17.0790    6.2060 N   0  0  0  0  0  0  0  0  0  0  0  0
   18.9504   19.6134    8.5356 H   0  0  0  0  0  0  0  0  0  0  0  0
   19.8320   19.3891    6.9867 H   0  0  0  0  0  0  0  0  0  0  0  0
   18.0430   19.5504    6.9867 H   0  0  0  0  0  0  0  0  0  0  0  0
   18.4411   17.4142    8.7008 H   0  0  0  0  0  0  0  0  0  0  0  0
   18.0413   17.3014    6.9324 H   0  0  0  0  0  0  0  0  0  0  0  0
   20.5246   15.8041    9.2832 H   0  0  0  0  0  0  0  0  0  0  0  0
   25.3517   16.3382    9.0198 H   0  0  0  0  0  0  0  0  0  0  0  0
   25.9328   17.1832   11.2871 H   0  0  0  0  0  0  0  0  0  0  0  0
   25.0329   18.7440   12.7582 H   0  0  0  0  0  0  0  0  0  0  0  0
   24.3689   18.8749   15.4964 H   0  0  0  0  0  0  0  0  0  0  0  0
   26.0143   17.1189   15.9244 H   0  0  0  0  0  0  0  0  0  0  0  0
   27.2821   18.0698   15.0785 H   0  0  0  0  0  0  0  0  0  0  0  0
   25.7529   18.8807   17.5983 H   0  0  0  0  0  0  0  0  0  0  0  0
   27.4935   18.3994   17.4777 H   0  0  0  0  0  0  0  0  0  0  0  0
   26.4351   21.9595   15.5963 H   0  0  0  0  0  0  0  0  0  0  0  0
   20.0998   15.4819   11.6033 H   0  0  0  0  0  0  0  0  0  0  0  0
   19.8058   13.7143   11.4403 H   0  0  0  0  0  0  0  0  0  0  0  0
   20.5420   14.2219   13.7143 H   0  0  0  0  0  0  0  0  0  0  0  0
   21.8152   13.2874   12.8556 H   0  0  0  0  0  0  0  0  0  0  0  0
   22.5296   16.2133    5.4918 H   0  0  0  0  0  0  0  0  0  0  0  0
  1  2  1  0
  2  3  1  0
  3  4  2  0
  4  5  1  0
  5  6  1  0
  6  7  2  0
  6  8  2  0
  6  9  1  0
  9 10  2  0
 10 11  1  0
 11 12  2  0
 12 13  1  0
 13 14  2  0
 13 15  1  0
 15 16  1  0
 16 17  1  0
 17 18  1  0
 18 19  1  0
 19 20  2  0
 19 21  1  0
 21 22  1  0
 22 23  2  0
 12 24  1  0
 24 25  2  0
 25 26  1  0
 26 27  1  0
 27 28  1  0
 28 29  1  0
  5 30  1  0
 30 31  2  0
 31  3  1  0
 25  9  1  0
 22 16  1  0
 29 24  1  0
  1 32  1  0
  1 33  1  0
  1 34  1  0
  2 35  1  0
  2 36  1  0
  4 37  1  0
 10 38  1  0
 11 39  1  0
 15 40  1  0
 16 41  1  1
 17 42  1  0
 17 43  1  0
 18 44  1  0
 18 45  1  0
 21 46  1  0
 27 47  1  0
 27 48  1  0
 28 49  1  0
 28 50  1  0
 30 51  1  0
M  END
>  <meeko>  (1117) 
{"is_sidechain": [true], "free_energy": -10.25, "intermolecular_energy": 0.0, "internal_energy": -10.25, "cluster_size": 15, "cluster_id": 1, "rank_in_cluster": 1}

>  <_RMSD_MCS_to_ref>  (1117) 
0.74851475158031

$$$$
ligand
     RDKit          3D

 51 54  0  0  0  0  0  0  0  0999 V2000
   18.9090   19.1540    7.5370 C   0  0  0  0  0  0  0  0  0  0  0  0
   18.7730   17.6460    7.6780 C   0  0  0  0  0  0  0  0  0  0  0  0
   20.0160   16.9320    7.2810 C   0  0  0  0  0  0  0  0  0  0  0  0
   20.4060   15.6390    7.5680 C   0  0  0  0  0  0  0  0  0  0  0  0
   21.6120   15.5050    6.9390 N   0  0  0  0  0  0  0  0  0  0  0  0
   22.6610   14.2050    7.1160 S   0  0  0  0  0  6  0  0  0  0  0  0
   22.9760   13.8400    5.7440 O   0  0  0  0  0  0  0  0  0  0  0  0
   22.0570   13.2400    8.0120 O   0  0  0  0  0  0  0  0  0  0  0  0
   24.1540   14.8230    7.8610 C   0  0  0  0  0  0  0  0  0  0  0  0
   25.3240   14.7300    7.0830 C   0  0  0  0  0  0  0  0  0  0  0  0
   26.5550   15.1360    7.5930 C   0  0  0  0  0  0  0  0  0  0  0  0
   26.6380   15.6240    8.8920 C   0  0  0  0  0  0  0  0  0  0  0  0
   25.4870   15.7120    9.6870 C   0  0  0  0  0  0  0  0  0  0  0  0
   25.6190   16.2020   11.0620 C   0  0  0  0  0  0  0  0  0  0  0  0
   24.5360   16.2650   11.8470 C   0  0  0  0  0  0  0  0  0  0  0  0
   24.6850   16.7570   13.2570 C   0  0  0  0  0  0  0  0  0  0  0  0
   24.2620   16.1300   14.2210 O   0  0  0  0  0  0  0  0  0  0  0  0
   25.3060   17.9800   13.3590 N   0  0  0  0  0  0  0  0  0  0  0  0
   25.3820   18.6750   14.6380 C   0  0  1  0  0  0  0  0  0  0  0  0
   26.3260   17.9840   15.6150 C   0  0  0  0  0  0  0  0  0  0  0  0
   26.3930   18.7840   16.9070 C   0  0  0  0  0  0  0  0  0  0  0  0
   26.8000   20.2160   16.6470 C   0  0  0  0  0  0  0  0  0  0  0  0
   27.4680   20.8660   17.4460 O   0  0  0  0  0  0  0  0  0  0  0  0
   26.3590   20.7780   15.4760 N   0  0  0  0  0  0  0  0  0  0  0  0
   25.8810   20.1000   14.3830 C   0  0  0  0  0  0  0  0  0  0  0  0
   25.8440   20.6230   13.2690 O   0  0  0  0  0  0  0  0  0  0  0  0
   23.3040   15.9110   11.3640 N   0  0  0  0  0  0  0  0  0  0  0  0
   23.0590   15.4890   10.0790 C   0  0  0  0  0  0  0  0  0  0  0  0
   21.9100   15.3050    9.7100 O   0  0  0  0  0  0  0  0  0  0  0  0
   24.2300   15.3220    9.1720 C   0  0  0  0  0  0  0  0  0  0  0  0
   21.9540   16.6950    6.3800 C   0  0  0  0  0  0  0  0  0  0  0  0
   20.9900   17.5780    6.5440 N   0  0  0  0  0  0  0  0  0  0  0  0
   18.9504   19.6134    8.5356 H   0  0  0  0  0  0  0  0  0  0  0  0
   19.8320   19.3891    6.9867 H   0  0  0  0  0  0  0  0  0  0  0  0
   18.0430   19.5504    6.9867 H   0  0  0  0  0  0  0  0  0  0  0  0
   18.5466   17.4070    8.7276 H   0  0  0  0  0  0  0  0  0  0  0  0
   17.9644   17.3151    7.0097 H   0  0  0  0  0  0  0  0  0  0  0  0
   19.8688   14.8883    8.1662 H   0  0  0  0  0  0  0  0  0  0  0  0
   25.2651   14.3316    6.0594 H   0  0  0  0  0  0  0  0  0  0  0  0
   27.4589   15.0706    6.9696 H   0  0  0  0  0  0  0  0  0  0  0  0
   27.6099   15.9421    9.2972 H   0  0  0  0  0  0  0  0  0  0  0  0
   26.6007   16.5158   11.4464 H   0  0  0  0  0  0  0  0  0  0  0  0
   25.7226   18.4102   12.5210 H   0  0  0  0  0  0  0  0  0  0  0  0
   24.3794   18.6745   15.0904 H   0  0  0  0  0  0  0  0  0  0  0  0
   25.9544   16.9712   15.8297 H   0  0  0  0  0  0  0  0  0  0  0  0
   27.3304   17.9196   15.1711 H   0  0  0  0  0  0  0  0  0  0  0  0
   25.4028   18.7745   17.3859 H   0  0  0  0  0  0  0  0  0  0  0  0
   27.1470   18.3227   17.5617 H   0  0  0  0  0  0  0  0  0  0  0  0
   26.3895   21.8055   15.4111 H   0  0  0  0  0  0  0  0  0  0  0  0
   22.5037   15.9649   12.0102 H   0  0  0  0  0  0  0  0  0  0  0  0
   22.9040   16.8938    5.8623 H   0  0  0  0  0  0  0  0  0  0  0  0
  1  2  1  0
  2  3  1  0
  3  4  2  0
  4  5  1  0
  5  6  1  0
  6  7  2  0
  6  8  2  0
  6  9  1  0
  9 10  2  0
 10 11  1  0
 11 12  2  0
 12 13  1  0
 13 14  1  0
 14 15  2  0
 15 16  1  0
 16 17  2  0
 16 18  1  0
 18 19  1  0
 19 20  1  0
 20 21  1  0
 21 22  1  0
 22 23  2  0
 22 24  1  0
 24 25  1  0
 25 26  2  0
 15 27  1  0
 27 28  1  0
 28 29  2  0
 28 30  1  0
  5 31  1  0
 31 32  2  0
 32  3  1  0
 30  9  1  0
 30 13  2  0
 25 19  1  0
  1 33  1  0
  1 34  1  0
  1 35  1  0
  2 36  1  0
  2 37  1  0
  4 38  1  0
 10 39  1  0
 11 40  1  0
 12 41  1  0
 14 42  1  0
 18 43  1  0
 19 44  1  1
 20 45  1  0
 20 46  1  0
 21 47  1  0
 21 48  1  0
 24 49  1  0
 27 50  1  0
 31 51  1  0
M  END
>  <meeko>  (1118) 
{"is_sidechain": [true], "free_energy": -10.25, "intermolecular_energy": 0.0, "internal_energy": -10.25, "cluster_size": 18, "cluster_id": 1, "rank_in_cluster": 1}

>  <_RMSD_MCS_to_ref>  (1118) 
0.6860950695380675

$$$$
ligand
     RDKit          3D

 52 56  0  0  0  0  0  0  0  0999 V2000
   18.9090   19.1540    7.5370 C   0  0  0  0  0  0  0  0  0  0  0  0
   18.7730   17.6460    7.6780 C   0  0  0  0  0  0  0  0  0  0  0  0
   20.0870   16.9530    7.6000 C   0  0  0  0  0  0  0  0  0  0  0  0
   20.6310   16.0240    8.4640 C   0  0  0  0  0  0  0  0  0  0  0  0
   21.8390   15.7140    7.9060 N   0  0  0  0  0  0  0  0  0  0  0  0
   22.9630   14.6470    8.5500 S   0  0  0  0  0  6  0  0  0  0  0  0
   22.1720   13.8340    9.4570 O   0  0  0  0  0  0  0  0  0  0  0  0
   23.6900   14.0580    7.4460 O   0  0  0  0  0  0  0  0  0  0  0  0
   24.0890   15.6130    9.5370 C   0  0  0  0  0  0  0  0  0  0  0  0
   23.6350   15.9750   10.8180 C   0  0  0  0  0  0  0  0  0  0  0  0
   24.4670   16.7540   11.5970 C   0  0  0  0  0  0  0  0  0  0  0  0
   25.7160   17.1840   11.1660 C   0  0  0  0  0  0  0  0  0  0  0  0
   26.1760   16.8330    9.9080 C   0  0  0  0  0  0  0  0  0  0  0  0
   25.3610   16.0340    9.0760 C   0  0  0  0  0  0  0  0  0  0  0  0
   25.9060   15.6600    7.7950 C   0  0  0  0  0  0  0  0  0  0  0  0
   26.7770   14.6240    7.5540 C   0  0  0  0  0  0  0  0  0  0  0  0
   27.0200   14.7160    6.2130 N   0  0  0  0  0  0  0  0  0  0  0  0
   26.2980   15.7010    5.6560 N   0  0  0  0  0  0  0  0  0  0  0  0
   25.6180   16.2980    6.6260 N   0  0  0  0  0  0  0  0  0  0  0  0
   26.3620   18.0170   12.2230 C   0  0  0  0  0  0  0  0  0  0  0  0
   25.4080   17.9380   13.3190 N   0  0  0  0  0  0  0  0  0  0  0  0
   25.5200   18.8110   14.4830 C   0  0  2  0  0  0  0  0  0  0  0  0
   26.3400   20.0760   14.2330 C   0  0  0  0  0  0  0  0  0  0  0  0
   26.3370   20.9340   15.4880 C   0  0  0  0  0  0  0  0  0  0  0  0
   26.8620   20.1660   16.6800 C   0  0  0  0  0  0  0  0  0  0  0  0
   27.3340   20.7270   17.6640 O   0  0  0  0  0  0  0  0  0  0  0  0
   26.7060   18.8030   16.6520 N   0  0  0  0  0  0  0  0  0  0  0  0
   26.0700   18.0440   15.6960 C   0  0  0  0  0  0  0  0  0  0  0  0
   25.8770   16.8420   15.8810 O   0  0  0  0  0  0  0  0  0  0  0  0
   24.2430   17.2840   12.9460 C   0  0  0  0  0  0  0  0  0  0  0  0
   23.2040   17.1690   13.5650 O   0  0  0  0  0  0  0  0  0  0  0  0
   21.9850   16.4030    6.7450 C   0  0  0  0  0  0  0  0  0  0  0  0
   20.9500   17.1960    6.5480 N   0  0  0  0  0  0  0  0  0  0  0  0
   18.9504   19.6134    8.5356 H   0  0  0  0  0  0  0  0  0  0  0  0
   19.8320   19.3891    6.9867 H   0  0  0  0  0  0  0  0  0  0  0  0
   18.0430   19.5504    6.9867 H   0  0  0  0  0  0  0  0  0  0  0  0
   18.3114   17.4215    8.6509 H   0  0  0  0  0  0  0  0  0  0  0  0
   18.1507   17.2841    6.8463 H   0  0  0  0  0  0  0  0  0  0  0  0
   20.1922   15.6245    9.3902 H   0  0  0  0  0  0  0  0  0  0  0  0
   22.6512   15.6488   11.1864 H   0  0  0  0  0  0  0  0  0  0  0  0
   27.1633   17.1720    9.5611 H   0  0  0  0  0  0  0  0  0  0  0  0
   27.1820   13.8944    8.2707 H   0  0  0  0  0  0  0  0  0  0  0  0
   27.6722   14.1087    5.6966 H   0  0  0  0  0  0  0  0  0  0  0  0
   27.3374   17.6008   12.5152 H   0  0  0  0  0  0  0  0  0  0  0  0
   26.5717   19.0473   11.8998 H   0  0  0  0  0  0  0  0  0  0  0  0
   24.4955   19.1486   14.6985 H   0  0  0  0  0  0  0  0  0  0  0  0
   27.3741   19.7993   13.9797 H   0  0  0  0  0  0  0  0  0  0  0  0
   25.8989   20.6418   13.3992 H   0  0  0  0  0  0  0  0  0  0  0  0
   26.9736   21.8154   15.3210 H   0  0  0  0  0  0  0  0  0  0  0  0
   25.3007   21.2367   15.6991 H   0  0  0  0  0  0  0  0  0  0  0  0
   27.1146   18.2847   17.4427 H   0  0  0  0  0  0  0  0  0  0  0  0
   22.8449   16.3124    6.0651 H   0  0  0  0  0  0  0  0  0  0  0  0
  1  2  1  0
  2  3  1  0
  3  4  2  0
  4  5  1  0
  5  6  1  0
  6  7  2  0
  6  8  2  0
  6  9  1  0
  9 10  2  0
 10 11  1  0
 11 12  2  0
 12 13  1  0
 13 14  2  0
 14 15  1  0
 15 16  2  0
 16 17  1  0
 17 18  1  0
 18 19  2  0
 12 20  1  0
 20 21  1  0
 21 22  1  0
 22 23  1  0
 23 24  1  0
 24 25  1  0
 25 26  2  0
 25 27  1  0
 27 28  1  0
 28 29  2  0
 21 30  1  0
 30 31  2  0
  5 32  1  0
 32 33  2  0
 33  3  1  0
 14  9  1  0
 19 15  1  0
 28 22  1  0
 30 11  1  0
  1 34  1  0
  1 35  1  0
  1 36  1  0
  2 37  1  0
  2 38  1  0
  4 39  1  0
 10 40  1  0
 13 41  1  0
 16 42  1  0
 17 43  1  0
 20 44  1  0
 20 45  1  0
 22 46  1  1
 23 47  1  0
 23 48  1  0
 24 49  1  0
 24 50  1  0
 27 51  1  0
 32 52  1  0
M  END
>  <meeko>  (1119) 
{"is_sidechain": [true], "free_energy": -10.25, "intermolecular_energy": 0.0, "internal_energy": -10.25, "cluster_size": 15, "cluster_id": 2, "rank_in_cluster": 1}

>  <_RMSD_MCS_to_ref>  (1119) 
1.7495140277612333

$$$$
ligand
     RDKit          3D

 52 56  0  0  0  0  0  0  0  0999 V2000
   18.9090   19.1540    7.5370 C   0  0  0  0  0  0  0  0  0  0  0  0
   18.7730   17.6460    7.6780 C   0  0  0  0  0  0  0  0  0  0  0  0
   20.0920   16.9580    7.6490 C   0  0  0  0  0  0  0  0  0  0  0  0
   20.6350   16.0810    8.5660 C   0  0  0  0  0  0  0  0  0  0  0  0
   21.8570   15.7670    8.0440 N   0  0  0  0  0  0  0  0  0  0  0  0
   22.9160   14.6130    8.6510 S   0  0  0  0  0  6  0  0  0  0  0  0
   23.6160   14.1250    7.4800 O   0  0  0  0  0  0  0  0  0  0  0  0
   22.1270   13.7550    9.5120 O   0  0  0  0  0  0  0  0  0  0  0  0
   24.0990   15.4520    9.6830 C   0  0  0  0  0  0  0  0  0  0  0  0
   23.7000   15.7860   10.9910 C   0  0  0  0  0  0  0  0  0  0  0  0
   24.5220   16.6190   11.7260 C   0  0  0  0  0  0  0  0  0  0  0  0
   25.7040   17.1430   11.2250 C   0  0  0  0  0  0  0  0  0  0  0  0
   26.1270   16.8050    9.9530 C   0  0  0  0  0  0  0  0  0  0  0  0
   25.3450   15.9140    9.1730 C   0  0  0  0  0  0  0  0  0  0  0  0
   25.9110   15.5180    7.9240 N   0  0  0  0  0  0  0  0  0  0  0  0
   26.8780   14.5860    7.6340 C   0  0  0  0  0  0  0  0  0  0  0  0
   27.0560   14.6690    6.2740 C   0  0  0  0  0  0  0  0  0  0  0  0
   26.2740   15.6610    5.7760 N   0  0  0  0  0  0  0  0  0  0  0  0
   25.6130   16.2040    6.7880 N   0  0  0  0  0  0  0  0  0  0  0  0
   26.3320   18.0470   12.2340 C   0  0  0  0  0  0  0  0  0  0  0  0
   25.4520   17.8950   13.3850 N   0  0  0  0  0  0  0  0  0  0  0  0
   25.5500   18.7900   14.5350 C   0  0  2  0  0  0  0  0  0  0  0  0
   26.3560   20.0590   14.2620 C   0  0  0  0  0  0  0  0  0  0  0  0
   26.3400   20.9420   15.5000 C   0  0  0  0  0  0  0  0  0  0  0  0
   26.8690   20.2030   16.7080 C   0  0  0  0  0  0  0  0  0  0  0  0
   27.3480   20.7880   17.6740 O   0  0  0  0  0  0  0  0  0  0  0  0
   26.7170   18.8390   16.7130 N   0  0  0  0  0  0  0  0  0  0  0  0
   26.1090   18.0520   15.7620 C   0  0  0  0  0  0  0  0  0  0  0  0
   25.9520   16.8470   15.9570 O   0  0  0  0  0  0  0  0  0  0  0  0
   24.3300   17.1400   13.0820 C   0  0  0  0  0  0  0  0  0  0  0  0
   23.3410   16.9350   13.7570 O   0  0  0  0  0  0  0  0  0  0  0  0
   22.0230   16.4200    6.8660 C   0  0  0  0  0  0  0  0  0  0  0  0
   20.9640   17.1510    6.5950 N   0  0  0  0  0  0  0  0  0  0  0  0
   18.9504   19.6134    8.5356 H   0  0  0  0  0  0  0  0  0  0  0  0
   19.8320   19.3891    6.9867 H   0  0  0  0  0  0  0  0  0  0  0  0
   18.0430   19.5504    6.9867 H   0  0  0  0  0  0  0  0  0  0  0  0
   18.2779   17.4228    8.6346 H   0  0  0  0  0  0  0  0  0  0  0  0
   18.1817   17.2790    6.8262 H   0  0  0  0  0  0  0  0  0  0  0  0
   20.1863   15.7182    9.5025 H   0  0  0  0  0  0  0  0  0  0  0  0
   22.7629   15.3960   11.4149 H   0  0  0  0  0  0  0  0  0  0  0  0
   27.0610   17.2228    9.5493 H   0  0  0  0  0  0  0  0  0  0  0  0
   27.3969   13.9185    8.3376 H   0  0  0  0  0  0  0  0  0  0  0  0
   27.7277   14.0309    5.6809 H   0  0  0  0  0  0  0  0  0  0  0  0
   27.3568   17.7259   12.4721 H   0  0  0  0  0  0  0  0  0  0  0  0
   26.4286   19.0875   11.8904 H   0  0  0  0  0  0  0  0  0  0  0  0
   24.5210   19.1176   14.7445 H   0  0  0  0  0  0  0  0  0  0  0  0
   27.3938   19.7892   14.0167 H   0  0  0  0  0  0  0  0  0  0  0  0
   25.9105   20.6031   13.4161 H   0  0  0  0  0  0  0  0  0  0  0  0
   26.9680   21.8265   15.3175 H   0  0  0  0  0  0  0  0  0  0  0  0
   25.3001   21.2384   15.7019 H   0  0  0  0  0  0  0  0  0  0  0  0
   27.1056   18.3439   17.5283 H   0  0  0  0  0  0  0  0  0  0  0  0
   22.9165   16.3480    6.2284 H   0  0  0  0  0  0  0  0  0  0  0  0
  1  2  1  0
  2  3  1  0
  3  4  2  0
  4  5  1  0
  5  6  1  0
  6  7  2  0
  6  8  2  0
  6  9  1  0
  9 10  2  0
 10 11  1  0
 11 12  2  0
 12 13  1  0
 13 14  2  0
 14 15  1  0
 15 16  1  0
 16 17  2  0
 17 18  1  0
 18 19  2  0
 12 20  1  0
 20 21  1  0
 21 22  1  0
 22 23  1  0
 23 24  1  0
 24 25  1  0
 25 26  2  0
 25 27  1  0
 27 28  1  0
 28 29  2  0
 21 30  1  0
 30 31  2  0
  5 32  1  0
 32 33  2  0
 33  3  1  0
 14  9  1  0
 19 15  1  0
 28 22  1  0
 30 11  1  0
  1 34  1  0
  1 35  1  0
  1 36  1  0
  2 37  1  0
  2 38  1  0
  4 39  1  0
 10 40  1  0
 13 41  1  0
 16 42  1  0
 17 43  1  0
 20 44  1  0
 20 45  1  0
 22 46  1  1
 23 47  1  0
 23 48  1  0
 24 49  1  0
 24 50  1  0
 27 51  1  0
 32 52  1  0
M  END
>  <meeko>  (1120) 
{"is_sidechain": [true], "free_energy": -10.25, "intermolecular_energy": 0.0, "internal_energy": -10.25, "cluster_size": 20, "cluster_id": 1, "rank_in_cluster": 1}

>  <_RMSD_MCS_to_ref>  (1120) 
1.7326548672164603

$$$$
ligand
     RDKit          3D

 49 52  0  0  0  0  0  0  0  0999 V2000
   18.7970   18.8170    7.7190 C   0  0  0  0  0  0  0  0  0  0  0  0
   18.5280   17.3290    7.8810 C   0  0  0  0  0  0  0  0  0  0  0  0
   19.6310   16.4960    7.3300 C   0  0  0  0  0  0  0  0  0  0  0  0
   20.6200   15.8050    8.0020 C   0  0  0  0  0  0  0  0  0  0  0  0
   21.3370   15.1970    7.0130 N   0  0  0  0  0  0  0  0  0  0  0  0
   22.7980   14.4020    7.2130 S   0  0  0  0  0  6  0  0  0  0  0  0
   23.8230   15.2670    6.6700 O   0  0  0  0  0  0  0  0  0  0  0  0
   22.5910   13.0350    6.7770 O   0  0  0  0  0  0  0  0  0  0  0  0
   23.1480   14.2750    8.9390 C   0  0  0  0  0  0  0  0  0  0  0  0
   22.7720   13.3740    9.9220 C   0  0  0  0  0  0  0  0  0  0  0  0
   23.3760   13.7710   11.1450 C   0  0  0  0  0  0  0  0  0  0  0  0
   23.3700   13.2500   12.4530 C   0  0  0  0  0  0  0  0  0  0  0  0
   24.0970   13.9050   13.4580 C   0  0  0  0  0  0  0  0  0  0  0  0
   24.8160   15.0720   13.1740 C   0  0  0  0  0  0  0  0  0  0  0  0
   25.5990   15.7880   14.2230 C   0  0  0  0  0  0  0  0  0  0  0  0
   26.1790   15.1620   15.1030 O   0  0  0  0  0  0  0  0  0  0  0  0
   25.6590   17.1610   14.1210 N   0  0  0  0  0  0  0  0  0  0  0  0
   26.5250   17.9400   14.9950 C   0  0  2  0  0  0  0  0  0  0  0  0
   26.1360   17.8080   16.4630 C   0  0  0  0  0  0  0  0  0  0  0  0
   27.0540   18.6750   17.3110 C   0  0  0  0  0  0  0  0  0  0  0  0
   27.0280   20.1140   16.8500 C   0  0  0  0  0  0  0  0  0  0  0  0
   27.1470   21.0560   17.6260 O   0  0  0  0  0  0  0  0  0  0  0  0
   26.8940   20.3240   15.5010 N   0  0  0  0  0  0  0  0  0  0  0  0
   26.4300   19.4130   14.5860 C   0  0  0  0  0  0  0  0  0  0  0  0
   25.9800   19.7750   13.4990 O   0  0  0  0  0  0  0  0  0  0  0  0
   24.8430   15.5950   11.8710 C   0  0  0  0  0  0  0  0  0  0  0  0
   24.1100   14.9250   10.8840 C   0  0  0  0  0  0  0  0  0  0  0  0
   23.9510   15.2130    9.5490 N   0  0  0  0  0  0  0  0  0  0  0  0
   20.8350   15.5680    5.8080 C   0  0  0  0  0  0  0  0  0  0  0  0
   19.7840   16.3440    5.9640 N   0  0  0  0  0  0  0  0  0  0  0  0
   18.8815   19.2845    8.7111 H   0  0  0  0  0  0  0  0  0  0  0  0
   19.7359   18.9616    7.1643 H   0  0  0  0  0  0  0  0  0  0  0  0
   17.9682   19.2812    7.1643 H   0  0  0  0  0  0  0  0  0  0  0  0
   18.4147   17.1038    8.9517 H   0  0  0  0  0  0  0  0  0  0  0  0
   17.6113   17.0884    7.3226 H   0  0  0  0  0  0  0  0  0  0  0  0
   20.7909   15.7559    9.0875 H   0  0  0  0  0  0  0  0  0  0  0  0
   22.1180   12.5010    9.7799 H   0  0  0  0  0  0  0  0  0  0  0  0
   22.8005   12.3378   12.6846 H   0  0  0  0  0  0  0  0  0  0  0  0
   24.1022   13.4975   14.4797 H   0  0  0  0  0  0  0  0  0  0  0  0
   25.0830   17.6432   13.4163 H   0  0  0  0  0  0  0  0  0  0  0  0
   27.5507   17.5574   14.8872 H   0  0  0  0  0  0  0  0  0  0  0  0
   25.0947   18.1361   16.5973 H   0  0  0  0  0  0  0  0  0  0  0  0
   26.2327   16.7576   16.7748 H   0  0  0  0  0  0  0  0  0  0  0  0
   26.7240   18.6282   18.3593 H   0  0  0  0  0  0  0  0  0  0  0  0
   28.0817   18.2959   17.2101 H   0  0  0  0  0  0  0  0  0  0  0  0
   27.1666   21.2502   15.1423 H   0  0  0  0  0  0  0  0  0  0  0  0
   25.4206   16.5006   11.6338 H   0  0  0  0  0  0  0  0  0  0  0  0
   24.3748   16.0205    9.0702 H   0  0  0  0  0  0  0  0  0  0  0  0
   21.2492   15.2624    4.8359 H   0  0  0  0  0  0  0  0  0  0  0  0
  1  2  1  0
  2  3  1  0
  3  4  2  0
  4  5  1  0
  5  6  1  0
  6  7  2  0
  6  8  2  0
  6  9  1  0
  9 10  2  0
 10 11  1  0
 11 12  2  0
 12 13  1  0
 13 14  2  0
 14 15  1  0
 15 16  2  0
 15 17  1  0
 17 18  1  0
 18 19  1  0
 19 20  1  0
 20 21  1  0
 21 22  2  0
 21 23  1  0
 23 24  1  0
 24 25  2  0
 14 26  1  0
 26 27  2  0
 27 28  1  0
  5 29  1  0
 29 30  2  0
 30  3  1  0
 28  9  1  0
 27 11  1  0
 24 18  1  0
  1 31  1  0
  1 32  1  0
  1 33  1  0
  2 34  1  0
  2 35  1  0
  4 36  1  0
 10 37  1  0
 12 38  1  0
 13 39  1  0
 17 40  1  0
 18 41  1  1
 19 42  1  0
 19 43  1  0
 20 44  1  0
 20 45  1  0
 23 46  1  0
 26 47  1  0
 28 48  1  0
 29 49  1  0
M  END
>  <meeko>  (1121) 
{"is_sidechain": [true], "free_energy": -10.24, "intermolecular_energy": 0.0, "internal_energy": -10.24, "cluster_size": 17, "cluster_id": 1, "rank_in_cluster": 1}

>  <_RMSD_MCS_to_ref>  (1121) 
0.9120324144458897

$$$$
ligand
     RDKit          3D

 49 52  0  0  0  0  0  0  0  0999 V2000
   18.7970   18.8170    7.7190 C   0  0  0  0  0  0  0  0  0  0  0  0
   18.5280   17.3290    7.8810 C   0  0  0  0  0  0  0  0  0  0  0  0
   19.6140   16.4950    7.2960 C   0  0  0  0  0  0  0  0  0  0  0  0
   20.4620   15.6060    7.9280 C   0  0  0  0  0  0  0  0  0  0  0  0
   21.2320   15.1050    6.9190 N   0  0  0  0  0  0  0  0  0  0  0  0
   22.5940   14.1490    7.1120 S   0  0  0  0  0  6  0  0  0  0  0  0
   22.1350   12.7750    7.1590 O   0  0  0  0  0  0  0  0  0  0  0  0
   23.5820   14.6290    6.1700 O   0  0  0  0  0  0  0  0  0  0  0  0
   23.2800   14.4460    8.7130 C   0  0  0  0  0  0  0  0  0  0  0  0
   23.9350   15.5260    9.2810 C   0  0  0  0  0  0  0  0  0  0  0  0
   24.2530   15.1960   10.6260 C   0  0  0  0  0  0  0  0  0  0  0  0
   24.8940   15.8850   11.6760 C   0  0  0  0  0  0  0  0  0  0  0  0
   25.0490   15.2490   12.9190 C   0  0  0  0  0  0  0  0  0  0  0  0
   25.7150   15.9270   14.0670 C   0  0  0  0  0  0  0  0  0  0  0  0
   26.1660   15.2730   15.0010 O   0  0  0  0  0  0  0  0  0  0  0  0
   25.8220   17.2990   13.9960 N   0  0  0  0  0  0  0  0  0  0  0  0
   26.5940   18.0410   14.9820 C   0  0  2  0  0  0  0  0  0  0  0  0
   26.0580   17.8540   16.3980 C   0  0  0  0  0  0  0  0  0  0  0  0
   26.8830   18.6860   17.3670 C   0  0  0  0  0  0  0  0  0  0  0  0
   26.9040   20.1410   16.9610 C   0  0  0  0  0  0  0  0  0  0  0  0
   26.9440   21.0540   17.7810 O   0  0  0  0  0  0  0  0  0  0  0  0
   26.9070   20.4030   15.6150 N   0  0  0  0  0  0  0  0  0  0  0  0
   26.5400   19.5290   14.6220 C   0  0  0  0  0  0  0  0  0  0  0  0
   26.2010   19.9340   13.5100 O   0  0  0  0  0  0  0  0  0  0  0  0
   24.5500   13.9550   13.1170 C   0  0  0  0  0  0  0  0  0  0  0  0
   23.9120   13.2570   12.0860 C   0  0  0  0  0  0  0  0  0  0  0  0
   23.7820   13.9050   10.8540 C   0  0  0  0  0  0  0  0  0  0  0  0
   23.2120   13.4700    9.6820 N   0  0  0  0  0  0  0  0  0  0  0  0
   20.8990   15.7210    5.7560 C   0  0  0  0  0  0  0  0  0  0  0  0
   19.9040   16.5620    5.9480 N   0  0  0  0  0  0  0  0  0  0  0  0
   18.8815   19.2845    8.7111 H   0  0  0  0  0  0  0  0  0  0  0  0
   19.7359   18.9616    7.1643 H   0  0  0  0  0  0  0  0  0  0  0  0
   17.9682   19.2812    7.1643 H   0  0  0  0  0  0  0  0  0  0  0  0
   18.4430   17.0989    8.9533 H   0  0  0  0  0  0  0  0  0  0  0  0
   17.5959   17.0938    7.3464 H   0  0  0  0  0  0  0  0  0  0  0  0
   20.5063   15.3588    8.9989 H   0  0  0  0  0  0  0  0  0  0  0  0
   24.1688   16.4757    8.7776 H   0  0  0  0  0  0  0  0  0  0  0  0
   25.2682   16.9081   11.5237 H   0  0  0  0  0  0  0  0  0  0  0  0
   25.3491   17.8065   13.2346 H   0  0  0  0  0  0  0  0  0  0  0  0
   27.6256   17.6596   14.9642 H   0  0  0  0  0  0  0  0  0  0  0  0
   25.0078   18.1787   16.4382 H   0  0  0  0  0  0  0  0  0  0  0  0
   26.1249   16.7923   16.6778 H   0  0  0  0  0  0  0  0  0  0  0  0
   26.4471   18.6010   18.3734 H   0  0  0  0  0  0  0  0  0  0  0  0
   27.9159   18.3078   17.3572 H   0  0  0  0  0  0  0  0  0  0  0  0
   27.2127   21.3419   15.3221 H   0  0  0  0  0  0  0  0  0  0  0  0
   24.6620   13.4786   14.1021 H   0  0  0  0  0  0  0  0  0  0  0  0
   23.5275   12.2378   12.2388 H   0  0  0  0  0  0  0  0  0  0  0  0
   22.7909   12.5398    9.5465 H   0  0  0  0  0  0  0  0  0  0  0  0
   21.3914   15.5426    4.7887 H   0  0  0  0  0  0  0  0  0  0  0  0
  1  2  1  0
  2  3  1  0
  3  4  2  0
  4  5  1  0
  5  6  1  0
  6  7  2  0
  6  8  2  0
  6  9  1  0
  9 10  2  0
 10 11  1  0
 11 12  2  0
 12 13  1  0
 13 14  1  0
 14 15  2  0
 14 16  1  0
 16 17  1  0
 17 18  1  0
 18 19  1  0
 19 20  1  0
 20 21  2  0
 20 22  1  0
 22 23  1  0
 23 24  2  0
 13 25  2  0
 25 26  1  0
 26 27  2  0
 27 28  1  0
  5 29  1  0
 29 30  2  0
 30  3  1  0
 28  9  1  0
 27 11  1  0
 23 17  1  0
  1 31  1  0
  1 32  1  0
  1 33  1  0
  2 34  1  0
  2 35  1  0
  4 36  1  0
 10 37  1  0
 12 38  1  0
 16 39  1  0
 17 40  1  1
 18 41  1  0
 18 42  1  0
 19 43  1  0
 19 44  1  0
 22 45  1  0
 25 46  1  0
 26 47  1  0
 28 48  1  0
 29 49  1  0
M  END
>  <meeko>  (1122) 
{"is_sidechain": [true], "free_energy": -10.24, "intermolecular_energy": 0.0, "internal_energy": -10.24, "cluster_size": 6, "cluster_id": 1, "rank_in_cluster": 1}

>  <_RMSD_MCS_to_ref>  (1122) 
0.9776364354912308

$$$$
ligand
     RDKit          3D

 47 50  0  0  0  0  0  0  0  0999 V2000
   18.7970   18.8170    7.7190 C   0  0  0  0  0  0  0  0  0  0  0  0
   18.5280   17.3290    7.8810 C   0  0  0  0  0  0  0  0  0  0  0  0
   19.7680   16.5650    8.1800 C   0  0  0  0  0  0  0  0  0  0  0  0
   20.9530   16.5230    7.4710 C   0  0  0  0  0  0  0  0  0  0  0  0
   21.7330   15.6530    8.1790 N   0  0  0  0  0  0  0  0  0  0  0  0
   23.3090   15.2080    7.7880 S   0  0  0  0  0  6  0  0  0  0  0  0
   23.1390   13.9490    7.0830 O   0  0  0  0  0  0  0  0  0  0  0  0
   23.8930   16.3540    7.1140 O   0  0  0  0  0  0  0  0  0  0  0  0
   24.1070   14.8830    9.1810 O   0  0  0  0  0  0  0  0  0  0  0  0
   25.2110   15.6300    9.5090 C   0  0  0  0  0  0  0  0  0  0  0  0
   26.2590   15.6710    8.5850 C   0  0  0  0  0  0  0  0  0  0  0  0
   27.4100   16.4030    8.8760 C   0  0  0  0  0  0  0  0  0  0  0  0
   27.5150   17.0770   10.0940 C   0  0  0  0  0  0  0  0  0  0  0  0
   26.4680   17.0050   11.0200 C   0  0  0  0  0  0  0  0  0  0  0  0
   26.5540   17.6980   12.3210 C   0  0  0  0  0  0  0  0  0  0  0  0
   27.5250   18.4060   12.5680 O   0  0  0  0  0  0  0  0  0  0  0  0
   25.4890   17.5070   13.1920 N   0  0  0  0  0  0  0  0  0  0  0  0
   25.4720   18.2030   14.4830 C   0  0  1  0  0  0  0  0  0  0  0  0
   26.4640   17.6600   15.5130 C   0  0  0  0  0  0  0  0  0  0  0  0
   26.3340   18.4530   16.8040 C   0  0  0  0  0  0  0  0  0  0  0  0
   26.5360   19.9310   16.5670 C   0  0  0  0  0  0  0  0  0  0  0  0
   26.9110   20.6910   17.4550 O   0  0  0  0  0  0  0  0  0  0  0  0
   26.1990   20.4070   15.3240 N   0  0  0  0  0  0  0  0  0  0  0  0
   25.6580   19.7090   14.2680 C   0  0  0  0  0  0  0  0  0  0  0  0
   25.2600   20.3010   13.2670 O   0  0  0  0  0  0  0  0  0  0  0  0
   24.3830   16.7920   12.7980 C   0  0  0  0  0  0  0  0  0  0  0  0
   24.2570   16.1820   11.6670 N   0  0  0  0  0  0  0  0  0  0  0  0
   25.3100   16.2780   10.7460 C   0  0  0  0  0  0  0  0  0  0  0  0
   21.0550   15.2360    9.2790 C   0  0  0  0  0  0  0  0  0  0  0  0
   19.8430   15.7560    9.2990 N   0  0  0  0  0  0  0  0  0  0  0  0
   18.8815   19.2845    8.7111 H   0  0  0  0  0  0  0  0  0  0  0  0
   19.7359   18.9616    7.1643 H   0  0  0  0  0  0  0  0  0  0  0  0
   17.9682   19.2812    7.1643 H   0  0  0  0  0  0  0  0  0  0  0  0
   17.8153   17.1854    8.7065 H   0  0  0  0  0  0  0  0  0  0  0  0
   18.1199   16.9535    6.9310 H   0  0  0  0  0  0  0  0  0  0  0  0
   21.2094   17.0651    6.5489 H   0  0  0  0  0  0  0  0  0  0  0  0
   26.1763   15.1280    7.6319 H   0  0  0  0  0  0  0  0  0  0  0  0
   28.2330   16.4491    8.1476 H   0  0  0  0  0  0  0  0  0  0  0  0
   28.4172   17.6624   10.3251 H   0  0  0  0  0  0  0  0  0  0  0  0
   24.4824   18.0091   14.9225 H   0  0  0  0  0  0  0  0  0  0  0  0
   26.2459   16.5999   15.7096 H   0  0  0  0  0  0  0  0  0  0  0  0
   27.4883   17.7559   15.1237 H   0  0  0  0  0  0  0  0  0  0  0  0
   25.3298   18.2919   17.2231 H   0  0  0  0  0  0  0  0  0  0  0  0
   27.1095   18.1058   17.5026 H   0  0  0  0  0  0  0  0  0  0  0  0
   26.3722   21.4093   15.1618 H   0  0  0  0  0  0  0  0  0  0  0  0
   23.5392   16.7351   13.5014 H   0  0  0  0  0  0  0  0  0  0  0  0
   21.4598   14.5593   10.0460 H   0  0  0  0  0  0  0  0  0  0  0  0
  1  2  1  0
  2  3  1  0
  3  4  2  0
  4  5  1  0
  5  6  1  0
  6  7  2  0
  6  8  2  0
  6  9  1  0
  9 10  1  0
 10 11  2  0
 11 12  1  0
 12 13  2  0
 13 14  1  0
 14 15  1  0
 15 16  2  0
 15 17  1  0
 17 18  1  0
 18 19  1  0
 19 20  1  0
 20 21  1  0
 21 22  2  0
 21 23  1  0
 23 24  1  0
 24 25  2  0
 17 26  1  0
 26 27  2  0
 27 28  1  0
  5 29  1  0
 29 30  2  0
 30  3  1  0
 28 10  1  0
 28 14  2  0
 24 18  1  0
  1 31  1  0
  1 32  1  0
  1 33  1  0
  2 34  1  0
  2 35  1  0
  4 36  1  0
 11 37  1  0
 12 38  1  0
 13 39  1  0
 18 40  1  1
 19 41  1  0
 19 42  1  0
 20 43  1  0
 20 44  1  0
 23 45  1  0
 26 46  1  0
 29 47  1  0
M  END
>  <meeko>  (1123) 
{"is_sidechain": [true], "free_energy": -10.24, "intermolecular_energy": 0.0, "internal_energy": -10.24, "cluster_size": 11, "cluster_id": 1, "rank_in_cluster": 1}

>  <_RMSD_MCS_to_ref>  (1123) 
0.5636581903561372

$$$$
ligand
     RDKit          3D

 49 52  0  0  0  0  0  0  0  0999 V2000
   18.7980   18.8170    7.7190 C   0  0  0  0  0  0  0  0  0  0  0  0
   18.5270   17.3290    7.8810 C   0  0  0  0  0  0  0  0  0  0  0  0
   19.7720   16.5530    8.1330 C   0  0  0  0  0  0  0  0  0  0  0  0
   20.1100   15.7900    9.2330 C   0  0  0  0  0  0  0  0  0  0  0  0
   21.3720   15.3460    8.9570 N   0  0  0  0  0  0  0  0  0  0  0  0
   22.3360   14.4160    9.9650 S   0  0  0  0  0  6  0  0  0  0  0  0
   23.3100   15.3210   10.5480 O   0  0  0  0  0  0  0  0  0  0  0  0
   22.7310   13.3100    9.1070 O   0  0  0  0  0  0  0  0  0  0  0  0
   21.2740   13.8160   11.2520 C   0  0  0  0  0  0  0  0  0  0  0  0
   20.4110   12.8530   10.7990 N   0  0  0  0  0  0  0  0  0  0  0  0
   19.5700   12.3260   11.6980 C   0  0  0  0  0  0  0  0  0  0  0  0
   19.5480   12.7220   13.0200 C   0  0  0  0  0  0  0  0  0  0  0  0
   20.4420   13.7150   13.4480 C   0  0  0  0  0  0  0  0  0  0  0  0
   20.4260   14.1360   14.7840 C   0  0  0  0  0  0  0  0  0  0  0  0
   21.3020   15.1230   15.2140 C   0  0  0  0  0  0  0  0  0  0  0  0
   22.1790   15.6570   14.2880 C   0  0  0  0  0  0  0  0  0  0  0  0
   23.1250   16.7380   14.7230 C   0  0  0  0  0  0  0  0  0  0  0  0
   22.7420   17.6980   15.3810 O   0  0  0  0  0  0  0  0  0  0  0  0
   24.4240   16.5650   14.3230 N   0  0  0  0  0  0  0  0  0  0  0  0
   25.4940   17.4950   14.6270 C   0  0  2  0  0  0  0  0  0  0  0  0
   25.7350   17.5990   16.1280 C   0  0  0  0  0  0  0  0  0  0  0  0
   26.8410   18.6060   16.3980 C   0  0  0  0  0  0  0  0  0  0  0  0
   26.5150   19.9520   15.7980 C   0  0  0  0  0  0  0  0  0  0  0  0
   26.9160   21.0040   16.2890 O   0  0  0  0  0  0  0  0  0  0  0  0
   25.7870   19.9470   14.6350 N   0  0  0  0  0  0  0  0  0  0  0  0
   25.1370   18.8770   14.0650 C   0  0  0  0  0  0  0  0  0  0  0  0
   24.3570   19.0460   13.1280 O   0  0  0  0  0  0  0  0  0  0  0  0
   22.2290   15.2670   12.9780 N   0  0  0  0  0  0  0  0  0  0  0  0
   21.3640   14.3060   12.5550 C   0  0  0  0  0  0  0  0  0  0  0  0
   21.7140   15.7330    7.7010 C   0  0  0  0  0  0  0  0  0  0  0  0
   20.7860   16.5200    7.1930 N   0  0  0  0  0  0  0  0  0  0  0  0
   18.8831   19.2843    8.7111 H   0  0  0  0  0  0  0  0  0  0  0  0
   19.7370   18.9604    7.1644 H   0  0  0  0  0  0  0  0  0  0  0  0
   17.9698   19.2823    7.1644 H   0  0  0  0  0  0  0  0  0  0  0  0
   17.8420   17.1844    8.7294 H   0  0  0  0  0  0  0  0  0  0  0  0
   18.0860   16.9627    6.9422 H   0  0  0  0  0  0  0  0  0  0  0  0
   19.5022   15.5863   10.1269 H   0  0  0  0  0  0  0  0  0  0  0  0
   18.8679   11.5455   11.3694 H   0  0  0  0  0  0  0  0  0  0  0  0
   18.8400   12.2658   13.7276 H   0  0  0  0  0  0  0  0  0  0  0  0
   19.7178   13.6835   15.4937 H   0  0  0  0  0  0  0  0  0  0  0  0
   21.2987   15.4693   16.2581 H   0  0  0  0  0  0  0  0  0  0  0  0
   24.6540   15.7245   13.7738 H   0  0  0  0  0  0  0  0  0  0  0  0
   26.4184   17.1222   14.1617 H   0  0  0  0  0  0  0  0  0  0  0  0
   24.8107   17.9282   16.6253 H   0  0  0  0  0  0  0  0  0  0  0  0
   26.0331   16.6151   16.5193 H   0  0  0  0  0  0  0  0  0  0  0  0
   26.9654   18.7188   17.4851 H   0  0  0  0  0  0  0  0  0  0  0  0
   27.7683   18.2355   15.9368 H   0  0  0  0  0  0  0  0  0  0  0  0
   25.7197   20.8439   14.1331 H   0  0  0  0  0  0  0  0  0  0  0  0
   22.6354   15.4323    7.1808 H   0  0  0  0  0  0  0  0  0  0  0  0
  1  2  1  0
  2  3  1  0
  3  4  2  0
  4  5  1  0
  5  6  1  0
  6  7  2  0
  6  8  2  0
  6  9  1  0
  9 10  2  0
 10 11  1  0
 11 12  2  0
 12 13  1  0
 13 14  2  0
 14 15  1  0
 15 16  2  0
 16 17  1  0
 17 18  2  0
 17 19  1  0
 19 20  1  0
 20 21  1  0
 21 22  1  0
 22 23  1  0
 23 24  2  0
 23 25  1  0
 25 26  1  0
 26 27  2  0
 16 28  1  0
 28 29  2  0
  5 30  1  0
 30 31  2  0
 31  3  1  0
 29  9  1  0
 29 13  1  0
 26 20  1  0
  1 32  1  0
  1 33  1  0
  1 34  1  0
  2 35  1  0
  2 36  1  0
  4 37  1  0
 11 38  1  0
 12 39  1  0
 14 40  1  0
 15 41  1  0
 19 42  1  0
 20 43  1  6
 21 44  1  0
 21 45  1  0
 22 46  1  0
 22 47  1  0
 25 48  1  0
 30 49  1  0
M  END
>  <meeko>  (1124) 
{"is_sidechain": [true], "free_energy": -10.24, "intermolecular_energy": 0.0, "internal_energy": -10.24, "cluster_size": 9, "cluster_id": 1, "rank_in_cluster": 1}

>  <_RMSD_MCS_to_ref>  (1124) 
0.968452431000672

$$$$
ligand
     RDKit          3D

 49 52  0  0  0  0  0  0  0  0999 V2000
   18.7970   18.8170    7.7190 C   0  0  0  0  0  0  0  0  0  0  0  0
   18.5280   17.3290    7.8810 C   0  0  0  0  0  0  0  0  0  0  0  0
   19.6670   16.4980    7.4040 C   0  0  0  0  0  0  0  0  0  0  0  0
   20.6230   15.8290    8.1430 C   0  0  0  0  0  0  0  0  0  0  0  0
   21.4100   15.2240    7.2030 N   0  0  0  0  0  0  0  0  0  0  0  0
   22.8270   14.3660    7.4950 S   0  0  0  0  0  6  0  0  0  0  0  0
   23.8970   15.3040    7.1990 O   0  0  0  0  0  0  0  0  0  0  0  0
   22.6580   13.1200    6.7650 O   0  0  0  0  0  0  0  0  0  0  0  0
   22.7890   14.0430    9.2440 C   0  0  0  0  0  0  0  0  0  0  0  0
   21.9050   13.1290    9.6780 N   0  0  0  0  0  0  0  0  0  0  0  0
   21.9160   12.9320   11.0080 C   0  0  0  0  0  0  0  0  0  0  0  0
   22.7630   13.6030   11.8840 C   0  0  0  0  0  0  0  0  0  0  0  0
   22.7600   13.3920   13.2740 C   0  0  0  0  0  0  0  0  0  0  0  0
   23.6400   14.1060   14.0840 C   0  0  0  0  0  0  0  0  0  0  0  0
   24.5270   15.0220   13.5100 C   0  0  0  0  0  0  0  0  0  0  0  0
   25.4460   15.7720   14.4110 C   0  0  0  0  0  0  0  0  0  0  0  0
   26.1990   15.1670   15.1650 O   0  0  0  0  0  0  0  0  0  0  0  0
   25.4210   17.1450   14.3190 N   0  0  0  0  0  0  0  0  0  0  0  0
   26.3810   17.9620   15.0510 C   0  0  2  0  0  0  0  0  0  0  0  0
   26.2660   17.7750   16.5590 C   0  0  0  0  0  0  0  0  0  0  0  0
   27.2650   18.6830   17.2600 C   0  0  0  0  0  0  0  0  0  0  0  0
   27.0760   20.1260   16.8560 C   0  0  0  0  0  0  0  0  0  0  0  0
   27.2850   21.0580   17.6250 O   0  0  0  0  0  0  0  0  0  0  0  0
   26.6830   20.3550   15.5620 N   0  0  0  0  0  0  0  0  0  0  0  0
   26.1280   19.4340   14.7090 C   0  0  0  0  0  0  0  0  0  0  0  0
   25.4840   19.7850   13.7210 O   0  0  0  0  0  0  0  0  0  0  0  0
   24.5090   15.2310   12.1240 C   0  0  0  0  0  0  0  0  0  0  0  0
   23.6400   14.5310   11.2990 C   0  0  0  0  0  0  0  0  0  0  0  0
   23.6610   14.7600    9.9820 N   0  0  0  0  0  0  0  0  0  0  0  0
   20.9560   15.5530    5.9660 C   0  0  0  0  0  0  0  0  0  0  0  0
   19.8890   16.3200    6.0520 N   0  0  0  0  0  0  0  0  0  0  0  0
   18.8815   19.2845    8.7111 H   0  0  0  0  0  0  0  0  0  0  0  0
   19.7359   18.9616    7.1643 H   0  0  0  0  0  0  0  0  0  0  0  0
   17.9682   19.2812    7.1643 H   0  0  0  0  0  0  0  0  0  0  0  0
   18.3538   17.1141    8.9456 H   0  0  0  0  0  0  0  0  0  0  0  0
   17.6469   17.0763    7.2729 H   0  0  0  0  0  0  0  0  0  0  0  0
   20.7273   15.7916    9.2374 H   0  0  0  0  0  0  0  0  0  0  0  0
   21.2138   12.1969   11.4282 H   0  0  0  0  0  0  0  0  0  0  0  0
   22.0651   12.6655   13.7204 H   0  0  0  0  0  0  0  0  0  0  0  0
   23.6372   13.9496   15.1728 H   0  0  0  0  0  0  0  0  0  0  0  0
   24.7143   17.6015   13.7248 H   0  0  0  0  0  0  0  0  0  0  0  0
   27.3929   17.6497   14.7536 H   0  0  0  0  0  0  0  0  0  0  0  0
   25.2468   18.0314   16.8836 H   0  0  0  0  0  0  0  0  0  0  0  0
   26.4798   16.7270   16.8160 H   0  0  0  0  0  0  0  0  0  0  0  0
   27.1268   18.5948   18.3477 H   0  0  0  0  0  0  0  0  0  0  0  0
   28.2791   18.3720   16.9689 H   0  0  0  0  0  0  0  0  0  0  0  0
   26.8171   21.3083   15.1958 H   0  0  0  0  0  0  0  0  0  0  0  0
   25.1981   15.9652   11.6811 H   0  0  0  0  0  0  0  0  0  0  0  0
   21.4161   15.2242    5.0225 H   0  0  0  0  0  0  0  0  0  0  0  0
  1  2  1  0
  2  3  1  0
  3  4  2  0
  4  5  1  0
  5  6  1  0
  6  7  2  0
  6  8  2  0
  6  9  1  0
  9 10  2  0
 10 11  1  0
 11 12  2  0
 12 13  1  0
 13 14  2  0
 14 15  1  0
 15 16  1  0
 16 17  2  0
 16 18  1  0
 18 19  1  0
 19 20  1  0
 20 21  1  0
 21 22  1  0
 22 23  2  0
 22 24  1  0
 24 25  1  0
 25 26  2  0
 15 27  2  0
 27 28  1  0
 28 29  2  0
  5 30  1  0
 30 31  2  0
 31  3  1  0
 29  9  1  0
 28 12  1  0
 25 19  1  0
  1 32  1  0
  1 33  1  0
  1 34  1  0
  2 35  1  0
  2 36  1  0
  4 37  1  0
 11 38  1  0
 13 39  1  0
 14 40  1  0
 18 41  1  0
 19 42  1  6
 20 43  1  0
 20 44  1  0
 21 45  1  0
 21 46  1  0
 24 47  1  0
 27 48  1  0
 30 49  1  0
M  END
>  <meeko>  (1125) 
{"is_sidechain": [true], "free_energy": -10.24, "intermolecular_energy": 0.0, "internal_energy": -10.24, "cluster_size": 18, "cluster_id": 1, "rank_in_cluster": 1}

>  <_RMSD_MCS_to_ref>  (1125) 
0.7965197214549472

$$$$
ligand
     RDKit          3D

 52 56  0  0  0  0  0  0  0  0999 V2000
   18.7970   18.8170    7.7190 C   0  0  0  0  0  0  0  0  0  0  0  0
   18.5280   17.3290    7.8810 C   0  0  0  0  0  0  0  0  0  0  0  0
   19.7800   16.5530    8.0940 C   0  0  0  0  0  0  0  0  0  0  0  0
   20.1470   15.7740    9.1730 C   0  0  0  0  0  0  0  0  0  0  0  0
   21.3810   15.2950    8.8370 N   0  0  0  0  0  0  0  0  0  0  0  0
   22.3820   14.3880    9.8330 S   0  0  0  0  0  6  0  0  0  0  0  0
   21.9970   13.0010    9.6730 O   0  0  0  0  0  0  0  0  0  0  0  0
   22.3240   15.0560   11.1220 O   0  0  0  0  0  0  0  0  0  0  0  0
   24.0060   14.6150    9.1950 C   0  0  0  0  0  0  0  0  0  0  0  0
   24.3940   13.9850    8.0250 C   0  0  0  0  0  0  0  0  0  0  0  0
   25.6550   14.1440    7.4990 C   0  0  0  0  0  0  0  0  0  0  0  0
   26.6240   14.9360    8.0900 C   0  0  0  0  0  0  0  0  0  0  0  0
   26.2690   15.5940    9.2860 C   0  0  0  0  0  0  0  0  0  0  0  0
   26.9670   16.4690   10.1670 C   0  0  0  0  0  0  0  0  0  0  0  0
   26.1160   16.8260   11.1990 C   0  0  0  0  0  0  0  0  0  0  0  0
   26.2910   17.6780   12.3540 C   0  0  0  0  0  0  0  0  0  0  0  0
   27.2850   18.3810   12.5070 O   0  0  0  0  0  0  0  0  0  0  0  0
   25.2760   17.6410   13.2760 N   0  0  0  0  0  0  0  0  0  0  0  0
   25.3780   18.3280   14.5530 C   0  0  1  0  0  0  0  0  0  0  0  0
   26.4540   17.7240   15.4490 C   0  0  0  0  0  0  0  0  0  0  0  0
   26.5330   18.5130   16.7480 C   0  0  0  0  0  0  0  0  0  0  0  0
   26.7760   19.9800   16.4850 C   0  0  0  0  0  0  0  0  0  0  0  0
   27.4440   20.6830   17.2370 O   0  0  0  0  0  0  0  0  0  0  0  0
   26.1840   20.5100   15.3650 N   0  0  0  0  0  0  0  0  0  0  0  0
   25.7180   19.7970   14.2900 C   0  0  0  0  0  0  0  0  0  0  0  0
   25.5790   20.3260   13.1870 O   0  0  0  0  0  0  0  0  0  0  0  0
   24.9240   16.1780   10.9630 N   0  0  0  0  0  0  0  0  0  0  0  0
   24.9840   15.4250    9.8100 C   0  0  0  0  0  0  0  0  0  0  0  0
   25.8330   13.4430    6.3440 O   0  0  0  0  0  0  0  0  0  0  0  0
   24.5460   12.8140    6.1990 C   0  0  0  0  0  0  0  0  0  0  0  0
   23.6300   13.1590    7.2580 O   0  0  0  0  0  0  0  0  0  0  0  0
   21.7350   15.7880    7.6220 C   0  0  0  0  0  0  0  0  0  0  0  0
   20.7790   16.5560    7.1400 N   0  0  0  0  0  0  0  0  0  0  0  0
   18.8815   19.2845    8.7111 H   0  0  0  0  0  0  0  0  0  0  0  0
   19.7359   18.9616    7.1643 H   0  0  0  0  0  0  0  0  0  0  0  0
   17.9682   19.2812    7.1643 H   0  0  0  0  0  0  0  0  0  0  0  0
   17.8670   17.1805    8.7476 H   0  0  0  0  0  0  0  0  0  0  0  0
   18.0590   16.9670    6.9542 H   0  0  0  0  0  0  0  0  0  0  0  0
   19.5758   15.5827   10.0934 H   0  0  0  0  0  0  0  0  0  0  0  0
   27.6249   15.0472    7.6474 H   0  0  0  0  0  0  0  0  0  0  0  0
   28.0077   16.8048   10.0474 H   0  0  0  0  0  0  0  0  0  0  0  0
   24.4192   17.1126   13.0578 H   0  0  0  0  0  0  0  0  0  0  0  0
   24.4141   18.2256   15.0731 H   0  0  0  0  0  0  0  0  0  0  0  0
   26.2013   16.6766   15.6708 H   0  0  0  0  0  0  0  0  0  0  0  0
   27.4255   17.7654   14.9348 H   0  0  0  0  0  0  0  0  0  0  0  0
   25.5852   18.3991   17.2946 H   0  0  0  0  0  0  0  0  0  0  0  0
   27.3734   18.1227   17.3407 H   0  0  0  0  0  0  0  0  0  0  0  0
   26.0807   21.5342   15.3290 H   0  0  0  0  0  0  0  0  0  0  0  0
   24.0946   16.2471   11.5698 H   0  0  0  0  0  0  0  0  0  0  0  0
   24.1080   13.1279    5.2400 H   0  0  0  0  0  0  0  0  0  0  0  0
   24.7038   11.7262    6.2406 H   0  0  0  0  0  0  0  0  0  0  0  0
   22.6863   15.5759    7.1120 H   0  0  0  0  0  0  0  0  0  0  0  0
  1  2  1  0
  2  3  1  0
  3  4  2  0
  4  5  1  0
  5  6  1  0
  6  7  2  0
  6  8  2  0
  6  9  1  0
  9 10  2  0
 10 11  1  0
 11 12  2  0
 12 13  1  0
 13 14  1  0
 14 15  2  0
 15 16  1  0
 16 17  2  0
 16 18  1  0
 18 19  1  0
 19 20  1  0
 20 21  1  0
 21 22  1  0
 22 23  2  0
 22 24  1  0
 24 25  1  0
 25 26  2  0
 15 27  1  0
 27 28  1  0
 11 29  1  0
 29 30  1  0
 30 31  1  0
  5 32  1  0
 32 33  2  0
 33  3  1  0
 28  9  1  0
 31 10  1  0
 28 13  2  0
 25 19  1  0
  1 34  1  0
  1 35  1  0
  1 36  1  0
  2 37  1  0
  2 38  1  0
  4 39  1  0
 12 40  1  0
 14 41  1  0
 18 42  1  0
 19 43  1  1
 20 44  1  0
 20 45  1  0
 21 46  1  0
 21 47  1  0
 24 48  1  0
 27 49  1  0
 30 50  1  0
 30 51  1  0
 32 52  1  0
M  END
>  <meeko>  (1126) 
{"is_sidechain": [true], "free_energy": -10.24, "intermolecular_energy": 0.0, "internal_energy": -10.24, "cluster_size": 10, "cluster_id": 1, "rank_in_cluster": 1}

>  <_RMSD_MCS_to_ref>  (1126) 
0.4724200990643816

$$$$
ligand
     RDKit          3D

 48 51  0  0  0  0  0  0  0  0999 V2000
   18.9090   19.1540    7.5370 C   0  0  0  0  0  0  0  0  0  0  0  0
   18.7730   17.6460    7.6780 C   0  0  0  0  0  0  0  0  0  0  0  0
   20.0610   16.9400    7.4370 C   0  0  0  0  0  0  0  0  0  0  0  0
   21.1590   16.8300    8.2670 C   0  0  0  0  0  0  0  0  0  0  0  0
   22.0550   16.0980    7.5420 N   0  0  0  0  0  0  0  0  0  0  0  0
   23.4980   15.4560    8.1130 S   0  0  0  0  0  6  0  0  0  0  0  0
   24.5500   16.3310    7.6360 O   0  0  0  0  0  0  0  0  0  0  0  0
   23.4520   14.0440    7.7840 O   0  0  0  0  0  0  0  0  0  0  0  0
   23.3720   15.6350    9.8720 C   0  0  0  0  0  0  0  0  0  0  0  0
   22.2910   15.0680   10.5550 C   0  0  0  0  0  0  0  0  0  0  0  0
   22.1990   15.2070   11.9410 C   0  0  0  0  0  0  0  0  0  0  0  0
   23.1800   15.9190   12.6450 C   0  0  0  0  0  0  0  0  0  0  0  0
   24.2690   16.4660   11.9490 C   0  0  0  0  0  0  0  0  0  0  0  0
   24.3730   16.3220   10.5630 C   0  0  0  0  0  0  0  0  0  0  0  0
   25.3300   17.1940   12.7000 C   0  0  0  0  0  0  0  0  0  0  0  0
   26.3610   17.5290   12.1240 O   0  0  0  0  0  0  0  0  0  0  0  0
   25.0800   17.4350   14.0610 N   0  0  0  0  0  0  0  0  0  0  0  0
   26.0250   18.2710   14.8100 C   0  0  2  0  0  0  0  0  0  0  0  0
   26.0090   17.9870   16.3120 C   0  0  0  0  0  0  0  0  0  0  0  0
   27.0570   18.8480   16.9990 C   0  0  0  0  0  0  0  0  0  0  0  0
   26.8420   20.3130   16.6990 C   0  0  0  0  0  0  0  0  0  0  0  0
   27.0860   21.1930   17.5190 O   0  0  0  0  0  0  0  0  0  0  0  0
   26.3840   20.6230   15.4440 N   0  0  0  0  0  0  0  0  0  0  0  0
   25.7480   19.7630   14.5760 C   0  0  0  0  0  0  0  0  0  0  0  0
   25.0220   20.2070   13.6880 O   0  0  0  0  0  0  0  0  0  0  0  0
   23.7530   17.3020   14.5790 N   0  0  0  0  0  0  0  0  0  0  0  0
   23.1300   16.0510   14.1420 C   0  0  0  0  0  0  0  0  0  0  0  0
   21.4910   15.7530    6.3560 C   0  0  0  0  0  0  0  0  0  0  0  0
   20.2790   16.2580    6.2550 N   0  0  0  0  0  0  0  0  0  0  0  0
   18.9504   19.6134    8.5356 H   0  0  0  0  0  0  0  0  0  0  0  0
   19.8320   19.3891    6.9867 H   0  0  0  0  0  0  0  0  0  0  0  0
   18.0430   19.5504    6.9867 H   0  0  0  0  0  0  0  0  0  0  0  0
   18.4278   17.4152    8.6966 H   0  0  0  0  0  0  0  0  0  0  0  0
   18.0520   17.3000    6.9227 H   0  0  0  0  0  0  0  0  0  0  0  0
   21.2834   17.2387    9.2806 H   0  0  0  0  0  0  0  0  0  0  0  0
   21.5170   14.5151   10.0025 H   0  0  0  0  0  0  0  0  0  0  0  0
   21.3541   14.7564   12.4824 H   0  0  0  0  0  0  0  0  0  0  0  0
   25.2328   16.7446   10.0225 H   0  0  0  0  0  0  0  0  0  0  0  0
   27.0235   18.0125   14.4277 H   0  0  0  0  0  0  0  0  0  0  0  0
   25.0150   18.2232   16.7197 H   0  0  0  0  0  0  0  0  0  0  0  0
   26.2330   16.9245   16.4878 H   0  0  0  0  0  0  0  0  0  0  0  0
   26.9939   18.6912   18.0859 H   0  0  0  0  0  0  0  0  0  0  0  0
   28.0487   18.5570   16.6223 H   0  0  0  0  0  0  0  0  0  0  0  0
   26.5293   21.5899   15.1200 H   0  0  0  0  0  0  0  0  0  0  0  0
   23.7925   17.3147   15.6082 H   0  0  0  0  0  0  0  0  0  0  0  0
   23.6659   15.2044   14.5960 H   0  0  0  0  0  0  0  0  0  0  0  0
   22.0766   16.0544   14.4588 H   0  0  0  0  0  0  0  0  0  0  0  0
   21.9789   15.1370    5.5862 H   0  0  0  0  0  0  0  0  0  0  0  0
  1  2  1  0
  2  3  1  0
  3  4  2  0
  4  5  1  0
  5  6  1  0
  6  7  2  0
  6  8  2  0
  6  9  1  0
  9 10  2  0
 10 11  1  0
 11 12  2  0
 12 13  1  0
 13 14  2  0
 13 15  1  0
 15 16  2  0
 15 17  1  0
 17 18  1  0
 18 19  1  0
 19 20  1  0
 20 21  1  0
 21 22  2  0
 21 23  1  0
 23 24  1  0
 24 25  2  0
 17 26  1  0
 26 27  1  0
  5 28  1  0
 28 29  2  0
 29  3  1  0
 14  9  1  0
 24 18  1  0
 27 12  1  0
  1 30  1  0
  1 31  1  0
  1 32  1  0
  2 33  1  0
  2 34  1  0
  4 35  1  0
 10 36  1  0
 11 37  1  0
 14 38  1  0
 18 39  1  6
 19 40  1  0
 19 41  1  0
 20 42  1  0
 20 43  1  0
 23 44  1  0
 26 45  1  0
 27 46  1  0
 27 47  1  0
 28 48  1  0
M  END
>  <meeko>  (1127) 
{"is_sidechain": [true], "free_energy": -10.24, "intermolecular_energy": 0.0, "internal_energy": -10.24, "cluster_size": 18, "cluster_id": 1, "rank_in_cluster": 1}

>  <_RMSD_MCS_to_ref>  (1127) 
0.715972842439649

$$$$
ligand
     RDKit          3D

 49 52  0  0  0  0  0  0  0  0999 V2000
   18.9090   19.1540    7.5370 C   0  0  0  0  0  0  0  0  0  0  0  0
   18.7730   17.6460    7.6780 C   0  0  0  0  0  0  0  0  0  0  0  0
   20.0930   16.9590    7.6680 C   0  0  0  0  0  0  0  0  0  0  0  0
   21.0130   16.8320    8.6900 C   0  0  0  0  0  0  0  0  0  0  0  0
   22.0390   16.1270    8.1320 N   0  0  0  0  0  0  0  0  0  0  0  0
   23.3570   15.4940    8.9600 S   0  0  0  0  0  6  0  0  0  0  0  0
   24.3380   16.5620    8.9940 O   0  0  0  0  0  0  0  0  0  0  0  0
   23.6470   14.2130    8.3450 O   0  0  0  0  0  0  0  0  0  0  0  0
   22.7300   15.2400   10.5990 C   0  0  0  0  0  0  0  0  0  0  0  0
   23.4180   15.8370   11.6720 C   0  0  0  0  0  0  0  0  0  0  0  0
   22.9600   15.6910   12.9840 C   0  0  0  0  0  0  0  0  0  0  0  0
   23.7220   16.3690   14.0700 C   0  0  0  0  0  0  0  0  0  0  0  0
   24.0520   15.7460   15.0720 O   0  0  0  0  0  0  0  0  0  0  0  0
   23.9920   17.7060   13.8920 N   0  0  0  0  0  0  0  0  0  0  0  0
   24.5760   18.5030   14.9640 C   0  0  1  0  0  0  0  0  0  0  0  0
   25.7190   17.7780   15.6680 C   0  0  0  0  0  0  0  0  0  0  0  0
   26.3080   18.6830   16.7400 C   0  0  0  0  0  0  0  0  0  0  0  0
   26.7520   20.0040   16.1570 C   0  0  0  0  0  0  0  0  0  0  0  0
   27.7340   20.6110   16.5740 O   0  0  0  0  0  0  0  0  0  0  0  0
   25.9850   20.5170   15.1430 N   0  0  0  0  0  0  0  0  0  0  0  0
   25.1110   19.8050   14.3600 C   0  0  0  0  0  0  0  0  0  0  0  0
   24.7790   20.2070   13.2450 O   0  0  0  0  0  0  0  0  0  0  0  0
   21.7970   14.9560   13.2560 C   0  0  0  0  0  0  0  0  0  0  0  0
   21.1320   14.3590   12.1760 C   0  0  0  0  0  0  0  0  0  0  0  0
   19.9870   13.5920   12.1670 N   0  0  0  0  0  0  0  0  0  0  0  0
   19.6910   13.2030   10.8910 C   0  0  0  0  0  0  0  0  0  0  0  0
   20.6520   13.7270   10.0580 C   0  0  0  0  0  0  0  0  0  0  0  0
   21.5710   14.4720   10.8520 C   0  0  0  0  0  0  0  0  0  0  0  0
   21.7180   15.8130    6.8510 C   0  0  0  0  0  0  0  0  0  0  0  0
   20.5430   16.3160    6.5320 N   0  0  0  0  0  0  0  0  0  0  0  0
   18.9504   19.6134    8.5356 H   0  0  0  0  0  0  0  0  0  0  0  0
   19.8320   19.3891    6.9867 H   0  0  0  0  0  0  0  0  0  0  0  0
   18.0430   19.5504    6.9867 H   0  0  0  0  0  0  0  0  0  0  0  0
   18.2650   17.4234    8.6280 H   0  0  0  0  0  0  0  0  0  0  0  0
   18.1940   17.2774    6.8184 H   0  0  0  0  0  0  0  0  0  0  0  0
   20.9361   17.2125    9.7192 H   0  0  0  0  0  0  0  0  0  0  0  0
   24.3265   16.4252   11.4755 H   0  0  0  0  0  0  0  0  0  0  0  0
   23.7784   18.1507   12.9878 H   0  0  0  0  0  0  0  0  0  0  0  0
   23.7938   18.6956   15.7130 H   0  0  0  0  0  0  0  0  0  0  0  0
   25.3378   16.8573   16.1339 H   0  0  0  0  0  0  0  0  0  0  0  0
   26.4981   17.5218   14.9350 H   0  0  0  0  0  0  0  0  0  0  0  0
   25.5456   18.8692   17.5108 H   0  0  0  0  0  0  0  0  0  0  0  0
   27.1854   18.1820   17.1749 H   0  0  0  0  0  0  0  0  0  0  0  0
   26.0723   21.5254   14.9520 H   0  0  0  0  0  0  0  0  0  0  0  0
   21.4188   14.8513   14.2836 H   0  0  0  0  0  0  0  0  0  0  0  0
   19.4345   13.3475   13.0012 H   0  0  0  0  0  0  0  0  0  0  0  0
   18.8366   12.5816   10.5846 H   0  0  0  0  0  0  0  0  0  0  0  0
   20.7023   13.5939    8.9672 H   0  0  0  0  0  0  0  0  0  0  0  0
   22.3509   15.2209    6.1736 H   0  0  0  0  0  0  0  0  0  0  0  0
  1  2  1  0
  2  3  1  0
  3  4  2  0
  4  5  1  0
  5  6  1  0
  6  7  2  0
  6  8  2  0
  6  9  1  0
  9 10  2  0
 10 11  1  0
 11 12  1  0
 12 13  2  0
 12 14  1  0
 14 15  1  0
 15 16  1  0
 16 17  1  0
 17 18  1  0
 18 19  2  0
 18 20  1  0
 20 21  1  0
 21 22  2  0
 11 23  2  0
 23 24  1  0
 24 25  1  0
 25 26  1  0
 26 27  2  0
 27 28  1  0
  5 29  1  0
 29 30  2  0
 30  3  1  0
 28  9  1  0
 21 15  1  0
 28 24  2  0
  1 31  1  0
  1 32  1  0
  1 33  1  0
  2 34  1  0
  2 35  1  0
  4 36  1  0
 10 37  1  0
 14 38  1  0
 15 39  1  1
 16 40  1  0
 16 41  1  0
 17 42  1  0
 17 43  1  0
 20 44  1  0
 23 45  1  0
 25 46  1  0
 26 47  1  0
 27 48  1  0
 29 49  1  0
M  END
>  <meeko>  (1128) 
{"is_sidechain": [true], "free_energy": -10.24, "intermolecular_energy": 0.0, "internal_energy": -10.24, "cluster_size": 18, "cluster_id": 1, "rank_in_cluster": 1}

>  <_RMSD_MCS_to_ref>  (1128) 
0.32346077814783025

$$$$
ligand
     RDKit          3D

 48 51  0  0  0  0  0  0  0  0999 V2000
   18.9090   19.1540    7.5370 C   0  0  0  0  0  0  0  0  0  0  0  0
   18.7730   17.6460    7.6780 C   0  0  0  0  0  0  0  0  0  0  0  0
   20.0870   16.9530    7.5940 C   0  0  0  0  0  0  0  0  0  0  0  0
   21.0680   16.8290    8.5580 C   0  0  0  0  0  0  0  0  0  0  0  0
   22.0640   16.1310    7.9350 N   0  0  0  0  0  0  0  0  0  0  0  0
   23.4010   15.4410    8.7020 S   0  0  0  0  0  6  0  0  0  0  0  0
   24.5030   16.3230    8.3570 O   0  0  0  0  0  0  0  0  0  0  0  0
   23.3920   14.0560    8.2690 O   0  0  0  0  0  0  0  0  0  0  0  0
   23.0770   15.5250   10.4140 C   0  0  0  0  0  0  0  0  0  0  0  0
   23.8610   16.3820   11.3010 C   0  0  0  0  0  0  0  0  0  0  0  0
   23.6330   16.4240   12.6340 C   0  0  0  0  0  0  0  0  0  0  0  0
   24.5210   17.3170   13.4420 C   0  0  0  0  0  0  0  0  0  0  0  0
   25.7320   17.3600   13.2570 O   0  0  0  0  0  0  0  0  0  0  0  0
   23.8920   18.0260   14.4330 N   0  0  0  0  0  0  0  0  0  0  0  0
   24.6470   18.8050   15.4050 C   0  0  1  0  0  0  0  0  0  0  0  0
   25.7330   17.9790   16.0860 C   0  0  0  0  0  0  0  0  0  0  0  0
   26.5070   18.8610   17.0550 C   0  0  0  0  0  0  0  0  0  0  0  0
   27.0770   20.0750   16.3560 C   0  0  0  0  0  0  0  0  0  0  0  0
   28.1460   20.5800   16.6820 O   0  0  0  0  0  0  0  0  0  0  0  0
   26.3200   20.6140   15.3470 N   0  0  0  0  0  0  0  0  0  0  0  0
   25.2990   19.9850   14.6800 C   0  0  0  0  0  0  0  0  0  0  0  0
   24.9280   20.3690   13.5700 O   0  0  0  0  0  0  0  0  0  0  0  0
   22.5680   15.6430   13.1790 C   0  0  0  0  0  0  0  0  0  0  0  0
   21.9670   15.4560   14.4060 C   0  0  0  0  0  0  0  0  0  0  0  0
   20.9420   14.5490   14.3190 N   0  0  0  0  0  0  0  0  0  0  0  0
   20.8890   14.2030   13.0530 C   0  0  0  0  0  0  0  0  0  0  0  0
   21.8400   14.8470   12.3040 N   0  0  0  0  0  0  0  0  0  0  0  0
   22.0860   14.7770   10.9370 C   0  0  0  0  0  0  0  0  0  0  0  0
   21.6590   15.8020    6.6810 C   0  0  0  0  0  0  0  0  0  0  0  0
   20.4630   16.2970    6.4380 N   0  0  0  0  0  0  0  0  0  0  0  0
   18.9504   19.6134    8.5356 H   0  0  0  0  0  0  0  0  0  0  0  0
   19.8320   19.3891    6.9867 H   0  0  0  0  0  0  0  0  0  0  0  0
   18.0430   19.5504    6.9867 H   0  0  0  0  0  0  0  0  0  0  0  0
   18.3156   17.4212    8.6528 H   0  0  0  0  0  0  0  0  0  0  0  0
   18.1468   17.2844    6.8491 H   0  0  0  0  0  0  0  0  0  0  0  0
   21.0514   17.2060    9.5913 H   0  0  0  0  0  0  0  0  0  0  0  0
   24.6572   17.0093   10.8737 H   0  0  0  0  0  0  0  0  0  0  0  0
   22.8638   18.0073   14.4913 H   0  0  0  0  0  0  0  0  0  0  0  0
   23.9511   19.1482   16.1847 H   0  0  0  0  0  0  0  0  0  0  0  0
   25.2699   17.1471   16.6369 H   0  0  0  0  0  0  0  0  0  0  0  0
   26.4197   17.5777   15.3262 H   0  0  0  0  0  0  0  0  0  0  0  0
   25.8304   19.1933   17.8561 H   0  0  0  0  0  0  0  0  0  0  0  0
   27.3407   18.2747   17.4688 H   0  0  0  0  0  0  0  0  0  0  0  0
   26.5381   21.5800   15.0639 H   0  0  0  0  0  0  0  0  0  0  0  0
   22.2697   15.9668   15.3320 H   0  0  0  0  0  0  0  0  0  0  0  0
   20.1670   13.4819   12.6422 H   0  0  0  0  0  0  0  0  0  0  0  0
   21.4812   14.1215   10.2932 H   0  0  0  0  0  0  0  0  0  0  0  0
   22.2475   15.2057    5.9682 H   0  0  0  0  0  0  0  0  0  0  0  0
  1  2  1  0
  2  3  1  0
  3  4  2  0
  4  5  1  0
  5  6  1  0
  6  7  2  0
  6  8  2  0
  6  9  1  0
  9 10  1  0
 10 11  2  0
 11 12  1  0
 12 13  2  0
 12 14  1  0
 14 15  1  0
 15 16  1  0
 16 17  1  0
 17 18  1  0
 18 19  2  0
 18 20  1  0
 20 21  1  0
 21 22  2  0
 11 23  1  0
 23 24  2  0
 24 25  1  0
 25 26  2  0
 26 27  1  0
 27 28  1  0
  5 29  1  0
 29 30  2  0
 30  3  1  0
 28  9  2  0
 21 15  1  0
 27 23  1  0
  1 31  1  0
  1 32  1  0
  1 33  1  0
  2 34  1  0
  2 35  1  0
  4 36  1  0
 10 37  1  0
 14 38  1  0
 15 39  1  1
 16 40  1  0
 16 41  1  0
 17 42  1  0
 17 43  1  0
 20 44  1  0
 24 45  1  0
 26 46  1  0
 28 47  1  0
 29 48  1  0
M  END
>  <meeko>  (1129) 
{"is_sidechain": [true], "free_energy": -10.24, "intermolecular_energy": 0.0, "internal_energy": -10.24, "cluster_size": 20, "cluster_id": 1, "rank_in_cluster": 1}

>  <_RMSD_MCS_to_ref>  (1129) 
0.6960328855577

$$$$
ligand
     RDKit          3D

 48 51  0  0  0  0  0  0  0  0999 V2000
   18.9090   19.1540    7.5370 C   0  0  0  0  0  0  0  0  0  0  0  0
   18.7730   17.6460    7.6780 C   0  0  0  0  0  0  0  0  0  0  0  0
   20.0730   16.9450    7.4940 C   0  0  0  0  0  0  0  0  0  0  0  0
   20.6350   15.9420    8.2590 C   0  0  0  0  0  0  0  0  0  0  0  0
   21.8390   15.6990    7.6600 N   0  0  0  0  0  0  0  0  0  0  0  0
   22.8520   14.3880    7.9900 S   0  0  0  0  0  6  0  0  0  0  0  0
   22.0480   13.2220    7.6670 O   0  0  0  0  0  0  0  0  0  0  0  0
   24.0660   14.6820    7.2480 O   0  0  0  0  0  0  0  0  0  0  0  0
   23.1800   14.4440    9.7030 C   0  0  0  0  0  0  0  0  0  0  0  0
   23.2780   13.2310   10.4830 C   0  0  0  0  0  0  0  0  0  0  0  0
   23.5460   13.3050   11.7930 C   0  0  0  0  0  0  0  0  0  0  0  0
   23.7340   14.5250   12.4290 N   0  0  0  0  0  0  0  0  0  0  0  0
   24.0100   14.5510   13.7850 C   0  0  0  0  0  0  0  0  0  0  0  0
   24.1110   13.5620   14.5110 O   0  0  0  0  0  0  0  0  0  0  0  0
   24.1940   15.8860   14.3700 C   0  0  0  0  0  0  0  0  0  0  0  0
   24.0880   16.9820   13.6050 C   0  0  0  0  0  0  0  0  0  0  0  0
   24.2760   18.2210   14.1910 N   0  0  0  0  0  0  0  0  0  0  0  0
   25.5160   18.6230   14.8620 C   0  0  2  0  0  0  0  0  0  0  0  0
   25.4430   18.2940   16.3500 C   0  0  0  0  0  0  0  0  0  0  0  0
   26.7110   18.7660   17.0400 C   0  0  0  0  0  0  0  0  0  0  0  0
   26.9350   20.2430   16.8220 C   0  0  0  0  0  0  0  0  0  0  0  0
   27.4950   20.9540   17.6520 O   0  0  0  0  0  0  0  0  0  0  0  0
   26.5220   20.7550   15.6190 N   0  0  0  0  0  0  0  0  0  0  0  0
   25.7140   20.1370   14.6950 C   0  0  0  0  0  0  0  0  0  0  0  0
   25.1950   20.7810   13.7820 O   0  0  0  0  0  0  0  0  0  0  0  0
   23.8050   16.8920   12.2680 N   0  0  0  0  0  0  0  0  0  0  0  0
   23.6440   15.7210   11.7380 C   0  0  0  0  0  0  0  0  0  0  0  0
   23.3450   15.6410   10.2820 C   0  0  0  0  0  0  0  0  0  0  0  0
   21.9500   16.4780    6.5540 C   0  0  0  0  0  0  0  0  0  0  0  0
   20.8970   17.2590    6.4310 N   0  0  0  0  0  0  0  0  0  0  0  0
   18.9504   19.6134    8.5356 H   0  0  0  0  0  0  0  0  0  0  0  0
   19.8320   19.3891    6.9867 H   0  0  0  0  0  0  0  0  0  0  0  0
   18.0430   19.5504    6.9867 H   0  0  0  0  0  0  0  0  0  0  0  0
   18.3862   17.4175    8.6821 H   0  0  0  0  0  0  0  0  0  0  0  0
   18.0855   17.2941    6.8947 H   0  0  0  0  0  0  0  0  0  0  0  0
   20.2106   15.4511    9.1472 H   0  0  0  0  0  0  0  0  0  0  0  0
   23.1332   12.2520   10.0029 H   0  0  0  0  0  0  0  0  0  0  0  0
   23.6190   12.3771   12.3793 H   0  0  0  0  0  0  0  0  0  0  0  0
   24.4200   15.9870   15.4418 H   0  0  0  0  0  0  0  0  0  0  0  0
   23.5015   18.8990   14.1538 H   0  0  0  0  0  0  0  0  0  0  0  0
   26.3581   18.0770   14.4117 H   0  0  0  0  0  0  0  0  0  0  0  0
   24.5740   18.8011   16.7947 H   0  0  0  0  0  0  0  0  0  0  0  0
   25.3408   17.2063   16.4786 H   0  0  0  0  0  0  0  0  0  0  0  0
   26.6255   18.5717   18.1193 H   0  0  0  0  0  0  0  0  0  0  0  0
   27.5639   18.2181   16.6131 H   0  0  0  0  0  0  0  0  0  0  0  0
   26.8518   21.7018   15.3832 H   0  0  0  0  0  0  0  0  0  0  0  0
   23.2599   16.5604    9.6841 H   0  0  0  0  0  0  0  0  0  0  0  0
   22.8011   16.4595    5.8574 H   0  0  0  0  0  0  0  0  0  0  0  0
  1  2  1  0
  2  3  1  0
  3  4  2  0
  4  5  1  0
  5  6  1  0
  6  7  2  0
  6  8  2  0
  6  9  1  0
  9 10  1  0
 10 11  2  0
 11 12  1  0
 12 13  1  0
 13 14  2  0
 13 15  1  0
 15 16  2  0
 16 17  1  0
 17 18  1  0
 18 19  1  0
 19 20  1  0
 20 21  1  0
 21 22  2  0
 21 23  1  0
 23 24  1  0
 24 25  2  0
 16 26  1  0
 26 27  2  0
 27 28  1  0
  5 29  1  0
 29 30  2  0
 30  3  1  0
 28  9  2  0
 27 12  1  0
 24 18  1  0
  1 31  1  0
  1 32  1  0
  1 33  1  0
  2 34  1  0
  2 35  1  0
  4 36  1  0
 10 37  1  0
 11 38  1  0
 15 39  1  0
 17 40  1  0
 18 41  1  6
 19 42  1  0
 19 43  1  0
 20 44  1  0
 20 45  1  0
 23 46  1  0
 28 47  1  0
 29 48  1  0
M  END
>  <meeko>  (1130) 
{"is_sidechain": [true], "free_energy": -10.24, "intermolecular_energy": 0.0, "internal_energy": -10.24, "cluster_size": 20, "cluster_id": 1, "rank_in_cluster": 1}

>  <_RMSD_MCS_to_ref>  (1130) 
0.7837357122567954

$$$$
ligand
     RDKit          3D

 47 50  0  0  0  0  0  0  0  0999 V2000
   18.9090   19.1540    7.5370 C   0  0  0  0  0  0  0  0  0  0  0  0
   18.7730   17.6460    7.6780 C   0  0  0  0  0  0  0  0  0  0  0  0
   19.9810   16.9250    7.1930 C   0  0  0  0  0  0  0  0  0  0  0  0
   20.9760   16.3050    7.9230 C   0  0  0  0  0  0  0  0  0  0  0  0
   21.8440   15.8370    6.9780 N   0  0  0  0  0  0  0  0  0  0  0  0
   23.1310   14.7850    7.2580 S   0  0  0  0  0  6  0  0  0  0  0  0
   22.5080   13.5490    7.6930 O   0  0  0  0  0  0  0  0  0  0  0  0
   23.9270   14.8500    6.0470 O   0  0  0  0  0  0  0  0  0  0  0  0
   23.9740   15.4310    8.4940 O   0  0  0  0  0  0  0  0  0  0  0  0
   23.4730   15.5160    9.7680 C   0  0  0  0  0  0  0  0  0  0  0  0
   22.3600   14.8260   10.2500 C   0  0  0  0  0  0  0  0  0  0  0  0
   21.9430   15.0060   11.5750 C   0  0  0  0  0  0  0  0  0  0  0  0
   22.6280   15.8690   12.4310 C   0  0  0  0  0  0  0  0  0  0  0  0
   22.1710   16.0290   13.7440 N   0  0  0  0  0  0  0  0  0  0  0  0
   22.8370   16.8180   14.5180 C   0  0  0  0  0  0  0  0  0  0  0  0
   23.9810   17.4980   14.1660 N   0  0  0  0  0  0  0  0  0  0  0  0
   24.6130   18.3970   15.1360 C   0  0  1  0  0  0  0  0  0  0  0  0
   25.8550   17.8210   15.8210 C   0  0  0  0  0  0  0  0  0  0  0  0
   26.4030   18.8390   16.8090 C   0  0  0  0  0  0  0  0  0  0  0  0
   26.7050   20.1570   16.1330 C   0  0  0  0  0  0  0  0  0  0  0  0
   27.5230   20.9520   16.5870 O   0  0  0  0  0  0  0  0  0  0  0  0
   25.9550   20.4670   15.0260 N   0  0  0  0  0  0  0  0  0  0  0  0
   24.9120   19.7520   14.4830 C   0  0  0  0  0  0  0  0  0  0  0  0
   24.2140   20.2420   13.5980 O   0  0  0  0  0  0  0  0  0  0  0  0
   24.4490   17.4570   12.8600 C   0  0  0  0  0  0  0  0  0  0  0  0
   25.3890   18.1290   12.4450 O   0  0  0  0  0  0  0  0  0  0  0  0
   23.7370   16.5510   11.9400 C   0  0  0  0  0  0  0  0  0  0  0  0
   24.1630   16.3840   10.6170 C   0  0  0  0  0  0  0  0  0  0  0  0
   21.3390   16.0970    5.7440 C   0  0  0  0  0  0  0  0  0  0  0  0
   20.2190   16.7830    5.8400 N   0  0  0  0  0  0  0  0  0  0  0  0
   18.9504   19.6134    8.5356 H   0  0  0  0  0  0  0  0  0  0  0  0
   19.8320   19.3891    6.9867 H   0  0  0  0  0  0  0  0  0  0  0  0
   18.0430   19.5504    6.9867 H   0  0  0  0  0  0  0  0  0  0  0  0
   18.6171   17.4020    8.7392 H   0  0  0  0  0  0  0  0  0  0  0  0
   17.9188   17.3250    7.0638 H   0  0  0  0  0  0  0  0  0  0  0  0
   21.0521   16.2098    9.0162 H   0  0  0  0  0  0  0  0  0  0  0  0
   21.8097   14.1403    9.5890 H   0  0  0  0  0  0  0  0  0  0  0  0
   21.0634   14.4595   11.9458 H   0  0  0  0  0  0  0  0  0  0  0  0
   22.4601   16.9586   15.5418 H   0  0  0  0  0  0  0  0  0  0  0  0
   23.8834   18.5315   15.9481 H   0  0  0  0  0  0  0  0  0  0  0  0
   25.5848   16.8986   16.3560 H   0  0  0  0  0  0  0  0  0  0  0  0
   26.6204   17.5934   15.0644 H   0  0  0  0  0  0  0  0  0  0  0  0
   25.6583   19.0056   17.6012 H   0  0  0  0  0  0  0  0  0  0  0  0
   27.3392   18.4435   17.2299 H   0  0  0  0  0  0  0  0  0  0  0  0
   26.2032   21.3419   14.5425 H   0  0  0  0  0  0  0  0  0  0  0  0
   25.0398   16.9355   10.2468 H   0  0  0  0  0  0  0  0  0  0  0  0
   21.8007   15.7792    4.7975 H   0  0  0  0  0  0  0  0  0  0  0  0
  1  2  1  0
  2  3  1  0
  3  4  2  0
  4  5  1  0
  5  6  1  0
  6  7  2  0
  6  8  2  0
  6  9  1  0
  9 10  1  0
 10 11  2  0
 11 12  1  0
 12 13  2  0
 13 14  1  0
 14 15  2  0
 15 16  1  0
 16 17  1  0
 17 18  1  0
 18 19  1  0
 19 20  1  0
 20 21  2  0
 20 22  1  0
 22 23  1  0
 23 24  2  0
 16 25  1  0
 25 26  2  0
 25 27  1  0
 27 28  2  0
  5 29  1  0
 29 30  2  0
 30  3  1  0
 28 10  1  0
 27 13  1  0
 23 17  1  0
  1 31  1  0
  1 32  1  0
  1 33  1  0
  2 34  1  0
  2 35  1  0
  4 36  1  0
 11 37  1  0
 12 38  1  0
 15 39  1  0
 17 40  1  1
 18 41  1  0
 18 42  1  0
 19 43  1  0
 19 44  1  0
 22 45  1  0
 28 46  1  0
 29 47  1  0
M  END
>  <meeko>  (1131) 
{"is_sidechain": [true], "free_energy": -10.24, "intermolecular_energy": 0.0, "internal_energy": -10.24, "cluster_size": 20, "cluster_id": 1, "rank_in_cluster": 1}

>  <_RMSD_MCS_to_ref>  (1131) 
0.47438474774057504

$$$$
ligand
     RDKit          3D

 47 50  0  0  0  0  0  0  0  0999 V2000
   18.9090   19.1540    7.5370 C   0  0  0  0  0  0  0  0  0  0  0  0
   18.7730   17.6460    7.6780 C   0  0  0  0  0  0  0  0  0  0  0  0
   19.9700   16.9240    7.1670 C   0  0  0  0  0  0  0  0  0  0  0  0
   21.3060   17.1920    7.3880 C   0  0  0  0  0  0  0  0  0  0  0  0
   21.9630   16.2440    6.6570 N   0  0  0  0  0  0  0  0  0  0  0  0
   23.6160   15.9180    6.7220 S   0  0  0  0  0  6  0  0  0  0  0  0
   23.9020   15.2110    5.4880 O   0  0  0  0  0  0  0  0  0  0  0  0
   24.2290   17.1990    7.0270 O   0  0  0  0  0  0  0  0  0  0  0  0
   23.8220   14.9070    7.9830 O   0  0  0  0  0  0  0  0  0  0  0  0
   23.4690   15.2390    9.2660 C   0  0  0  0  0  0  0  0  0  0  0  0
   22.2480   14.9460    9.8740 C   0  0  0  0  0  0  0  0  0  0  0  0
   22.0100   15.3370   11.1980 C   0  0  0  0  0  0  0  0  0  0  0  0
   22.9810   16.0240   11.9260 C   0  0  0  0  0  0  0  0  0  0  0  0
   22.7090   16.3870   13.2500 N   0  0  0  0  0  0  0  0  0  0  0  0
   23.6180   17.0400   13.8910 C   0  0  0  0  0  0  0  0  0  0  0  0
   24.8290   17.4350   13.3720 N   0  0  0  0  0  0  0  0  0  0  0  0
   25.7890   18.1380   14.2290 C   0  0  2  0  0  0  0  0  0  0  0  0
   25.6300   17.8570   15.7240 C   0  0  0  0  0  0  0  0  0  0  0  0
   26.6900   18.6270   16.4970 C   0  0  0  0  0  0  0  0  0  0  0  0
   26.6220   20.1080   16.2010 C   0  0  0  0  0  0  0  0  0  0  0  0
   27.0480   20.9510   16.9840 O   0  0  0  0  0  0  0  0  0  0  0  0
   26.1370   20.4670   14.9680 N   0  0  0  0  0  0  0  0  0  0  0  0
   25.7560   19.6410   13.9350 C   0  0  0  0  0  0  0  0  0  0  0  0
   25.5140   20.1060   12.8220 O   0  0  0  0  0  0  0  0  0  0  0  0
   25.2080   17.0410   12.0960 C   0  0  0  0  0  0  0  0  0  0  0  0
   26.3180   17.2490   11.6130 O   0  0  0  0  0  0  0  0  0  0  0  0
   24.1950   16.3130   11.3100 C   0  0  0  0  0  0  0  0  0  0  0  0
   24.4480   15.9250    9.9880 C   0  0  0  0  0  0  0  0  0  0  0  0
   21.0540   15.4030    6.1000 C   0  0  0  0  0  0  0  0  0  0  0  0
   19.8290   15.8050    6.3700 N   0  0  0  0  0  0  0  0  0  0  0  0
   18.9504   19.6134    8.5356 H   0  0  0  0  0  0  0  0  0  0  0  0
   19.8320   19.3891    6.9867 H   0  0  0  0  0  0  0  0  0  0  0  0
   18.0430   19.5504    6.9867 H   0  0  0  0  0  0  0  0  0  0  0  0
   18.6382   17.4003    8.7417 H   0  0  0  0  0  0  0  0  0  0  0  0
   17.9058   17.3276    7.0809 H   0  0  0  0  0  0  0  0  0  0  0  0
   21.7417   17.9873    8.0106 H   0  0  0  0  0  0  0  0  0  0  0  0
   21.4706   14.4069    9.3127 H   0  0  0  0  0  0  0  0  0  0  0  0
   21.0450   15.0991   11.6694 H   0  0  0  0  0  0  0  0  0  0  0  0
   23.4076   17.3025   14.9383 H   0  0  0  0  0  0  0  0  0  0  0  0
   26.7798   17.7341   13.9736 H   0  0  0  0  0  0  0  0  0  0  0  0
   24.6304   18.1768   16.0535 H   0  0  0  0  0  0  0  0  0  0  0  0
   25.7486   16.7794   15.9106 H   0  0  0  0  0  0  0  0  0  0  0  0
   26.5322   18.4698   17.5742 H   0  0  0  0  0  0  0  0  0  0  0  0
   27.6794   18.2576   16.1893 H   0  0  0  0  0  0  0  0  0  0  0  0
   26.0472   21.4783   14.7946 H   0  0  0  0  0  0  0  0  0  0  0  0
   25.4152   16.1600    9.5198 H   0  0  0  0  0  0  0  0  0  0  0  0
   21.3053   14.5114    5.5067 H   0  0  0  0  0  0  0  0  0  0  0  0
  1  2  1  0
  2  3  1  0
  3  4  2  0
  4  5  1  0
  5  6  1  0
  6  7  2  0
  6  8  2  0
  6  9  1  0
  9 10  1  0
 10 11  2  0
 11 12  1  0
 12 13  2  0
 13 14  1  0
 14 15  2  0
 15 16  1  0
 16 17  1  0
 17 18  1  0
 18 19  1  0
 19 20  1  0
 20 21  2  0
 20 22  1  0
 22 23  1  0
 23 24  2  0
 16 25  1  0
 25 26  2  0
 25 27  1  0
 27 28  2  0
  5 29  1  0
 29 30  2  0
 30  3  1  0
 28 10  1  0
 27 13  1  0
 23 17  1  0
  1 31  1  0
  1 32  1  0
  1 33  1  0
  2 34  1  0
  2 35  1  0
  4 36  1  0
 11 37  1  0
 12 38  1  0
 15 39  1  0
 17 40  1  6
 18 41  1  0
 18 42  1  0
 19 43  1  0
 19 44  1  0
 22 45  1  0
 28 46  1  0
 29 47  1  0
M  END
>  <meeko>  (1132) 
{"is_sidechain": [true], "free_energy": -10.24, "intermolecular_energy": 0.0, "internal_energy": -10.24, "cluster_size": 19, "cluster_id": 1, "rank_in_cluster": 1}

>  <_RMSD_MCS_to_ref>  (1132) 
0.6495081900090941

$$$$
ligand
     RDKit          3D

 47 50  0  0  0  0  0  0  0  0999 V2000
   18.9090   19.1540    7.5370 C   0  0  0  0  0  0  0  0  0  0  0  0
   18.7730   17.6460    7.6780 C   0  0  0  0  0  0  0  0  0  0  0  0
   20.0900   16.9560    7.6190 C   0  0  0  0  0  0  0  0  0  0  0  0
   20.9690   16.6710    8.6450 C   0  0  0  0  0  0  0  0  0  0  0  0
   21.9970   16.0130    8.0340 N   0  0  0  0  0  0  0  0  0  0  0  0
   23.5050   15.6830    8.7220 S   0  0  0  0  0  6  0  0  0  0  0  0
   23.8450   14.3600    8.2330 O   0  0  0  0  0  0  0  0  0  0  0  0
   24.3180   16.8280    8.3570 O   0  0  0  0  0  0  0  0  0  0  0  0
   23.2620   15.6410   10.4360 C   0  0  0  0  0  0  0  0  0  0  0  0
   24.0410   16.4180   11.2200 C   0  0  0  0  0  0  0  0  0  0  0  0
   23.8360   16.4270   12.6710 C   0  0  0  0  0  0  0  0  0  0  0  0
   24.6780   17.3310   13.5150 C   0  0  0  0  0  0  0  0  0  0  0  0
   25.8990   17.3360   13.4020 O   0  0  0  0  0  0  0  0  0  0  0  0
   24.0000   18.0830   14.4370 N   0  0  0  0  0  0  0  0  0  0  0  0
   24.7070   18.8750   15.4350 C   0  0  1  0  0  0  0  0  0  0  0  0
   25.7060   18.0440   16.2310 C   0  0  0  0  0  0  0  0  0  0  0  0
   26.4360   18.9400   17.2210 C   0  0  0  0  0  0  0  0  0  0  0  0
   27.1000   20.1030   16.5200 C   0  0  0  0  0  0  0  0  0  0  0  0
   28.1620   20.5840   16.9060 O   0  0  0  0  0  0  0  0  0  0  0  0
   26.4410   20.6280   15.4380 N   0  0  0  0  0  0  0  0  0  0  0  0
   25.4550   20.0020   14.7170 C   0  0  0  0  0  0  0  0  0  0  0  0
   25.1890   20.3420   13.5640 O   0  0  0  0  0  0  0  0  0  0  0  0
   22.8500   15.6930   13.2270 C   0  0  0  0  0  0  0  0  0  0  0  0
   22.0350   14.8700   12.4030 C   0  0  0  0  0  0  0  0  0  0  0  0
   21.0300   14.0740   12.6870 N   0  0  0  0  0  0  0  0  0  0  0  0
   20.5980   13.5110   11.5140 N   0  0  0  0  0  0  0  0  0  0  0  0
   21.3500   13.9750   10.5410 C   0  0  0  0  0  0  0  0  0  0  0  0
   22.2720   14.8600   11.0320 N   0  0  0  0  0  0  0  0  0  0  0  0
   21.7590   15.9590    6.6980 C   0  0  0  0  0  0  0  0  0  0  0  0
   20.6010   16.5160    6.4140 N   0  0  0  0  0  0  0  0  0  0  0  0
   18.9504   19.6134    8.5356 H   0  0  0  0  0  0  0  0  0  0  0  0
   19.8320   19.3891    6.9867 H   0  0  0  0  0  0  0  0  0  0  0  0
   18.0430   19.5504    6.9867 H   0  0  0  0  0  0  0  0  0  0  0  0
   18.2984   17.4218    8.6447 H   0  0  0  0  0  0  0  0  0  0  0  0
   18.1624   17.2816    6.8387 H   0  0  0  0  0  0  0  0  0  0  0  0
   20.8646   16.9180    9.7118 H   0  0  0  0  0  0  0  0  0  0  0  0
   24.8272   17.0423   10.7703 H   0  0  0  0  0  0  0  0  0  0  0  0
   22.9701   18.0889   14.4248 H   0  0  0  0  0  0  0  0  0  0  0  0
   23.9663   19.2718   16.1449 H   0  0  0  0  0  0  0  0  0  0  0  0
   25.1718   17.2527   16.7774 H   0  0  0  0  0  0  0  0  0  0  0  0
   26.4336   17.5878   15.5436 H   0  0  0  0  0  0  0  0  0  0  0  0
   25.7134   19.3281   17.9539 H   0  0  0  0  0  0  0  0  0  0  0  0
   27.2142   18.3447   17.7210 H   0  0  0  0  0  0  0  0  0  0  0  0
   26.7099   21.5765   15.1398 H   0  0  0  0  0  0  0  0  0  0  0  0
   22.6776   15.7312   14.3127 H   0  0  0  0  0  0  0  0  0  0  0  0
   21.2524   13.6924    9.4824 H   0  0  0  0  0  0  0  0  0  0  0  0
   22.4387   15.5124    5.9573 H   0  0  0  0  0  0  0  0  0  0  0  0
  1  2  1  0
  2  3  1  0
  3  4  2  0
  4  5  1  0
  5  6  1  0
  6  7  2  0
  6  8  2  0
  6  9  1  0
  9 10  2  0
 10 11  1  0
 11 12  1  0
 12 13  2  0
 12 14  1  0
 14 15  1  0
 15 16  1  0
 16 17  1  0
 17 18  1  0
 18 19  2  0
 18 20  1  0
 20 21  1  0
 21 22  2  0
 11 23  2  0
 23 24  1  0
 24 25  2  0
 25 26  1  0
 26 27  2  0
 27 28  1  0
  5 29  1  0
 29 30  2  0
 30  3  1  0
 28  9  1  0
 21 15  1  0
 28 24  1  0
  1 31  1  0
  1 32  1  0
  1 33  1  0
  2 34  1  0
  2 35  1  0
  4 36  1  0
 10 37  1  0
 14 38  1  0
 15 39  1  1
 16 40  1  0
 16 41  1  0
 17 42  1  0
 17 43  1  0
 20 44  1  0
 23 45  1  0
 27 46  1  0
 29 47  1  0
M  END
>  <meeko>  (1133) 
{"is_sidechain": [true], "free_energy": -10.24, "intermolecular_energy": 0.0, "internal_energy": -10.24, "cluster_size": 19, "cluster_id": 1, "rank_in_cluster": 1}

>  <_RMSD_MCS_to_ref>  (1133) 
0.7475104607220483

$$$$
ligand
     RDKit          3D

 50 53  0  0  0  0  0  0  0  0999 V2000
   18.9090   19.1540    7.5370 C   0  0  0  0  0  0  0  0  0  0  0  0
   18.7730   17.6460    7.6780 C   0  0  0  0  0  0  0  0  0  0  0  0
   20.0780   16.9470    7.5240 C   0  0  0  0  0  0  0  0  0  0  0  0
   20.4760   15.7270    8.0340 C   0  0  0  0  0  0  0  0  0  0  0  0
   21.7480   15.5670    7.5670 N   0  0  0  0  0  0  0  0  0  0  0  0
   22.8280   14.3670    8.0350 S   0  0  0  0  0  6  0  0  0  0  0  0
   23.8450   14.3270    7.0030 O   0  0  0  0  0  0  0  0  0  0  0  0
   22.0190   13.2110    8.3660 O   0  0  0  0  0  0  0  0  0  0  0  0
   23.5610   15.0130    9.5140 C   0  0  0  0  0  0  0  0  0  0  0  0
   24.8580   15.5400    9.4550 C   0  0  0  0  0  0  0  0  0  0  0  0
   25.4730   16.0410   10.6130 C   0  0  0  0  0  0  0  0  0  0  0  0
   24.8050   16.0120   11.8480 C   0  0  0  0  0  0  0  0  0  0  0  0
   25.4470   16.5180   13.0930 C   0  0  0  0  0  0  0  0  0  0  0  0
   25.7820   15.7470   13.9840 O   0  0  0  0  0  0  0  0  0  0  0  0
   25.6670   17.8750   13.1630 N   0  0  0  0  0  0  0  0  0  0  0  0
   26.4270   18.4590   14.2620 C   0  0  2  0  0  0  0  0  0  0  0  0
   25.9100   18.0110   15.6250 C   0  0  0  0  0  0  0  0  0  0  0  0
   26.7180   18.6900   16.7210 C   0  0  0  0  0  0  0  0  0  0  0  0
   26.6880   20.1930   16.5730 C   0  0  0  0  0  0  0  0  0  0  0  0
   26.7000   20.9510   17.5380 O   0  0  0  0  0  0  0  0  0  0  0  0
   26.6740   20.6840   15.2930 N   0  0  0  0  0  0  0  0  0  0  0  0
   26.3220   19.9840   14.1660 C   0  0  0  0  0  0  0  0  0  0  0  0
   25.9560   20.5600   13.1420 O   0  0  0  0  0  0  0  0  0  0  0  0
   23.5100   15.4990   11.8790 C   0  0  0  0  0  0  0  0  0  0  0  0
   22.8990   14.9880   10.7340 C   0  0  0  0  0  0  0  0  0  0  0  0
   21.5650   14.4420   11.1020 C   0  0  0  0  0  0  0  0  0  0  0  0
   21.3460   14.8830   12.4570 O   0  0  0  0  0  0  0  0  0  0  0  0
   22.5860   15.3500   13.0360 C   0  0  0  0  0  0  0  0  0  0  0  0
   22.0990   16.6630    6.8470 C   0  0  0  0  0  0  0  0  0  0  0  0
   21.1020   17.5210    6.7960 N   0  0  0  0  0  0  0  0  0  0  0  0
   18.9504   19.6134    8.5356 H   0  0  0  0  0  0  0  0  0  0  0  0
   19.8320   19.3891    6.9867 H   0  0  0  0  0  0  0  0  0  0  0  0
   18.0430   19.5504    6.9867 H   0  0  0  0  0  0  0  0  0  0  0  0
   18.3647   17.4187    8.6738 H   0  0  0  0  0  0  0  0  0  0  0  0
   18.1037   17.2912    6.8804 H   0  0  0  0  0  0  0  0  0  0  0  0
   19.8991   15.0407    8.6714 H   0  0  0  0  0  0  0  0  0  0  0  0
   25.3970   15.5612    8.4963 H   0  0  0  0  0  0  0  0  0  0  0  0
   26.4881   16.4604   10.5526 H   0  0  0  0  0  0  0  0  0  0  0  0
   25.2885   18.4881   12.4269 H   0  0  0  0  0  0  0  0  0  0  0  0
   27.4700   18.1205   14.1751 H   0  0  0  0  0  0  0  0  0  0  0  0
   24.8503   18.2888   15.7248 H   0  0  0  0  0  0  0  0  0  0  0  0
   26.0126   16.9196   15.7159 H   0  0  0  0  0  0  0  0  0  0  0  0
   26.2950   18.4176   17.6992 H   0  0  0  0  0  0  0  0  0  0  0  0
   27.7624   18.3538   16.6417 H   0  0  0  0  0  0  0  0  0  0  0  0
   26.9529   21.6673   15.1655 H   0  0  0  0  0  0  0  0  0  0  0  0
   20.7863   14.8398   10.4347 H   0  0  0  0  0  0  0  0  0  0  0  0
   21.5260   13.3465   11.0111 H   0  0  0  0  0  0  0  0  0  0  0  0
   22.4386   16.3157   13.5417 H   0  0  0  0  0  0  0  0  0  0  0  0
   22.9779   14.6573   13.7954 H   0  0  0  0  0  0  0  0  0  0  0  0
   23.0799   16.8132    6.3723 H   0  0  0  0  0  0  0  0  0  0  0  0
  1  2  1  0
  2  3  1  0
  3  4  2  0
  4  5  1  0
  5  6  1  0
  6  7  2  0
  6  8  2  0
  6  9  1  0
  9 10  2  0
 10 11  1  0
 11 12  2  0
 12 13  1  0
 13 14  2  0
 13 15  1  0
 15 16  1  0
 16 17  1  0
 17 18  1  0
 18 19  1  0
 19 20  2  0
 19 21  1  0
 21 22  1  0
 22 23  2  0
 12 24  1  0
 24 25  2  0
 25 26  1  0
 26 27  1  0
 27 28  1  0
  5 29  1  0
 29 30  2  0
 30  3  1  0
 25  9  1  0
 22 16  1  0
 28 24  1  0
  1 31  1  0
  1 32  1  0
  1 33  1  0
  2 34  1  0
  2 35  1  0
  4 36  1  0
 10 37  1  0
 11 38  1  0
 15 39  1  0
 16 40  1  6
 17 41  1  0
 17 42  1  0
 18 43  1  0
 18 44  1  0
 21 45  1  0
 26 46  1  0
 26 47  1  0
 28 48  1  0
 28 49  1  0
 29 50  1  0
M  END
>  <meeko>  (1134) 
{"is_sidechain": [true], "free_energy": -10.24, "intermolecular_energy": 0.0, "internal_energy": -10.24, "cluster_size": 20, "cluster_id": 1, "rank_in_cluster": 1}

>  <_RMSD_MCS_to_ref>  (1134) 
0.9965765288113991

$$$$
ligand
     RDKit          3D

 43 45  0  0  0  0  0  0  0  0999 V2000
   18.9090   19.1540    7.5370 C   0  0  0  0  0  0  0  0  0  0  0  0
   18.7730   17.6460    7.6780 C   0  0  0  0  0  0  0  0  0  0  0  0
   20.0860   16.9520    7.5850 C   0  0  0  0  0  0  0  0  0  0  0  0
   21.0670   16.8170    8.5480 C   0  0  0  0  0  0  0  0  0  0  0  0
   22.0560   16.1140    7.9210 N   0  0  0  0  0  0  0  0  0  0  0  0
   23.4630   15.5370    8.6310 S   0  0  0  0  0  6  0  0  0  0  0  0
   24.4660   16.5610    8.3930 O   0  0  0  0  0  0  0  0  0  0  0  0
   23.6180   14.1730    8.1610 O   0  0  0  0  0  0  0  0  0  0  0  0
   23.1400   15.4860   10.3690 C   0  0  0  0  0  0  0  0  0  0  0  0
   24.0900   15.9500   11.2420 C   0  0  0  0  0  0  0  0  0  0  0  0
   23.7230   15.8560   12.5620 C   0  0  0  0  0  0  0  0  0  0  0  0
   24.6640   16.3280   13.6250 C   0  0  0  0  0  0  0  0  0  0  0  0
   25.2170   15.5410   14.3830 O   0  0  0  0  0  0  0  0  0  0  0  0
   24.8560   17.6900   13.6640 N   0  0  0  0  0  0  0  0  0  0  0  0
   25.8530   18.3150   14.5150 C   0  0  2  0  0  0  0  0  0  0  0  0
   25.6560   17.9580   15.9850 C   0  0  0  0  0  0  0  0  0  0  0  0
   26.7110   18.6610   16.8240 C   0  0  0  0  0  0  0  0  0  0  0  0
   26.6860   20.1540   16.6000 C   0  0  0  0  0  0  0  0  0  0  0  0
   26.9490   20.9580   17.4890 O   0  0  0  0  0  0  0  0  0  0  0  0
   26.3820   20.5790   15.3320 N   0  0  0  0  0  0  0  0  0  0  0  0
   25.7680   19.8370   14.3540 C   0  0  0  0  0  0  0  0  0  0  0  0
   25.2040   20.3810   13.4050 O   0  0  0  0  0  0  0  0  0  0  0  0
   22.5340   15.3580   12.9920 N   0  0  0  0  0  0  0  0  0  0  0  0
   21.6960   14.9410   12.0360 C   0  0  0  0  0  0  0  0  0  0  0  0
   21.9380   14.9780   10.7210 N   0  0  0  0  0  0  0  0  0  0  0  0
   21.6550   15.8090    6.6600 C   0  0  0  0  0  0  0  0  0  0  0  0
   20.4630   16.3150    6.4180 N   0  0  0  0  0  0  0  0  0  0  0  0
   18.9504   19.6134    8.5356 H   0  0  0  0  0  0  0  0  0  0  0  0
   19.8320   19.3891    6.9867 H   0  0  0  0  0  0  0  0  0  0  0  0
   18.0430   19.5504    6.9867 H   0  0  0  0  0  0  0  0  0  0  0  0
   18.3218   17.4209    8.6556 H   0  0  0  0  0  0  0  0  0  0  0  0
   18.1412   17.2853    6.8529 H   0  0  0  0  0  0  0  0  0  0  0  0
   21.0546   17.1901    9.5827 H   0  0  0  0  0  0  0  0  0  0  0  0
   25.0571   16.3598   10.9152 H   0  0  0  0  0  0  0  0  0  0  0  0
   24.2696   18.2897   13.0662 H   0  0  0  0  0  0  0  0  0  0  0  0
   26.8408   17.9425   14.2059 H   0  0  0  0  0  0  0  0  0  0  0  0
   24.6554   18.2799   16.3094 H   0  0  0  0  0  0  0  0  0  0  0  0
   25.7512   16.8697   16.1135 H   0  0  0  0  0  0  0  0  0  0  0  0
   26.5187   18.4551   17.8873 H   0  0  0  0  0  0  0  0  0  0  0  0
   27.6999   18.2821   16.5264 H   0  0  0  0  0  0  0  0  0  0  0  0
   26.6388   21.5468   15.0907 H   0  0  0  0  0  0  0  0  0  0  0  0
   20.7265   14.5335   12.3585 H   0  0  0  0  0  0  0  0  0  0  0  0
   22.2437   15.2211    5.9405 H   0  0  0  0  0  0  0  0  0  0  0  0
  1  2  1  0
  2  3  1  0
  3  4  2  0
  4  5  1  0
  5  6  1  0
  6  7  2  0
  6  8  2  0
  6  9  1  0
  9 10  2  0
 10 11  1  0
 11 12  1  0
 12 13  2  0
 12 14  1  0
 14 15  1  0
 15 16  1  0
 16 17  1  0
 17 18  1  0
 18 19  2  0
 18 20  1  0
 20 21  1  0
 21 22  2  0
 11 23  2  0
 23 24  1  0
 24 25  2  0
  5 26  1  0
 26 27  2  0
 27  3  1  0
 25  9  1  0
 21 15  1  0
  1 28  1  0
  1 29  1  0
  1 30  1  0
  2 31  1  0
  2 32  1  0
  4 33  1  0
 10 34  1  0
 14 35  1  0
 15 36  1  6
 16 37  1  0
 16 38  1  0
 17 39  1  0
 17 40  1  0
 20 41  1  0
 24 42  1  0
 26 43  1  0
M  END
>  <meeko>  (1135) 
{"is_sidechain": [true], "free_energy": -10.24, "intermolecular_energy": 0.0, "internal_energy": -10.24, "cluster_size": 20, "cluster_id": 1, "rank_in_cluster": 1}

>  <_RMSD_MCS_to_ref>  (1135) 
0.5727649314218418

$$$$
ligand
     RDKit          3D

 50 53  0  0  0  0  0  0  0  0999 V2000
   18.9090   19.1540    7.5370 C   0  0  0  0  0  0  0  0  0  0  0  0
   18.7730   17.6460    7.6780 C   0  0  0  0  0  0  0  0  0  0  0  0
   19.8960   16.9170    7.0270 C   0  0  0  0  0  0  0  0  0  0  0  0
   21.2240   16.8560    7.3980 C   0  0  0  0  0  0  0  0  0  0  0  0
   21.8060   16.0800    6.4380 N   0  0  0  0  0  0  0  0  0  0  0  0
   23.3600   15.4210    6.5130 S   0  0  0  0  0  6  0  0  0  0  0  0
   24.2460   16.5620    6.3660 O   0  0  0  0  0  0  0  0  0  0  0  0
   23.3440   14.3590    5.5220 O   0  0  0  0  0  0  0  0  0  0  0  0
   23.5260   14.7370    8.1110 C   0  0  0  0  0  0  0  0  0  0  0  0
   23.3130   13.3300    8.3620 C   0  0  0  0  0  0  0  0  0  0  0  0
   23.4370   12.8360    9.6000 C   0  0  0  0  0  0  0  0  0  0  0  0
   23.7940   13.7370   10.7320 C   0  0  0  0  0  0  0  0  0  0  0  0
   23.9040   13.2350   11.9220 N   0  0  0  0  0  0  0  0  0  0  0  0
   24.2330   14.0930   12.9360 C   0  0  0  0  0  0  0  0  0  0  0  0
   24.4460   15.4090   12.8080 C   0  0  0  0  0  0  0  0  0  0  0  0
   24.7890   16.1910   14.0280 C   0  0  0  0  0  0  0  0  0  0  0  0
   24.9230   15.6540   15.1260 O   0  0  0  0  0  0  0  0  0  0  0  0
   24.9410   17.5400   13.8570 N   0  0  0  0  0  0  0  0  0  0  0  0
   25.1990   18.4410   14.9700 C   0  0  1  0  0  0  0  0  0  0  0  0
   26.2440   17.8710   15.9240 C   0  0  0  0  0  0  0  0  0  0  0  0
   26.4850   18.8530   17.0600 C   0  0  0  0  0  0  0  0  0  0  0  0
   26.8860   20.2110   16.5350 C   0  0  0  0  0  0  0  0  0  0  0  0
   27.6580   20.9480   17.1400 O   0  0  0  0  0  0  0  0  0  0  0  0
   26.3170   20.6050   15.3510 N   0  0  0  0  0  0  0  0  0  0  0  0
   25.6860   19.7940   14.4390 C   0  0  0  0  0  0  0  0  0  0  0  0
   25.5160   20.1640   13.2780 O   0  0  0  0  0  0  0  0  0  0  0  0
   24.3190   15.9770   11.4470 C   0  0  0  0  0  0  0  0  0  0  0  0
   24.4970   17.1820   11.2590 O   0  0  0  0  0  0  0  0  0  0  0  0
   23.9900   15.0800   10.4330 N   0  0  0  0  0  0  0  0  0  0  0  0
   23.8570   15.5520    9.1260 C   0  0  0  0  0  0  0  0  0  0  0  0
   20.8500   15.6500    5.5740 C   0  0  0  0  0  0  0  0  0  0  0  0
   19.6760   16.1510    5.8980 N   0  0  0  0  0  0  0  0  0  0  0  0
   18.9504   19.6134    8.5356 H   0  0  0  0  0  0  0  0  0  0  0  0
   19.8320   19.3891    6.9867 H   0  0  0  0  0  0  0  0  0  0  0  0
   18.0430   19.5504    6.9867 H   0  0  0  0  0  0  0  0  0  0  0  0
   18.7574   17.3902    8.7477 H   0  0  0  0  0  0  0  0  0  0  0  0
   17.8400   17.3430    7.1803 H   0  0  0  0  0  0  0  0  0  0  0  0
   21.7040   17.3259    8.2691 H   0  0  0  0  0  0  0  0  0  0  0  0
   23.0473   12.6606    7.5305 H   0  0  0  0  0  0  0  0  0  0  0  0
   23.2751   11.7633    9.7820 H   0  0  0  0  0  0  0  0  0  0  0  0
   24.3311   13.6644   13.9443 H   0  0  0  0  0  0  0  0  0  0  0  0
   24.8703   17.9315   12.9069 H   0  0  0  0  0  0  0  0  0  0  0  0
   24.2573   18.5668   15.5244 H   0  0  0  0  0  0  0  0  0  0  0  0
   25.8830   16.9167   16.3351 H   0  0  0  0  0  0  0  0  0  0  0  0
   27.1847   17.7039   15.3789 H   0  0  0  0  0  0  0  0  0  0  0  0
   25.5609   18.9546   17.6480 H   0  0  0  0  0  0  0  0  0  0  0  0
   27.3034   18.4668   17.6853 H   0  0  0  0  0  0  0  0  0  0  0  0
   26.3677   21.6081   15.1229 H   0  0  0  0  0  0  0  0  0  0  0  0
   24.0278   16.6194    8.9220 H   0  0  0  0  0  0  0  0  0  0  0  0
   21.0312   14.9773    4.7227 H   0  0  0  0  0  0  0  0  0  0  0  0
  1  2  1  0
  2  3  1  0
  3  4  2  0
  4  5  1  0
  5  6  1  0
  6  7  2  0
  6  8  2  0
  6  9  1  0
  9 10  1  0
 10 11  2  0
 11 12  1  0
 12 13  2  0
 13 14  1  0
 14 15  2  0
 15 16  1  0
 16 17  2  0
 16 18  1  0
 18 19  1  0
 19 20  1  0
 20 21  1  0
 21 22  1  0
 22 23  2  0
 22 24  1  0
 24 25  1  0
 25 26  2  0
 15 27  1  0
 27 28  2  0
 27 29  1  0
 29 30  1  0
  5 31  1  0
 31 32  2  0
 32  3  1  0
 30  9  2  0
 29 12  1  0
 25 19  1  0
  1 33  1  0
  1 34  1  0
  1 35  1  0
  2 36  1  0
  2 37  1  0
  4 38  1  0
 10 39  1  0
 11 40  1  0
 14 41  1  0
 18 42  1  0
 19 43  1  1
 20 44  1  0
 20 45  1  0
 21 46  1  0
 21 47  1  0
 24 48  1  0
 30 49  1  0
 31 50  1  0
M  END
>  <meeko>  (1136) 
{"is_sidechain": [true], "free_energy": -10.24, "intermolecular_energy": 0.0, "internal_energy": -10.24, "cluster_size": 18, "cluster_id": 1, "rank_in_cluster": 1}

>  <_RMSD_MCS_to_ref>  (1136) 
0.49896025225796553

$$$$
ligand
     RDKit          3D

 44 47  0  0  0  0  0  0  0  0999 V2000
   18.9090   19.1540    7.5370 C   0  0  0  0  0  0  0  0  0  0  0  0
   18.7730   17.6460    7.6780 C   0  0  0  0  0  0  0  0  0  0  0  0
   20.0930   16.9590    7.6590 C   0  0  0  0  0  0  0  0  0  0  0  0
   20.6020   16.0310    8.5460 C   0  0  0  0  0  0  0  0  0  0  0  0
   21.8540   15.7630    8.0680 N   0  0  0  0  0  0  0  0  0  0  0  0
   22.8670   14.5250    8.6000 S   0  0  0  0  0  6  0  0  0  0  0  0
   23.1720   13.7600    7.4050 O   0  0  0  0  0  0  0  0  0  0  0  0
   22.1620   13.9290    9.7200 O   0  0  0  0  0  0  0  0  0  0  0  0
   24.2200   15.2550    9.1390 O   0  0  0  0  0  0  0  0  0  0  0  0
   24.2840   15.8980   10.3510 C   0  0  0  0  0  0  0  0  0  0  0  0
   25.4630   16.6090   10.5710 C   0  0  0  0  0  0  0  0  0  0  0  0
   25.6750   17.3130   11.7640 C   0  0  0  0  0  0  0  0  0  0  0  0
   24.6920   17.2920   12.7770 C   0  0  0  0  0  0  0  0  0  0  0  0
   24.5020   17.8530   14.0890 C   0  0  0  0  0  0  0  0  0  0  0  0
   25.3640   18.6360   14.8760 N   0  0  0  0  0  0  0  0  0  0  0  0
   26.2860   17.9880   15.8080 C   0  0  0  0  0  0  0  0  0  0  0  0
   26.4400   18.8160   17.0650 C   0  0  0  0  0  0  0  0  0  0  0  0
   26.8530   20.2050   16.6840 C   0  0  0  0  0  0  0  0  0  0  0  0
   27.4460   20.9530   17.4560 O   0  0  0  0  0  0  0  0  0  0  0  0
   26.4550   20.6230   15.4440 N   0  0  0  0  0  0  0  0  0  0  0  0
   25.5980   19.9740   14.5830 C   0  0  0  0  0  0  0  0  0  0  0  0
   25.1400   20.6200   13.6440 O   0  0  0  0  0  0  0  0  0  0  0  0
   23.2650   17.5810   14.5350 N   0  0  0  0  0  0  0  0  0  0  0  0
   22.7260   16.7930   13.5990 N   0  0  0  0  0  0  0  0  0  0  0  0
   23.5160   16.5980   12.5050 C   0  0  0  0  0  0  0  0  0  0  0  0
   23.2780   15.8840   11.3200 C   0  0  0  0  0  0  0  0  0  0  0  0
   22.0390   16.4390    6.9050 C   0  0  0  0  0  0  0  0  0  0  0  0
   20.9960   17.1990    6.6430 N   0  0  0  0  0  0  0  0  0  0  0  0
   18.9504   19.6134    8.5356 H   0  0  0  0  0  0  0  0  0  0  0  0
   19.8320   19.3891    6.9867 H   0  0  0  0  0  0  0  0  0  0  0  0
   18.0430   19.5504    6.9867 H   0  0  0  0  0  0  0  0  0  0  0  0
   18.2711   17.4230    8.6311 H   0  0  0  0  0  0  0  0  0  0  0  0
   18.1880   17.2779    6.8222 H   0  0  0  0  0  0  0  0  0  0  0  0
   20.1120   15.6050    9.4339 H   0  0  0  0  0  0  0  0  0  0  0  0
   26.2412   16.6175    9.7937 H   0  0  0  0  0  0  0  0  0  0  0  0
   26.6056   17.8809   11.9108 H   0  0  0  0  0  0  0  0  0  0  0  0
   25.8931   16.9957   16.0744 H   0  0  0  0  0  0  0  0  0  0  0  0
   27.2692   17.8901   15.3245 H   0  0  0  0  0  0  0  0  0  0  0  0
   25.4818   18.8505   17.6041 H   0  0  0  0  0  0  0  0  0  0  0  0
   27.2035   18.3658   17.7165 H   0  0  0  0  0  0  0  0  0  0  0  0
   26.8383   21.5219   15.1183 H   0  0  0  0  0  0  0  0  0  0  0  0
   21.7924   16.3689   13.6962 H   0  0  0  0  0  0  0  0  0  0  0  0
   22.3377   15.3359   11.1610 H   0  0  0  0  0  0  0  0  0  0  0  0
   22.9345   16.3625    6.2707 H   0  0  0  0  0  0  0  0  0  0  0  0
  1  2  1  0
  2  3  1  0
  3  4  2  0
  4  5  1  0
  5  6  1  0
  6  7  2  0
  6  8  2  0
  6  9  1  0
  9 10  1  0
 10 11  2  0
 11 12  1  0
 12 13  2  0
 13 14  1  0
 14 15  1  0
 15 16  1  0
 16 17  1  0
 17 18  1  0
 18 19  2  0
 18 20  1  0
 20 21  1  0
 21 22  2  0
 14 23  2  0
 23 24  1  0
 24 25  1  0
 25 26  2  0
  5 27  1  0
 27 28  2  0
 28  3  1  0
 26 10  1  0
 25 13  1  0
 21 15  1  0
  1 29  1  0
  1 30  1  0
  1 31  1  0
  2 32  1  0
  2 33  1  0
  4 34  1  0
 11 35  1  0
 12 36  1  0
 16 37  1  0
 16 38  1  0
 17 39  1  0
 17 40  1  0
 20 41  1  0
 24 42  1  0
 26 43  1  0
 27 44  1  0
M  END
>  <meeko>  (1137) 
{"is_sidechain": [true], "free_energy": -10.24, "intermolecular_energy": 0.0, "internal_energy": -10.24, "cluster_size": 19, "cluster_id": 1, "rank_in_cluster": 1}

>  <_RMSD_MCS_to_ref>  (1137) 
0.519075018663006

$$$$
ligand
     RDKit          3D

 54 58  0  0  0  0  0  0  0  0999 V2000
   18.9090   19.1540    7.5370 C   0  0  0  0  0  0  0  0  0  0  0  0
   18.7730   17.6460    7.6780 C   0  0  0  0  0  0  0  0  0  0  0  0
   20.0910   16.9580    7.6200 C   0  0  0  0  0  0  0  0  0  0  0  0
   20.5970   15.9800    8.4550 C   0  0  0  0  0  0  0  0  0  0  0  0
   21.8190   15.6870    7.9190 N   0  0  0  0  0  0  0  0  0  0  0  0
   22.9450   14.6240    8.5610 S   0  0  0  0  0  6  0  0  0  0  0  0
   23.6820   14.1440    7.4080 O   0  0  0  0  0  0  0  0  0  0  0  0
   22.2270   13.7130    9.4320 O   0  0  0  0  0  0  0  0  0  0  0  0
   24.0460   15.5990    9.5640 C   0  0  0  0  0  0  0  0  0  0  0  0
   23.5980   15.9640   10.8450 C   0  0  0  0  0  0  0  0  0  0  0  0
   24.4330   16.7500   11.6100 C   0  0  0  0  0  0  0  0  0  0  0  0
   25.6700   17.1950   11.1590 C   0  0  0  0  0  0  0  0  0  0  0  0
   26.1140   16.8530    9.8930 C   0  0  0  0  0  0  0  0  0  0  0  0
   25.3000   16.0450    9.0650 C   0  0  0  0  0  0  0  0  0  0  0  0
   25.8130   15.6810    7.7430 C   0  0  0  0  0  0  0  0  0  0  0  0
   26.7000   14.6410    7.5490 C   0  0  0  0  0  0  0  0  0  0  0  0
   27.0800   14.4140    6.2470 C   0  0  0  0  0  0  0  0  0  0  0  0
   26.6250   15.1320    5.2050 N   0  0  0  0  0  0  0  0  0  0  0  0
   25.7680   16.1180    5.5040 C   0  0  0  0  0  0  0  0  0  0  0  0
   25.3320   16.4320    6.7340 N   0  0  0  0  0  0  0  0  0  0  0  0
   26.3210   18.0400   12.2040 C   0  0  0  0  0  0  0  0  0  0  0  0
   25.3890   17.9430   13.3190 N   0  0  0  0  0  0  0  0  0  0  0  0
   25.5110   18.8130   14.4840 C   0  0  2  0  0  0  0  0  0  0  0  0
   26.3320   20.0760   14.2300 C   0  0  0  0  0  0  0  0  0  0  0  0
   26.3390   20.9330   15.4880 C   0  0  0  0  0  0  0  0  0  0  0  0
   26.8690   20.1620   16.6740 C   0  0  0  0  0  0  0  0  0  0  0  0
   27.3510   20.7200   17.6560 O   0  0  0  0  0  0  0  0  0  0  0  0
   26.7110   18.7990   16.6450 N   0  0  0  0  0  0  0  0  0  0  0  0
   26.0670   18.0430   15.6930 C   0  0  0  0  0  0  0  0  0  0  0  0
   25.8710   16.8410   15.8780 O   0  0  0  0  0  0  0  0  0  0  0  0
   24.2260   17.2730   12.9650 C   0  0  0  0  0  0  0  0  0  0  0  0
   23.2040   17.1330   13.6060 O   0  0  0  0  0  0  0  0  0  0  0  0
   22.0570   16.5180    6.8720 C   0  0  0  0  0  0  0  0  0  0  0  0
   21.0090   17.2820    6.6400 N   0  0  0  0  0  0  0  0  0  0  0  0
   18.9504   19.6134    8.5356 H   0  0  0  0  0  0  0  0  0  0  0  0
   19.8320   19.3891    6.9867 H   0  0  0  0  0  0  0  0  0  0  0  0
   18.0430   19.5504    6.9867 H   0  0  0  0  0  0  0  0  0  0  0  0
   18.2977   17.4214    8.6443 H   0  0  0  0  0  0  0  0  0  0  0  0
   18.1626   17.2807    6.8389 H   0  0  0  0  0  0  0  0  0  0  0  0
   20.1249   15.5393    9.3455 H   0  0  0  0  0  0  0  0  0  0  0  0
   22.6186   15.6351   11.2227 H   0  0  0  0  0  0  0  0  0  0  0  0
   27.0917   17.2067    9.5340 H   0  0  0  0  0  0  0  0  0  0  0  0
   27.0789   14.0323    8.3833 H   0  0  0  0  0  0  0  0  0  0  0  0
   27.7943   13.6017    6.0472 H   0  0  0  0  0  0  0  0  0  0  0  0
   25.3884   16.7233    4.6677 H   0  0  0  0  0  0  0  0  0  0  0  0
   27.3094   17.6420   12.4772 H   0  0  0  0  0  0  0  0  0  0  0  0
   26.5054   19.0741   11.8773 H   0  0  0  0  0  0  0  0  0  0  0  0
   24.4887   19.1519   14.7076 H   0  0  0  0  0  0  0  0  0  0  0  0
   27.3637   19.7974   13.9695 H   0  0  0  0  0  0  0  0  0  0  0  0
   25.8870   20.6440   13.3997 H   0  0  0  0  0  0  0  0  0  0  0  0
   26.9768   21.8130   15.3186 H   0  0  0  0  0  0  0  0  0  0  0  0
   25.3049   21.2382   15.7061 H   0  0  0  0  0  0  0  0  0  0  0  0
   27.1250   18.2788   17.4317 H   0  0  0  0  0  0  0  0  0  0  0  0
   22.9944   16.5491    6.2974 H   0  0  0  0  0  0  0  0  0  0  0  0
  1  2  1  0
  2  3  1  0
  3  4  2  0
  4  5  1  0
  5  6  1  0
  6  7  2  0
  6  8  2  0
  6  9  1  0
  9 10  2  0
 10 11  1  0
 11 12  2  0
 12 13  1  0
 13 14  2  0
 14 15  1  0
 15 16  2  0
 16 17  1  0
 17 18  2  0
 18 19  1  0
 19 20  2  0
 12 21  1  0
 21 22  1  0
 22 23  1  0
 23 24  1  0
 24 25  1  0
 25 26  1  0
 26 27  2  0
 26 28  1  0
 28 29  1  0
 29 30  2  0
 22 31  1  0
 31 32  2  0
  5 33  1  0
 33 34  2  0
 34  3  1  0
 14  9  1  0
 20 15  1  0
 29 23  1  0
 31 11  1  0
  1 35  1  0
  1 36  1  0
  1 37  1  0
  2 38  1  0
  2 39  1  0
  4 40  1  0
 10 41  1  0
 13 42  1  0
 16 43  1  0
 17 44  1  0
 19 45  1  0
 21 46  1  0
 21 47  1  0
 23 48  1  1
 24 49  1  0
 24 50  1  0
 25 51  1  0
 25 52  1  0
 28 53  1  0
 33 54  1  0
M  END
>  <meeko>  (1138) 
{"is_sidechain": [true], "free_energy": -10.24, "intermolecular_energy": 0.0, "internal_energy": -10.24, "cluster_size": 19, "cluster_id": 2, "rank_in_cluster": 1}

>  <_RMSD_MCS_to_ref>  (1138) 
1.7415398199422385

$$$$
ligand
     RDKit          3D

 54 58  0  0  0  0  0  0  0  0999 V2000
   18.9090   19.1540    7.5370 C   0  0  0  0  0  0  0  0  0  0  0  0
   18.7730   17.6460    7.6780 C   0  0  0  0  0  0  0  0  0  0  0  0
   19.6340   16.9120    6.7110 C   0  0  0  0  0  0  0  0  0  0  0  0
   20.8830   16.3570    6.9060 C   0  0  0  0  0  0  0  0  0  0  0  0
   21.2050   15.8220    5.6910 N   0  0  0  0  0  0  0  0  0  0  0  0
   22.5310   14.8420    5.3740 S   0  0  0  0  0  6  0  0  0  0  0  0
   22.8630   15.0800    3.9790 O   0  0  0  0  0  0  0  0  0  0  0  0
   22.2030   13.5270    5.8860 O   0  0  0  0  0  0  0  0  0  0  0  0
   23.8260   15.5350    6.3660 C   0  0  0  0  0  0  0  0  0  0  0  0
   25.0170   15.9460    5.7460 C   0  0  0  0  0  0  0  0  0  0  0  0
   26.0620   16.4760    6.5000 C   0  0  0  0  0  0  0  0  0  0  0  0
   25.9440   16.6200    7.8870 C   0  0  0  0  0  0  0  0  0  0  0  0
   24.7490   16.2350    8.5300 C   0  0  0  0  0  0  0  0  0  0  0  0
   23.7160   15.7080    7.7570 C   0  0  0  0  0  0  0  0  0  0  0  0
   22.6710   15.4340    8.6140 N   0  0  0  0  0  0  0  0  0  0  0  0
   23.0030   15.7490    9.9080 C   0  0  0  0  0  0  0  0  0  0  0  0
   22.2650   15.6310   11.0800 C   0  0  0  0  0  0  0  0  0  0  0  0
   22.8230   16.0170   12.2480 N   0  0  0  0  0  0  0  0  0  0  0  0
   24.0920   16.5120   12.2360 C   0  0  0  0  0  0  0  0  0  0  0  0
   24.6480   16.9150   13.5700 C   0  0  0  0  0  0  0  0  0  0  0  0
   24.8870   16.0940   14.4490 O   0  0  0  0  0  0  0  0  0  0  0  0
   24.8480   18.2690   13.7200 N   0  0  0  0  0  0  0  0  0  0  0  0
   25.2220   18.8700   14.9860 C   0  0  1  0  0  0  0  0  0  0  0  0
   26.3550   18.1050   15.6660 C   0  0  0  0  0  0  0  0  0  0  0  0
   26.7130   18.7880   16.9770 C   0  0  0  0  0  0  0  0  0  0  0  0
   27.0690   20.2390   16.7590 C   0  0  0  0  0  0  0  0  0  0  0  0
   27.9030   20.8230   17.4460 O   0  0  0  0  0  0  0  0  0  0  0  0
   26.3860   20.8980   15.7680 N   0  0  0  0  0  0  0  0  0  0  0  0
   25.6680   20.3170   14.7500 C   0  0  0  0  0  0  0  0  0  0  0  0
   25.3940   20.9520   13.7330 O   0  0  0  0  0  0  0  0  0  0  0  0
   24.8800   16.6560   11.1020 C   0  0  0  0  0  0  0  0  0  0  0  0
   24.3020   16.2540    9.8890 C   0  0  0  0  0  0  0  0  0  0  0  0
   20.1750   16.0200    4.8300 C   0  0  0  0  0  0  0  0  0  0  0  0
   19.2040   16.6870    5.4170 N   0  0  0  0  0  0  0  0  0  0  0  0
   18.9504   19.6134    8.5356 H   0  0  0  0  0  0  0  0  0  0  0  0
   19.8320   19.3891    6.9867 H   0  0  0  0  0  0  0  0  0  0  0  0
   18.0430   19.5504    6.9867 H   0  0  0  0  0  0  0  0  0  0  0  0
   19.0621   17.3580    8.6995 H   0  0  0  0  0  0  0  0  0  0  0  0
   17.7264   17.3798    7.4686 H   0  0  0  0  0  0  0  0  0  0  0  0
   21.4819   16.3477    7.8286 H   0  0  0  0  0  0  0  0  0  0  0  0
   25.1259   15.8487    4.6557 H   0  0  0  0  0  0  0  0  0  0  0  0
   26.9912   16.7850    5.9989 H   0  0  0  0  0  0  0  0  0  0  0  0
   26.7791   17.0314    8.4730 H   0  0  0  0  0  0  0  0  0  0  0  0
   21.7630   15.0451    8.3222 H   0  0  0  0  0  0  0  0  0  0  0  0
   21.2413   15.2291   11.0566 H   0  0  0  0  0  0  0  0  0  0  0  0
   24.7271   18.8801   12.8997 H   0  0  0  0  0  0  0  0  0  0  0  0
   24.3424   18.8373   15.6457 H   0  0  0  0  0  0  0  0  0  0  0  0
   26.0318   17.0729   15.8666 H   0  0  0  0  0  0  0  0  0  0  0  0
   27.2357   18.0920   15.0070 H   0  0  0  0  0  0  0  0  0  0  0  0
   25.8520   18.7286   17.6590 H   0  0  0  0  0  0  0  0  0  0  0  0
   27.5863   18.2767   17.4082 H   0  0  0  0  0  0  0  0  0  0  0  0
   26.4140   21.9274   15.7890 H   0  0  0  0  0  0  0  0  0  0  0  0
   25.9008   17.0627   11.1521 H   0  0  0  0  0  0  0  0  0  0  0  0
   20.1545   15.6716    3.7868 H   0  0  0  0  0  0  0  0  0  0  0  0
  1  2  1  0
  2  3  1  0
  3  4  2  0
  4  5  1  0
  5  6  1  0
  6  7  2  0
  6  8  2  0
  6  9  1  0
  9 10  2  0
 10 11  1  0
 11 12  2  0
 12 13  1  0
 13 14  2  0
 14 15  1  0
 15 16  1  0
 16 17  2  0
 17 18  1  0
 18 19  2  0
 19 20  1  0
 20 21  2  0
 20 22  1  0
 22 23  1  0
 23 24  1  0
 24 25  1  0
 25 26  1  0
 26 27  2  0
 26 28  1  0
 28 29  1  0
 29 30  2  0
 19 31  1  0
 31 32  2  0
  5 33  1  0
 33 34  2  0
 34  3  1  0
 14  9  1  0
 32 16  1  0
 32 13  1  0
 29 23  1  0
  1 35  1  0
  1 36  1  0
  1 37  1  0
  2 38  1  0
  2 39  1  0
  4 40  1  0
 10 41  1  0
 11 42  1  0
 12 43  1  0
 15 44  1  0
 17 45  1  0
 22 46  1  0
 23 47  1  1
 24 48  1  0
 24 49  1  0
 25 50  1  0
 25 51  1  0
 28 52  1  0
 31 53  1  0
 33 54  1  0
M  END
>  <meeko>  (1139) 
{"is_sidechain": [true], "free_energy": -10.24, "intermolecular_energy": 0.0, "internal_energy": -10.24, "cluster_size": 10, "cluster_id": 1, "rank_in_cluster": 1}

>  <_RMSD_MCS_to_ref>  (1139) 
0.751939575364936

$$$$
ligand
     RDKit          3D

 47 50  0  0  0  0  0  0  0  0999 V2000
   18.8250   19.0170    7.5350 C   0  0  0  0  0  0  0  0  0  0  0  0
   18.5200   17.5420    7.7330 C   0  0  0  0  0  0  0  0  0  0  0  0
   19.7050   16.7820    8.2180 C   0  0  0  0  0  0  0  0  0  0  0  0
   20.2820   16.7830    9.4730 C   0  0  0  0  0  0  0  0  0  0  0  0
   21.3270   15.9100    9.3630 N   0  0  0  0  0  0  0  0  0  0  0  0
   22.4270   15.5450   10.5780 S   0  0  0  0  0  6  0  0  0  0  0  0
   23.4160   14.7270    9.8960 O   0  0  0  0  0  0  0  0  0  0  0  0
   22.7900   16.7920   11.2170 O   0  0  0  0  0  0  0  0  0  0  0  0
   21.5860   14.5070   11.7510 C   0  0  0  0  0  0  0  0  0  0  0  0
   20.9110   13.3880   11.2310 C   0  0  0  0  0  0  0  0  0  0  0  0
   20.1840   12.5450   12.0700 C   0  0  0  0  0  0  0  0  0  0  0  0
   20.1270   12.8080   13.4350 C   0  0  0  0  0  0  0  0  0  0  0  0
   20.8030   13.9120   13.9600 C   0  0  0  0  0  0  0  0  0  0  0  0
   21.5440   14.7700   13.1290 C   0  0  0  0  0  0  0  0  0  0  0  0
   22.2410   15.8630   13.7550 C   0  0  0  0  0  0  0  0  0  0  0  0
   23.5960   16.0940   13.6970 C   0  0  0  0  0  0  0  0  0  0  0  0
   23.7720   17.1820   14.5070 N   0  0  0  0  0  0  0  0  0  0  0  0
   25.0280   17.7530   14.9600 C   0  0  2  0  0  0  0  0  0  0  0  0
   25.1140   17.9230   16.4800 C   0  0  0  0  0  0  0  0  0  0  0  0
   26.4630   18.5130   16.8550 C   0  0  0  0  0  0  0  0  0  0  0  0
   26.6920   19.8270   16.1480 C   0  0  0  0  0  0  0  0  0  0  0  0
   27.4960   20.6610   16.5530 O   0  0  0  0  0  0  0  0  0  0  0  0
   26.0160   20.0110   14.9680 N   0  0  0  0  0  0  0  0  0  0  0  0
   25.2930   19.0760   14.2600 C   0  0  0  0  0  0  0  0  0  0  0  0
   24.9820   19.3010   13.0920 O   0  0  0  0  0  0  0  0  0  0  0  0
   22.5890   17.6320   14.9710 N   0  0  0  0  0  0  0  0  0  0  0  0
   21.6450   16.8120   14.5310 N   0  0  0  0  0  0  0  0  0  0  0  0
   21.3360   15.3830    8.1100 C   0  0  0  0  0  0  0  0  0  0  0  0
   20.3880   15.9290    7.3720 N   0  0  0  0  0  0  0  0  0  0  0  0
   18.9260   19.5054    8.5155 H   0  0  0  0  0  0  0  0  0  0  0  0
   19.7645   19.1250    6.9731 H   0  0  0  0  0  0  0  0  0  0  0  0
   18.0054   19.4887    6.9731 H   0  0  0  0  0  0  0  0  0  0  0  0
   17.7101   17.4438    8.4709 H   0  0  0  0  0  0  0  0  0  0  0  0
   18.2271   17.1243    6.7585 H   0  0  0  0  0  0  0  0  0  0  0  0
   19.9710   17.3560   10.3589 H   0  0  0  0  0  0  0  0  0  0  0  0
   20.9572   13.1762   10.1526 H   0  0  0  0  0  0  0  0  0  0  0  0
   19.6567   11.6739   11.6539 H   0  0  0  0  0  0  0  0  0  0  0  0
   19.5506   12.1477   14.0997 H   0  0  0  0  0  0  0  0  0  0  0  0
   20.7547   14.1130   15.0404 H   0  0  0  0  0  0  0  0  0  0  0  0
   24.3576   15.5358   13.1327 H   0  0  0  0  0  0  0  0  0  0  0  0
   25.8099   17.0282   14.6892 H   0  0  0  0  0  0  0  0  0  0  0  0
   24.3135   18.5974   16.8182 H   0  0  0  0  0  0  0  0  0  0  0  0
   24.9994   16.9413   16.9629 H   0  0  0  0  0  0  0  0  0  0  0  0
   26.4939   18.6788   17.9420 H   0  0  0  0  0  0  0  0  0  0  0  0
   27.2512   17.8085   16.5511 H   0  0  0  0  0  0  0  0  0  0  0  0
   26.0535   20.9581   14.5648 H   0  0  0  0  0  0  0  0  0  0  0  0
   22.0356   14.6096    7.7602 H   0  0  0  0  0  0  0  0  0  0  0  0
  1  2  1  0
  2  3  1  0
  3  4  2  0
  4  5  1  0
  5  6  1  0
  6  7  2  0
  6  8  2  0
  6  9  1  0
  9 10  2  0
 10 11  1  0
 11 12  2  0
 12 13  1  0
 13 14  2  0
 14 15  1  0
 15 16  2  0
 16 17  1  0
 17 18  1  0
 18 19  1  0
 19 20  1  0
 20 21  1  0
 21 22  2  0
 21 23  1  0
 23 24  1  0
 24 25  2  0
 17 26  1  0
 26 27  2  0
  5 28  1  0
 28 29  2  0
 29  3  1  0
 14  9  1  0
 27 15  1  0
 24 18  1  0
  1 30  1  0
  1 31  1  0
  1 32  1  0
  2 33  1  0
  2 34  1  0
  4 35  1  0
 10 36  1  0
 11 37  1  0
 12 38  1  0
 13 39  1  0
 16 40  1  0
 18 41  1  6
 19 42  1  0
 19 43  1  0
 20 44  1  0
 20 45  1  0
 23 46  1  0
 28 47  1  0
M  END
>  <meeko>  (1140) 
{"is_sidechain": [true], "free_energy": -10.23, "intermolecular_energy": 0.0, "internal_energy": -10.23, "cluster_size": 19, "cluster_id": 1, "rank_in_cluster": 1}

>  <_RMSD_MCS_to_ref>  (1140) 
0.7264870573137866

$$$$
ligand
     RDKit          3D

 48 51  0  0  0  0  0  0  0  0999 V2000
   18.7970   18.8170    7.7190 C   0  0  0  0  0  0  0  0  0  0  0  0
   18.5280   17.3290    7.8810 C   0  0  0  0  0  0  0  0  0  0  0  0
   19.7700   16.5180    7.7770 C   0  0  0  0  0  0  0  0  0  0  0  0
   20.3630   15.7110    8.7290 C   0  0  0  0  0  0  0  0  0  0  0  0
   21.4760   15.2230    8.1070 N   0  0  0  0  0  0  0  0  0  0  0  0
   22.5070   14.0490    8.7250 S   0  0  0  0  0  6  0  0  0  0  0  0
   21.6740   13.0960    9.4320 O   0  0  0  0  0  0  0  0  0  0  0  0
   23.3420   13.6610    7.6030 O   0  0  0  0  0  0  0  0  0  0  0  0
   23.4960   14.9130    9.8860 C   0  0  0  0  0  0  0  0  0  0  0  0
   24.7470   15.4560    9.5090 C   0  0  0  0  0  0  0  0  0  0  0  0
   25.5910   16.1840   10.4020 C   0  0  0  0  0  0  0  0  0  0  0  0
   25.2650   16.4310   11.7600 C   0  0  0  0  0  0  0  0  0  0  0  0
   26.1710   17.1960   12.6390 C   0  0  0  0  0  0  0  0  0  0  0  0
   27.1490   17.7610   12.1630 O   0  0  0  0  0  0  0  0  0  0  0  0
   25.8560   17.2390   13.9740 N   0  0  0  0  0  0  0  0  0  0  0  0
   26.6080   18.0390   14.9240 C   0  0  2  0  0  0  0  0  0  0  0  0
   26.1140   17.8310   16.3540 C   0  0  0  0  0  0  0  0  0  0  0  0
   26.9310   18.6920   17.3040 C   0  0  0  0  0  0  0  0  0  0  0  0
   26.8850   20.1460   16.9020 C   0  0  0  0  0  0  0  0  0  0  0  0
   26.9160   21.0580   17.7240 O   0  0  0  0  0  0  0  0  0  0  0  0
   26.8370   20.4110   15.5570 N   0  0  0  0  0  0  0  0  0  0  0  0
   26.4860   19.5250   14.5660 C   0  0  0  0  0  0  0  0  0  0  0  0
   26.1230   19.9320   13.4640 O   0  0  0  0  0  0  0  0  0  0  0  0
   24.0290   15.8850   12.1700 C   0  0  0  0  0  0  0  0  0  0  0  0
   23.4110   15.9140   13.3670 N   0  0  0  0  0  0  0  0  0  0  0  0
   22.2650   15.2320   13.1930 N   0  0  0  0  0  0  0  0  0  0  0  0
   22.0930   14.7480   11.9280 C   0  0  0  0  0  0  0  0  0  0  0  0
   23.1980   15.1540   11.2300 C   0  0  0  0  0  0  0  0  0  0  0  0
   21.5320   15.7110    6.8420 C   0  0  0  0  0  0  0  0  0  0  0  0
   20.5030   16.4980    6.6060 N   0  0  0  0  0  0  0  0  0  0  0  0
   18.8815   19.2845    8.7111 H   0  0  0  0  0  0  0  0  0  0  0  0
   19.7359   18.9616    7.1643 H   0  0  0  0  0  0  0  0  0  0  0  0
   17.9682   19.2812    7.1643 H   0  0  0  0  0  0  0  0  0  0  0  0
   18.0742   17.1567    8.8681 H   0  0  0  0  0  0  0  0  0  0  0  0
   17.8533   17.0180    7.0698 H   0  0  0  0  0  0  0  0  0  0  0  0
   20.0174   15.5082    9.7534 H   0  0  0  0  0  0  0  0  0  0  0  0
   25.0875   15.3097    8.4733 H   0  0  0  0  0  0  0  0  0  0  0  0
   26.5445   16.5738   10.0161 H   0  0  0  0  0  0  0  0  0  0  0  0
   25.0577   16.6840   14.3141 H   0  0  0  0  0  0  0  0  0  0  0  0
   27.6585   17.7175   14.8686 H   0  0  0  0  0  0  0  0  0  0  0  0
   25.0538   18.1165   16.4206 H   0  0  0  0  0  0  0  0  0  0  0  0
   26.2273   16.7723   16.6302 H   0  0  0  0  0  0  0  0  0  0  0  0
   26.5249   18.5882   18.3210 H   0  0  0  0  0  0  0  0  0  0  0  0
   27.9771   18.3540   17.2668 H   0  0  0  0  0  0  0  0  0  0  0  0
   27.0880   21.3651   15.2611 H   0  0  0  0  0  0  0  0  0  0  0  0
   21.5782   15.0877   13.9469 H   0  0  0  0  0  0  0  0  0  0  0  0
   21.2458   14.1570   11.5499 H   0  0  0  0  0  0  0  0  0  0  0  0
   22.3256   15.4814    6.1157 H   0  0  0  0  0  0  0  0  0  0  0  0
  1  2  1  0
  2  3  1  0
  3  4  2  0
  4  5  1  0
  5  6  1  0
  6  7  2  0
  6  8  2  0
  6  9  1  0
  9 10  2  0
 10 11  1  0
 11 12  2  0
 12 13  1  0
 13 14  2  0
 13 15  1  0
 15 16  1  0
 16 17  1  0
 17 18  1  0
 18 19  1  0
 19 20  2  0
 19 21  1  0
 21 22  1  0
 22 23  2  0
 12 24  1  0
 24 25  2  0
 25 26  1  0
 26 27  1  0
 27 28  2  0
  5 29  1  0
 29 30  2  0
 30  3  1  0
 28  9  1  0
 22 16  1  0
 28 24  1  0
  1 31  1  0
  1 32  1  0
  1 33  1  0
  2 34  1  0
  2 35  1  0
  4 36  1  0
 10 37  1  0
 11 38  1  0
 15 39  1  0
 16 40  1  1
 17 41  1  0
 17 42  1  0
 18 43  1  0
 18 44  1  0
 21 45  1  0
 26 46  1  0
 27 47  1  0
 29 48  1  0
M  END
>  <meeko>  (1141) 
{"is_sidechain": [true], "free_energy": -10.23, "intermolecular_energy": 0.0, "internal_energy": -10.23, "cluster_size": 14, "cluster_id": 1, "rank_in_cluster": 1}

>  <_RMSD_MCS_to_ref>  (1141) 
0.9648575600113788

$$$$
ligand
     RDKit          3D

 47 50  0  0  0  0  0  0  0  0999 V2000
   18.7970   18.8170    7.7190 C   0  0  0  0  0  0  0  0  0  0  0  0
   18.5280   17.3290    7.8810 C   0  0  0  0  0  0  0  0  0  0  0  0
   19.7670   16.5160    7.7540 C   0  0  0  0  0  0  0  0  0  0  0  0
   20.6520   16.1210    8.7390 C   0  0  0  0  0  0  0  0  0  0  0  0
   21.5830   15.3760    8.0730 N   0  0  0  0  0  0  0  0  0  0  0  0
   23.0290   14.8220    8.7090 S   0  0  0  0  0  6  0  0  0  0  0  0
   23.1700   13.4420    8.2980 O   0  0  0  0  0  0  0  0  0  0  0  0
   24.0250   15.8400    8.4400 O   0  0  0  0  0  0  0  0  0  0  0  0
   22.9080   14.7730   10.4710 C   0  0  0  0  0  0  0  0  0  0  0  0
   23.7450   15.1940   11.4950 C   0  0  0  0  0  0  0  0  0  0  0  0
   23.1180   14.8930   12.7360 C   0  0  0  0  0  0  0  0  0  0  0  0
   23.3930   15.0330   14.0970 C   0  0  0  0  0  0  0  0  0  0  0  0
   24.6490   15.6510   14.6000 C   0  0  0  0  0  0  0  0  0  0  0  0
   25.7100   15.0390   14.6330 O   0  0  0  0  0  0  0  0  0  0  0  0
   24.5200   16.9600   15.0090 N   0  0  0  0  0  0  0  0  0  0  0  0
   25.6590   17.7810   15.3750 C   0  0  2  0  0  0  0  0  0  0  0  0
   25.9100   17.7740   16.8790 C   0  0  0  0  0  0  0  0  0  0  0  0
   27.0980   18.6670   17.2010 C   0  0  0  0  0  0  0  0  0  0  0  0
   26.8910   20.0670   16.6730 C   0  0  0  0  0  0  0  0  0  0  0  0
   27.3310   21.0580   17.2480 O   0  0  0  0  0  0  0  0  0  0  0  0
   26.2080   20.1820   15.4890 N   0  0  0  0  0  0  0  0  0  0  0  0
   25.4080   19.2230   14.9180 C   0  0  0  0  0  0  0  0  0  0  0  0
   24.5600   19.5250   14.0800 O   0  0  0  0  0  0  0  0  0  0  0  0
   22.4930   14.5990   15.0250 N   0  0  0  0  0  0  0  0  0  0  0  0
   21.3560   14.0420   14.5720 C   0  0  0  0  0  0  0  0  0  0  0  0
   20.9860   13.8510   13.2940 N   0  0  0  0  0  0  0  0  0  0  0  0
   21.9060   14.2990   12.4300 C   0  0  0  0  0  0  0  0  0  0  0  0
   21.7890   14.2390   11.0710 N   0  0  0  0  0  0  0  0  0  0  0  0
   21.2980   15.3890    6.7460 C   0  0  0  0  0  0  0  0  0  0  0  0
   20.1860   16.0580    6.5200 N   0  0  0  0  0  0  0  0  0  0  0  0
   18.8815   19.2845    8.7111 H   0  0  0  0  0  0  0  0  0  0  0  0
   19.7359   18.9616    7.1643 H   0  0  0  0  0  0  0  0  0  0  0  0
   17.9682   19.2812    7.1643 H   0  0  0  0  0  0  0  0  0  0  0  0
   18.0903   17.1545    8.8750 H   0  0  0  0  0  0  0  0  0  0  0  0
   17.8394   17.0216    7.0802 H   0  0  0  0  0  0  0  0  0  0  0  0
   20.6151   16.3534    9.8135 H   0  0  0  0  0  0  0  0  0  0  0  0
   24.7250   15.6774   11.3687 H   0  0  0  0  0  0  0  0  0  0  0  0
   23.5774   17.3725   15.0569 H   0  0  0  0  0  0  0  0  0  0  0  0
   26.5477   17.3616   14.8807 H   0  0  0  0  0  0  0  0  0  0  0  0
   25.0175   18.1494   17.4010 H   0  0  0  0  0  0  0  0  0  0  0  0
   26.1244   16.7469   17.2093 H   0  0  0  0  0  0  0  0  0  0  0  0
   27.2277   18.7112   18.2924 H   0  0  0  0  0  0  0  0  0  0  0  0
   27.9917   18.2430   16.7198 H   0  0  0  0  0  0  0  0  0  0  0  0
   26.3043   21.0722   14.9799 H   0  0  0  0  0  0  0  0  0  0  0  0
   20.6440   13.7022   15.3385 H   0  0  0  0  0  0  0  0  0  0  0  0
   20.9796   13.8500   10.5665 H   0  0  0  0  0  0  0  0  0  0  0  0
   21.9098   14.9083    5.9684 H   0  0  0  0  0  0  0  0  0  0  0  0
  1  2  1  0
  2  3  1  0
  3  4  2  0
  4  5  1  0
  5  6  1  0
  6  7  2  0
  6  8  2  0
  6  9  1  0
  9 10  2  0
 10 11  1  0
 11 12  2  0
 12 13  1  0
 13 14  2  0
 13 15  1  0
 15 16  1  0
 16 17  1  0
 17 18  1  0
 18 19  1  0
 19 20  2  0
 19 21  1  0
 21 22  1  0
 22 23  2  0
 12 24  1  0
 24 25  2  0
 25 26  1  0
 26 27  2  0
 27 28  1  0
  5 29  1  0
 29 30  2  0
 30  3  1  0
 28  9  1  0
 27 11  1  0
 22 16  1  0
  1 31  1  0
  1 32  1  0
  1 33  1  0
  2 34  1  0
  2 35  1  0
  4 36  1  0
 10 37  1  0
 15 38  1  0
 16 39  1  6
 17 40  1  0
 17 41  1  0
 18 42  1  0
 18 43  1  0
 21 44  1  0
 25 45  1  0
 28 46  1  0
 29 47  1  0
M  END
>  <meeko>  (1142) 
{"is_sidechain": [true], "free_energy": -10.23, "intermolecular_energy": 0.0, "internal_energy": -10.23, "cluster_size": 18, "cluster_id": 1, "rank_in_cluster": 1}

>  <_RMSD_MCS_to_ref>  (1142) 
0.7468659704242645

$$$$
ligand
     RDKit          3D

 46 49  0  0  0  0  0  0  0  0999 V2000
   18.7970   18.8170    7.7190 C   0  0  0  0  0  0  0  0  0  0  0  0
   18.5280   17.3290    7.8810 C   0  0  0  0  0  0  0  0  0  0  0  0
   19.7790   16.5240    7.8260 C   0  0  0  0  0  0  0  0  0  0  0  0
   20.4270   15.8540    8.8450 C   0  0  0  0  0  0  0  0  0  0  0  0
   21.5020   15.2730    8.2350 N   0  0  0  0  0  0  0  0  0  0  0  0
   22.7900   14.5380    9.0140 S   0  0  0  0  0  6  0  0  0  0  0  0
   23.0190   13.2850    8.3240 O   0  0  0  0  0  0  0  0  0  0  0  0
   23.8060   15.5580    9.1680 O   0  0  0  0  0  0  0  0  0  0  0  0
   22.3560   14.0940   10.6140 C   0  0  0  0  0  0  0  0  0  0  0  0
   21.2790   13.2890   10.9760 C   0  0  0  0  0  0  0  0  0  0  0  0
   21.1680   13.0690   12.7090 S   0  0  0  0  0  0  0  0  0  0  0  0
   22.5130   14.0230   12.9080 C   0  0  0  0  0  0  0  0  0  0  0  0
   23.2560   14.4790   13.9390 N   0  0  0  0  0  0  0  0  0  0  0  0
   24.2920   15.2630   13.4230 C   0  0  0  0  0  0  0  0  0  0  0  0
   25.2510   15.8910   14.3050 C   0  0  0  0  0  0  0  0  0  0  0  0
   26.0250   15.2400   14.9990 O   0  0  0  0  0  0  0  0  0  0  0  0
   25.2450   17.2630   14.3040 N   0  0  0  0  0  0  0  0  0  0  0  0
   26.2430   18.0310   15.0310 C   0  0  2  0  0  0  0  0  0  0  0  0
   26.1380   17.8340   16.5400 C   0  0  0  0  0  0  0  0  0  0  0  0
   27.1830   18.6890   17.2380 C   0  0  0  0  0  0  0  0  0  0  0  0
   27.0510   20.1430   16.8500 C   0  0  0  0  0  0  0  0  0  0  0  0
   27.3040   21.0580   17.6280 O   0  0  0  0  0  0  0  0  0  0  0  0
   26.6600   20.4030   15.5610 N   0  0  0  0  0  0  0  0  0  0  0  0
   26.0470   19.5160   14.7100 C   0  0  0  0  0  0  0  0  0  0  0  0
   25.3940   19.9090   13.7430 O   0  0  0  0  0  0  0  0  0  0  0  0
   24.1510   15.2740   12.0300 C   0  0  0  0  0  0  0  0  0  0  0  0
   23.0330   14.4880   11.7670 C   0  0  0  0  0  0  0  0  0  0  0  0
   21.5150   15.6300    6.9250 C   0  0  0  0  0  0  0  0  0  0  0  0
   20.4750   16.3850    6.6420 N   0  0  0  0  0  0  0  0  0  0  0  0
   18.8815   19.2845    8.7111 H   0  0  0  0  0  0  0  0  0  0  0  0
   19.7359   18.9616    7.1643 H   0  0  0  0  0  0  0  0  0  0  0  0
   17.9682   19.2812    7.1643 H   0  0  0  0  0  0  0  0  0  0  0  0
   18.0404   17.1605    8.8525 H   0  0  0  0  0  0  0  0  0  0  0  0
   17.8828   17.0092    7.0495 H   0  0  0  0  0  0  0  0  0  0  0  0
   20.1422   15.8005    9.9061 H   0  0  0  0  0  0  0  0  0  0  0  0
   20.5781   12.8424   10.2553 H   0  0  0  0  0  0  0  0  0  0  0  0
   23.0881   14.2826   14.9361 H   0  0  0  0  0  0  0  0  0  0  0  0
   24.5152   17.7615   13.7750 H   0  0  0  0  0  0  0  0  0  0  0  0
   27.2368   17.6798   14.7162 H   0  0  0  0  0  0  0  0  0  0  0  0
   25.1349   18.1316   16.8794 H   0  0  0  0  0  0  0  0  0  0  0  0
   26.3092   16.7751   16.7837 H   0  0  0  0  0  0  0  0  0  0  0  0
   27.0537   18.5954   18.3264 H   0  0  0  0  0  0  0  0  0  0  0  0
   28.1796   18.3373   16.9327 H   0  0  0  0  0  0  0  0  0  0  0  0
   26.8427   21.3496   15.1983 H   0  0  0  0  0  0  0  0  0  0  0  0
   24.7882   15.7933   11.2991 H   0  0  0  0  0  0  0  0  0  0  0  0
   22.2871   15.3300    6.2013 H   0  0  0  0  0  0  0  0  0  0  0  0
  1  2  1  0
  2  3  1  0
  3  4  2  0
  4  5  1  0
  5  6  1  0
  6  7  2  0
  6  8  2  0
  6  9  1  0
  9 10  2  0
 10 11  1  0
 11 12  1  0
 12 13  1  0
 13 14  1  0
 14 15  1  0
 15 16  2  0
 15 17  1  0
 17 18  1  0
 18 19  1  0
 19 20  1  0
 20 21  1  0
 21 22  2  0
 21 23  1  0
 23 24  1  0
 24 25  2  0
 14 26  2  0
 26 27  1  0
  5 28  1  0
 28 29  2  0
 29  3  1  0
 27  9  1  0
 27 12  2  0
 24 18  1  0
  1 30  1  0
  1 31  1  0
  1 32  1  0
  2 33  1  0
  2 34  1  0
  4 35  1  0
 10 36  1  0
 13 37  1  0
 17 38  1  0
 18 39  1  6
 19 40  1  0
 19 41  1  0
 20 42  1  0
 20 43  1  0
 23 44  1  0
 26 45  1  0
 28 46  1  0
M  END
>  <meeko>  (1143) 
{"is_sidechain": [true], "free_energy": -10.23, "intermolecular_energy": 0.0, "internal_energy": -10.23, "cluster_size": 14, "cluster_id": 1, "rank_in_cluster": 1}

>  <_RMSD_MCS_to_ref>  (1143) 
0.7106647123175123

$$$$
ligand
     RDKit          3D

 50 53  0  0  0  0  0  0  0  0999 V2000
   18.7970   18.8170    7.7190 C   0  0  0  0  0  0  0  0  0  0  0  0
   18.5280   17.3290    7.8810 C   0  0  0  0  0  0  0  0  0  0  0  0
   19.7740   16.5590    8.1480 C   0  0  0  0  0  0  0  0  0  0  0  0
   20.7460   16.1440    7.2580 C   0  0  0  0  0  0  0  0  0  0  0  0
   21.6660   15.5060    8.0410 N   0  0  0  0  0  0  0  0  0  0  0  0
   22.9820   14.6190    7.4940 S   0  0  0  0  0  6  0  0  0  0  0  0
   22.4660   13.8000    6.4140 O   0  0  0  0  0  0  0  0  0  0  0  0
   24.0410   15.5880    7.3000 O   0  0  0  0  0  0  0  0  0  0  0  0
   23.4930   13.5230    8.7950 C   0  0  0  0  0  0  0  0  0  0  0  0
   23.3780   12.1340    8.6430 C   0  0  0  0  0  0  0  0  0  0  0  0
   23.7800   11.2900    9.6740 C   0  0  0  0  0  0  0  0  0  0  0  0
   24.2950   11.8220   10.8530 C   0  0  0  0  0  0  0  0  0  0  0  0
   24.4190   13.2080   11.0260 C   0  0  0  0  0  0  0  0  0  0  0  0
   24.9390   13.7180   12.2210 C   0  0  0  0  0  0  0  0  0  0  0  0
   25.0500   15.0900   12.3690 C   0  0  0  0  0  0  0  0  0  0  0  0
   25.6060   15.6640   13.6360 C   0  0  0  0  0  0  0  0  0  0  0  0
   25.7870   14.9740   14.6320 O   0  0  0  0  0  0  0  0  0  0  0  0
   25.9000   17.0080   13.5760 N   0  0  0  0  0  0  0  0  0  0  0  0
   26.5860   17.7080   14.6460 C   0  0  2  0  0  0  0  0  0  0  0  0
   25.7880   17.6830   15.9450 C   0  0  0  0  0  0  0  0  0  0  0  0
   26.5470   18.4410   17.0230 C   0  0  0  0  0  0  0  0  0  0  0  0
   26.8610   19.8520   16.5840 C   0  0  0  0  0  0  0  0  0  0  0  0
   26.9110   20.7910   17.3730 O   0  0  0  0  0  0  0  0  0  0  0  0
   27.1250   20.0360   15.2510 N   0  0  0  0  0  0  0  0  0  0  0  0
   26.8270   19.1640   14.2310 C   0  0  0  0  0  0  0  0  0  0  0  0
   26.7830   19.5510   13.0660 O   0  0  0  0  0  0  0  0  0  0  0  0
   24.6830   15.9820   11.4160 N   0  0  0  0  0  0  0  0  0  0  0  0
   24.1840   15.4650   10.2680 C   0  0  0  0  0  0  0  0  0  0  0  0
   24.0180   14.0890    9.9940 C   0  0  0  0  0  0  0  0  0  0  0  0
   21.2420   15.5210    9.3320 C   0  0  0  0  0  0  0  0  0  0  0  0
   20.0870   16.1480    9.4280 N   0  0  0  0  0  0  0  0  0  0  0  0
   18.8815   19.2845    8.7111 H   0  0  0  0  0  0  0  0  0  0  0  0
   19.7359   18.9616    7.1643 H   0  0  0  0  0  0  0  0  0  0  0  0
   17.9682   19.2812    7.1643 H   0  0  0  0  0  0  0  0  0  0  0  0
   17.8344   17.1837    8.7224 H   0  0  0  0  0  0  0  0  0  0  0  0
   18.0970   16.9588    6.9391 H   0  0  0  0  0  0  0  0  0  0  0  0
   20.7729   16.2931    6.1685 H   0  0  0  0  0  0  0  0  0  0  0  0
   22.9713   11.7126    7.7118 H   0  0  0  0  0  0  0  0  0  0  0  0
   23.6906   10.1999    9.5571 H   0  0  0  0  0  0  0  0  0  0  0  0
   24.6093   11.1449   11.6609 H   0  0  0  0  0  0  0  0  0  0  0  0
   25.2540   13.0407   13.0285 H   0  0  0  0  0  0  0  0  0  0  0  0
   25.6217   17.5378   12.7377 H   0  0  0  0  0  0  0  0  0  0  0  0
   27.5421   17.1941   14.8240 H   0  0  0  0  0  0  0  0  0  0  0  0
   24.8094   18.1584   15.7830 H   0  0  0  0  0  0  0  0  0  0  0  0
   25.6418   16.6407   16.2646 H   0  0  0  0  0  0  0  0  0  0  0  0
   25.9330   18.4777   17.9350 H   0  0  0  0  0  0  0  0  0  0  0  0
   27.4955   17.9174   17.2132 H   0  0  0  0  0  0  0  0  0  0  0  0
   27.5931   20.9149   14.9879 H   0  0  0  0  0  0  0  0  0  0  0  0
   23.8830   16.1753    9.4839 H   0  0  0  0  0  0  0  0  0  0  0  0
   21.7858   15.0733   10.1769 H   0  0  0  0  0  0  0  0  0  0  0  0
  1  2  1  0
  2  3  1  0
  3  4  2  0
  4  5  1  0
  5  6  1  0
  6  7  2  0
  6  8  2  0
  6  9  1  0
  9 10  2  0
 10 11  1  0
 11 12  2  0
 12 13  1  0
 13 14  2  0
 14 15  1  0
 15 16  1  0
 16 17  2  0
 16 18  1  0
 18 19  1  0
 19 20  1  0
 20 21  1  0
 21 22  1  0
 22 23  2  0
 22 24  1  0
 24 25  1  0
 25 26  2  0
 15 27  2  0
 27 28  1  0
 28 29  2  0
  5 30  1  0
 30 31  2  0
 31  3  1  0
 29  9  1  0
 29 13  1  0
 25 19  1  0
  1 32  1  0
  1 33  1  0
  1 34  1  0
  2 35  1  0
  2 36  1  0
  4 37  1  0
 10 38  1  0
 11 39  1  0
 12 40  1  0
 14 41  1  0
 18 42  1  0
 19 43  1  1
 20 44  1  0
 20 45  1  0
 21 46  1  0
 21 47  1  0
 24 48  1  0
 28 49  1  0
 30 50  1  0
M  END
>  <meeko>  (1144) 
{"is_sidechain": [true], "free_energy": -10.23, "intermolecular_energy": 0.0, "internal_energy": -10.23, "cluster_size": 17, "cluster_id": 1, "rank_in_cluster": 1}

>  <_RMSD_MCS_to_ref>  (1144) 
1.1817506787248595

$$$$
ligand
     RDKit          3D

 53 57  0  0  0  0  0  0  0  0999 V2000
   18.9090   19.1540    7.5370 C   0  0  0  0  0  0  0  0  0  0  0  0
   18.7730   17.6460    7.6780 C   0  0  0  0  0  0  0  0  0  0  0  0
   20.0740   16.9460    7.5020 C   0  0  0  0  0  0  0  0  0  0  0  0
   20.5010   15.7580    8.0630 C   0  0  0  0  0  0  0  0  0  0  0  0
   21.7570   15.5850    7.5600 N   0  0  0  0  0  0  0  0  0  0  0  0
   22.7410   14.2420    7.7550 S   0  0  0  0  0  6  0  0  0  0  0  0
   22.0500   13.4180    8.7270 O   0  0  0  0  0  0  0  0  0  0  0  0
   23.0670   13.7780    6.4190 O   0  0  0  0  0  0  0  0  0  0  0  0
   24.2950   14.7370    8.4710 C   0  0  0  0  0  0  0  0  0  0  0  0
   25.6130   14.8020    7.3710 S   0  0  0  0  0  0  0  0  0  0  0  0
   26.7050   15.2970    8.5830 C   0  0  0  0  0  0  0  0  0  0  0  0
   26.0840   15.4410    9.8020 C   0  0  0  0  0  0  0  0  0  0  0  0
   24.6880   15.1330    9.7410 C   0  0  0  0  0  0  0  0  0  0  0  0
   23.7690   15.2220   10.8600 C   0  0  0  0  0  0  0  0  0  0  0  0
   22.5950   14.4510   10.8660 C   0  0  0  0  0  0  0  0  0  0  0  0
   21.6970   14.5100   11.9490 C   0  0  0  0  0  0  0  0  0  0  0  0
   21.9600   15.3300   13.0440 C   0  0  0  0  0  0  0  0  0  0  0  0
   23.1280   16.0680   13.0180 C   0  0  0  0  0  0  0  0  0  0  0  0
   24.0340   16.0260   11.9570 C   0  0  0  0  0  0  0  0  0  0  0  0
   25.2100   16.8950   12.2650 C   0  0  0  0  0  0  0  0  0  0  0  0
   24.8260   17.5170   13.5260 N   0  0  0  0  0  0  0  0  0  0  0  0
   25.7490   18.2890   14.3510 C   0  0  2  0  0  0  0  0  0  0  0  0
   25.6640   17.9170   15.8280 C   0  0  0  0  0  0  0  0  0  0  0  0
   26.7140   18.6960   16.6050 C   0  0  0  0  0  0  0  0  0  0  0  0
   26.5650   20.1840   16.3860 C   0  0  0  0  0  0  0  0  0  0  0  0
   26.7900   21.0050   17.2700 O   0  0  0  0  0  0  0  0  0  0  0  0
   26.1790   20.5830   15.1320 N   0  0  0  0  0  0  0  0  0  0  0  0
   25.5290   19.8040   14.2020 C   0  0  0  0  0  0  0  0  0  0  0  0
   24.8280   20.3240   13.3380 O   0  0  0  0  0  0  0  0  0  0  0  0
   23.6510   16.9880   14.0340 C   0  0  0  0  0  0  0  0  0  0  0  0
   23.1230   17.2210   15.1030 O   0  0  0  0  0  0  0  0  0  0  0  0
   22.0580   16.6220    6.7380 C   0  0  0  0  0  0  0  0  0  0  0  0
   21.0490   17.4660    6.6730 N   0  0  0  0  0  0  0  0  0  0  0  0
   18.9504   19.6134    8.5356 H   0  0  0  0  0  0  0  0  0  0  0  0
   19.8320   19.3891    6.9867 H   0  0  0  0  0  0  0  0  0  0  0  0
   18.0430   19.5504    6.9867 H   0  0  0  0  0  0  0  0  0  0  0  0
   18.3805   17.4178    8.6799 H   0  0  0  0  0  0  0  0  0  0  0  0
   18.0903   17.2932    6.8910 H   0  0  0  0  0  0  0  0  0  0  0  0
   19.9538   15.1022    8.7561 H   0  0  0  0  0  0  0  0  0  0  0  0
   27.7761   15.4791    8.4111 H   0  0  0  0  0  0  0  0  0  0  0  0
   26.6019   15.7571   10.7196 H   0  0  0  0  0  0  0  0  0  0  0  0
   22.3741   13.7922   10.0132 H   0  0  0  0  0  0  0  0  0  0  0  0
   20.7797   13.9032   11.9302 H   0  0  0  0  0  0  0  0  0  0  0  0
   21.2657   15.3877   13.8953 H   0  0  0  0  0  0  0  0  0  0  0  0
   26.1260   16.2969   12.3803 H   0  0  0  0  0  0  0  0  0  0  0  0
   25.4364   17.6214   11.4706 H   0  0  0  0  0  0  0  0  0  0  0  0
   26.7530   18.0330   13.9816 H   0  0  0  0  0  0  0  0  0  0  0  0
   24.6636   18.1652   16.2122 H   0  0  0  0  0  0  0  0  0  0  0  0
   25.8435   16.8383   15.9467 H   0  0  0  0  0  0  0  0  0  0  0  0
   26.6015   18.4783   17.6773 H   0  0  0  0  0  0  0  0  0  0  0  0
   27.7087   18.3898   16.2489 H   0  0  0  0  0  0  0  0  0  0  0  0
   26.3950   21.5532   14.8618 H   0  0  0  0  0  0  0  0  0  0  0  0
   23.0108   16.7409    6.2014 H   0  0  0  0  0  0  0  0  0  0  0  0
  1  2  1  0
  2  3  1  0
  3  4  2  0
  4  5  1  0
  5  6  1  0
  6  7  2  0
  6  8  2  0
  6  9  1  0
  9 10  1  0
 10 11  1  0
 11 12  2  0
 12 13  1  0
 13 14  1  0
 14 15  2  0
 15 16  1  0
 16 17  2  0
 17 18  1  0
 18 19  2  0
 19 20  1  0
 20 21  1  0
 21 22  1  0
 22 23  1  0
 23 24  1  0
 24 25  1  0
 25 26  2  0
 25 27  1  0
 27 28  1  0
 28 29  2  0
 21 30  1  0
 30 31  2  0
  5 32  1  0
 32 33  2  0
 33  3  1  0
 13  9  2  0
 19 14  1  0
 28 22  1  0
 30 18  1  0
  1 34  1  0
  1 35  1  0
  1 36  1  0
  2 37  1  0
  2 38  1  0
  4 39  1  0
 11 40  1  0
 12 41  1  0
 15 42  1  0
 16 43  1  0
 17 44  1  0
 20 45  1  0
 20 46  1  0
 22 47  1  6
 23 48  1  0
 23 49  1  0
 24 50  1  0
 24 51  1  0
 27 52  1  0
 32 53  1  0
M  END
>  <meeko>  (1145) 
{"is_sidechain": [true], "free_energy": -10.23, "intermolecular_energy": 0.0, "internal_energy": -10.23, "cluster_size": 13, "cluster_id": 1, "rank_in_cluster": 1}

>  <_RMSD_MCS_to_ref>  (1145) 
1.3919401328122318

$$$$
ligand
     RDKit          3D

 43 45  0  0  0  0  0  0  0  0999 V2000
   18.9090   19.1540    7.5370 C   0  0  0  0  0  0  0  0  0  0  0  0
   18.7730   17.6460    7.6780 C   0  0  0  0  0  0  0  0  0  0  0  0
   20.0950   16.9610    7.6910 C   0  0  0  0  0  0  0  0  0  0  0  0
   20.9310   16.7080    8.7600 C   0  0  0  0  0  0  0  0  0  0  0  0
   21.9820   16.0330    8.2090 N   0  0  0  0  0  0  0  0  0  0  0  0
   23.4190   15.6580    8.9870 S   0  0  0  0  0  6  0  0  0  0  0  0
   24.2700   16.8240    8.8750 O   0  0  0  0  0  0  0  0  0  0  0  0
   23.8040   14.3380    8.5300 O   0  0  0  0  0  0  0  0  0  0  0  0
   23.0970   15.4670   10.7160 C   0  0  0  0  0  0  0  0  0  0  0  0
   22.2160   14.6800   11.4360 C   0  0  0  0  0  0  0  0  0  0  0  0
   22.4140   14.9480   12.8120 C   0  0  0  0  0  0  0  0  0  0  0  0
   23.4140   15.9000   12.9230 C   0  0  0  0  0  0  0  0  0  0  0  0
   24.0260   16.5460   14.0640 C   0  0  0  0  0  0  0  0  0  0  0  0
   24.2290   15.9530   15.1200 O   0  0  0  0  0  0  0  0  0  0  0  0
   24.3510   17.8660   13.8930 N   0  0  0  0  0  0  0  0  0  0  0  0
   24.8370   18.6850   14.9930 C   0  0  1  0  0  0  0  0  0  0  0  0
   25.9060   17.9730   15.8150 C   0  0  0  0  0  0  0  0  0  0  0  0
   26.3940   18.8970   16.9200 C   0  0  0  0  0  0  0  0  0  0  0  0
   26.8950   20.2080   16.3570 C   0  0  0  0  0  0  0  0  0  0  0  0
   27.8260   20.8280   16.8600 O   0  0  0  0  0  0  0  0  0  0  0  0
   26.2340   20.6970   15.2590 N   0  0  0  0  0  0  0  0  0  0  0  0
   25.4310   19.9730   14.4140 C   0  0  0  0  0  0  0  0  0  0  0  0
   25.2040   20.3550   13.2660 O   0  0  0  0  0  0  0  0  0  0  0  0
   23.8020   16.2060   11.6370 N   0  0  0  0  0  0  0  0  0  0  0  0
   21.8060   15.9540    6.8660 C   0  0  0  0  0  0  0  0  0  0  0  0
   20.6560   16.4950    6.5180 N   0  0  0  0  0  0  0  0  0  0  0  0
   18.9504   19.6134    8.5356 H   0  0  0  0  0  0  0  0  0  0  0  0
   19.8320   19.3891    6.9867 H   0  0  0  0  0  0  0  0  0  0  0  0
   18.0430   19.5504    6.9867 H   0  0  0  0  0  0  0  0  0  0  0  0
   18.2497   17.4240    8.6197 H   0  0  0  0  0  0  0  0  0  0  0  0
   18.2089   17.2751    6.8096 H   0  0  0  0  0  0  0  0  0  0  0  0
   20.7840   16.9864    9.8140 H   0  0  0  0  0  0  0  0  0  0  0  0
   21.4892   13.9705   11.0135 H   0  0  0  0  0  0  0  0  0  0  0  0
   21.8694   14.4820   13.6464 H   0  0  0  0  0  0  0  0  0  0  0  0
   24.2484   18.2902   12.9600 H   0  0  0  0  0  0  0  0  0  0  0  0
   23.9894   18.8973   15.6612 H   0  0  0  0  0  0  0  0  0  0  0  0
   25.4800   17.0618   16.2603 H   0  0  0  0  0  0  0  0  0  0  0  0
   26.7500   17.7023   15.1636 H   0  0  0  0  0  0  0  0  0  0  0  0
   25.5631   19.0982   17.6122 H   0  0  0  0  0  0  0  0  0  0  0  0
   27.2255   18.4033   17.4442 H   0  0  0  0  0  0  0  0  0  0  0  0
   26.3511   21.6987   15.0498 H   0  0  0  0  0  0  0  0  0  0  0  0
   24.5259   16.8982   11.3966 H   0  0  0  0  0  0  0  0  0  0  0  0
   22.5232   15.5015    6.1654 H   0  0  0  0  0  0  0  0  0  0  0  0
  1  2  1  0
  2  3  1  0
  3  4  2  0
  4  5  1  0
  5  6  1  0
  6  7  2  0
  6  8  2  0
  6  9  1  0
  9 10  2  0
 10 11  1  0
 11 12  2  0
 12 13  1  0
 13 14  2  0
 13 15  1  0
 15 16  1  0
 16 17  1  0
 17 18  1  0
 18 19  1  0
 19 20  2  0
 19 21  1  0
 21 22  1  0
 22 23  2  0
 12 24  1  0
  5 25  1  0
 25 26  2  0
 26  3  1  0
 24  9  1  0
 22 16  1  0
  1 27  1  0
  1 28  1  0
  1 29  1  0
  2 30  1  0
  2 31  1  0
  4 32  1  0
 10 33  1  0
 11 34  1  0
 15 35  1  0
 16 36  1  1
 17 37  1  0
 17 38  1  0
 18 39  1  0
 18 40  1  0
 21 41  1  0
 24 42  1  0
 25 43  1  0
M  END
>  <meeko>  (1146) 
{"is_sidechain": [true], "free_energy": -10.23, "intermolecular_energy": 0.0, "internal_energy": -10.23, "cluster_size": 20, "cluster_id": 1, "rank_in_cluster": 1}

>  <_RMSD_MCS_to_ref>  (1146) 
0.45364548076909367

$$$$
ligand
     RDKit          3D

 47 50  0  0  0  0  0  0  0  0999 V2000
   18.9090   19.1540    7.5370 C   0  0  0  0  0  0  0  0  0  0  0  0
   18.7730   17.6460    7.6780 C   0  0  0  0  0  0  0  0  0  0  0  0
   20.0300   16.9350    7.3210 C   0  0  0  0  0  0  0  0  0  0  0  0
   20.7510   16.0240    8.0680 C   0  0  0  0  0  0  0  0  0  0  0  0
   21.8200   15.7170    7.2770 N   0  0  0  0  0  0  0  0  0  0  0  0
   23.1350   14.7470    7.6880 S   0  0  0  0  0  6  0  0  0  0  0  0
   23.8800   14.6340    6.4420 O   0  0  0  0  0  0  0  0  0  0  0  0
   22.5590   13.5570    8.2900 O   0  0  0  0  0  0  0  0  0  0  0  0
   24.1370   15.5420    8.8520 C   0  0  0  0  0  0  0  0  0  0  0  0
   25.2240   16.1890    8.4050 C   0  0  0  0  0  0  0  0  0  0  0  0
   26.0780   16.8370    9.4210 C   0  0  0  0  0  0  0  0  0  0  0  0
   25.8780   16.8300   10.7000 N   0  0  0  0  0  0  0  0  0  0  0  0
   24.7610   16.1330   11.0740 N   0  0  0  0  0  0  0  0  0  0  0  0
   24.3230   15.9500   12.3640 C   0  0  0  0  0  0  0  0  0  0  0  0
   24.9130   16.4280   13.5850 C   0  0  0  0  0  0  0  0  0  0  0  0
   24.8560   15.7980   14.6390 O   0  0  0  0  0  0  0  0  0  0  0  0
   25.5560   17.6380   13.5130 N   0  0  0  0  0  0  0  0  0  0  0  0
   26.3130   18.1850   14.6260 C   0  0  2  0  0  0  0  0  0  0  0  0
   25.5590   18.0620   15.9470 C   0  0  0  0  0  0  0  0  0  0  0  0
   26.3910   18.6700   17.0650 C   0  0  0  0  0  0  0  0  0  0  0  0
   26.7570   20.1030   16.7580 C   0  0  0  0  0  0  0  0  0  0  0  0
   26.8570   20.9590   17.6310 O   0  0  0  0  0  0  0  0  0  0  0  0
   27.0040   20.4050   15.4430 N   0  0  0  0  0  0  0  0  0  0  0  0
   26.6060   19.6650   14.3560 C   0  0  0  0  0  0  0  0  0  0  0  0
   26.5110   20.1790   13.2430 O   0  0  0  0  0  0  0  0  0  0  0  0
   23.1770   15.1880   12.2280 C   0  0  0  0  0  0  0  0  0  0  0  0
   22.9080   14.9050   10.9150 N   0  0  0  0  0  0  0  0  0  0  0  0
   23.8710   15.4810   10.2340 C   0  0  0  0  0  0  0  0  0  0  0  0
   21.7350   16.4210    6.1190 C   0  0  0  0  0  0  0  0  0  0  0  0
   20.6500   17.1650    6.1070 N   0  0  0  0  0  0  0  0  0  0  0  0
   18.9504   19.6134    8.5356 H   0  0  0  0  0  0  0  0  0  0  0  0
   19.8320   19.3891    6.9867 H   0  0  0  0  0  0  0  0  0  0  0  0
   18.0430   19.5504    6.9867 H   0  0  0  0  0  0  0  0  0  0  0  0
   18.5154   17.4091    8.7208 H   0  0  0  0  0  0  0  0  0  0  0  0
   17.9860   17.3107    6.9864 H   0  0  0  0  0  0  0  0  0  0  0  0
   20.5173   15.6353    9.0701 H   0  0  0  0  0  0  0  0  0  0  0  0
   25.4675   16.2347    7.3333 H   0  0  0  0  0  0  0  0  0  0  0  0
   26.9658   17.3752    9.0574 H   0  0  0  0  0  0  0  0  0  0  0  0
   25.5000   18.1783   12.6379 H   0  0  0  0  0  0  0  0  0  0  0  0
   27.2462   17.6091   14.7127 H   0  0  0  0  0  0  0  0  0  0  0  0
   24.5997   18.5951   15.8725 H   0  0  0  0  0  0  0  0  0  0  0  0
   25.3728   17.0000   16.1650 H   0  0  0  0  0  0  0  0  0  0  0  0
   25.8119   18.6402   17.9998 H   0  0  0  0  0  0  0  0  0  0  0  0
   27.3189   18.0877   17.1641 H   0  0  0  0  0  0  0  0  0  0  0  0
   27.5369   21.2657   15.2530 H   0  0  0  0  0  0  0  0  0  0  0  0
   22.5570   14.8503   13.0715 H   0  0  0  0  0  0  0  0  0  0  0  0
   22.4717   16.3755    5.3034 H   0  0  0  0  0  0  0  0  0  0  0  0
  1  2  1  0
  2  3  1  0
  3  4  2  0
  4  5  1  0
  5  6  1  0
  6  7  2  0
  6  8  2  0
  6  9  1  0
  9 10  2  0
 10 11  1  0
 11 12  2  0
 12 13  1  0
 13 14  1  0
 14 15  1  0
 15 16  2  0
 15 17  1  0
 17 18  1  0
 18 19  1  0
 19 20  1  0
 20 21  1  0
 21 22  2  0
 21 23  1  0
 23 24  1  0
 24 25  2  0
 14 26  2  0
 26 27  1  0
 27 28  2  0
  5 29  1  0
 29 30  2  0
 30  3  1  0
 28  9  1  0
 28 13  1  0
 24 18  1  0
  1 31  1  0
  1 32  1  0
  1 33  1  0
  2 34  1  0
  2 35  1  0
  4 36  1  0
 10 37  1  0
 11 38  1  0
 17 39  1  0
 18 40  1  1
 19 41  1  0
 19 42  1  0
 20 43  1  0
 20 44  1  0
 23 45  1  0
 26 46  1  0
 29 47  1  0
M  END
>  <meeko>  (1147) 
{"is_sidechain": [true], "free_energy": -10.23, "intermolecular_energy": 0.0, "internal_energy": -10.23, "cluster_size": 13, "cluster_id": 1, "rank_in_cluster": 1}

>  <_RMSD_MCS_to_ref>  (1147) 
1.090277691436656

$$$$
ligand
     RDKit          3D

 47 50  0  0  0  0  0  0  0  0999 V2000
   18.9090   19.1540    7.5370 C   0  0  0  0  0  0  0  0  0  0  0  0
   18.7730   17.6460    7.6780 C   0  0  0  0  0  0  0  0  0  0  0  0
   19.9850   16.9260    7.2010 C   0  0  0  0  0  0  0  0  0  0  0  0
   20.9050   16.1970    7.9270 C   0  0  0  0  0  0  0  0  0  0  0  0
   21.8110   15.7790    6.9940 N   0  0  0  0  0  0  0  0  0  0  0  0
   23.0880   14.7340    7.2720 S   0  0  0  0  0  6  0  0  0  0  0  0
   22.7560   13.4740    6.6430 O   0  0  0  0  0  0  0  0  0  0  0  0
   24.2990   15.4650    6.9500 O   0  0  0  0  0  0  0  0  0  0  0  0
   23.2390   14.3840    8.9580 C   0  0  0  0  0  0  0  0  0  0  0  0
   22.9080   13.1550    9.4530 N   0  0  0  0  0  0  0  0  0  0  0  0
   23.0790   13.0160   10.7860 N   0  0  0  0  0  0  0  0  0  0  0  0
   23.5380   14.2100   11.1950 C   0  0  0  0  0  0  0  0  0  0  0  0
   23.8850   14.6320   12.4900 C   0  0  0  0  0  0  0  0  0  0  0  0
   24.3410   15.9620   12.5310 C   0  0  0  0  0  0  0  0  0  0  0  0
   24.7490   16.6110   13.8020 C   0  0  0  0  0  0  0  0  0  0  0  0
   24.8290   15.9500   14.8300 O   0  0  0  0  0  0  0  0  0  0  0  0
   24.9950   17.9660   13.7660 N   0  0  0  0  0  0  0  0  0  0  0  0
   25.2640   18.7140   14.9880 C   0  0  1  0  0  0  0  0  0  0  0  0
   26.3180   18.0360   15.8600 C   0  0  0  0  0  0  0  0  0  0  0  0
   26.5800   18.8890   17.0920 C   0  0  0  0  0  0  0  0  0  0  0  0
   26.9820   20.2950   16.7110 C   0  0  0  0  0  0  0  0  0  0  0  0
   27.7800   20.9540   17.3720 O   0  0  0  0  0  0  0  0  0  0  0  0
   26.3880   20.8230   15.5940 N   0  0  0  0  0  0  0  0  0  0  0  0
   25.7600   20.1110   14.6020 C   0  0  0  0  0  0  0  0  0  0  0  0
   25.6020   20.5820   13.4760 O   0  0  0  0  0  0  0  0  0  0  0  0
   24.4020   16.7460   11.3500 C   0  0  0  0  0  0  0  0  0  0  0  0
   24.0740   16.3620   10.0720 N   0  0  0  0  0  0  0  0  0  0  0  0
   23.6460   15.0830   10.0530 C   0  0  0  0  0  0  0  0  0  0  0  0
   21.4050   16.1870    5.7650 C   0  0  0  0  0  0  0  0  0  0  0  0
   20.3120   16.9160    5.8590 N   0  0  0  0  0  0  0  0  0  0  0  0
   18.9504   19.6134    8.5356 H   0  0  0  0  0  0  0  0  0  0  0  0
   19.8320   19.3891    6.9867 H   0  0  0  0  0  0  0  0  0  0  0  0
   18.0430   19.5504    6.9867 H   0  0  0  0  0  0  0  0  0  0  0  0
   18.6104   17.4024    8.7383 H   0  0  0  0  0  0  0  0  0  0  0  0
   17.9228   17.3239    7.0588 H   0  0  0  0  0  0  0  0  0  0  0  0
   20.9080   15.9982    9.0089 H   0  0  0  0  0  0  0  0  0  0  0  0
   22.5553   12.3931    8.8564 H   0  0  0  0  0  0  0  0  0  0  0  0
   23.8080   13.9889   13.3791 H   0  0  0  0  0  0  0  0  0  0  0  0
   24.9888   18.4584   12.8613 H   0  0  0  0  0  0  0  0  0  0  0  0
   24.3325   18.7648   15.5708 H   0  0  0  0  0  0  0  0  0  0  0  0
   25.9553   17.0450   16.1703 H   0  0  0  0  0  0  0  0  0  0  0  0
   27.2502   17.9218   15.2874 H   0  0  0  0  0  0  0  0  0  0  0  0
   25.6645   18.9305   17.7004 H   0  0  0  0  0  0  0  0  0  0  0  0
   27.4047   18.4341   17.6603 H   0  0  0  0  0  0  0  0  0  0  0  0
   26.4153   21.8473   15.4893 H   0  0  0  0  0  0  0  0  0  0  0  0
   24.7526   17.7815   11.4715 H   0  0  0  0  0  0  0  0  0  0  0  0
   21.9170   15.9431    4.8224 H   0  0  0  0  0  0  0  0  0  0  0  0
  1  2  1  0
  2  3  1  0
  3  4  2  0
  4  5  1  0
  5  6  1  0
  6  7  2  0
  6  8  2  0
  6  9  1  0
  9 10  1  0
 10 11  1  0
 11 12  2  0
 12 13  1  0
 13 14  2  0
 14 15  1  0
 15 16  2  0
 15 17  1  0
 17 18  1  0
 18 19  1  0
 19 20  1  0
 20 21  1  0
 21 22  2  0
 21 23  1  0
 23 24  1  0
 24 25  2  0
 14 26  1  0
 26 27  2  0
 27 28  1  0
  5 29  1  0
 29 30  2  0
 30  3  1  0
 28  9  2  0
 28 12  1  0
 24 18  1  0
  1 31  1  0
  1 32  1  0
  1 33  1  0
  2 34  1  0
  2 35  1  0
  4 36  1  0
 10 37  1  0
 13 38  1  0
 17 39  1  0
 18 40  1  1
 19 41  1  0
 19 42  1  0
 20 43  1  0
 20 44  1  0
 23 45  1  0
 26 46  1  0
 29 47  1  0
M  END
>  <meeko>  (1148) 
{"is_sidechain": [true], "free_energy": -10.23, "intermolecular_energy": 0.0, "internal_energy": -10.23, "cluster_size": 16, "cluster_id": 1, "rank_in_cluster": 1}

>  <_RMSD_MCS_to_ref>  (1148) 
0.6634454679089227

$$$$
ligand
     RDKit          3D

 47 50  0  0  0  0  0  0  0  0999 V2000
   18.9090   19.1540    7.5370 C   0  0  0  0  0  0  0  0  0  0  0  0
   18.7730   17.6460    7.6780 C   0  0  0  0  0  0  0  0  0  0  0  0
   19.9960   16.9270    7.2310 C   0  0  0  0  0  0  0  0  0  0  0  0
   21.1720   16.7000    7.9200 C   0  0  0  0  0  0  0  0  0  0  0  0
   21.9360   15.9760    7.0490 N   0  0  0  0  0  0  0  0  0  0  0  0
   23.5330   15.5160    7.2820 S   0  0  0  0  0  6  0  0  0  0  0  0
   23.5890   14.1140    6.9090 O   0  0  0  0  0  0  0  0  0  0  0  0
   24.3390   16.5240    6.6190 O   0  0  0  0  0  0  0  0  0  0  0  0
   23.8060   15.6360    9.0160 C   0  0  0  0  0  0  0  0  0  0  0  0
   24.9020   16.3510    9.4690 C   0  0  0  0  0  0  0  0  0  0  0  0
   25.1960   16.4940   10.7860 N   0  0  0  0  0  0  0  0  0  0  0  0
   24.3090   15.8610   11.6080 C   0  0  0  0  0  0  0  0  0  0  0  0
   24.2740   15.7660   13.0250 C   0  0  0  0  0  0  0  0  0  0  0  0
   25.1880   16.3300   14.0070 C   0  0  0  0  0  0  0  0  0  0  0  0
   25.8670   15.6310   14.7520 O   0  0  0  0  0  0  0  0  0  0  0  0
   25.2380   17.7020   14.0330 N   0  0  0  0  0  0  0  0  0  0  0  0
   26.1820   18.4260   14.8650 C   0  0  2  0  0  0  0  0  0  0  0  0
   25.9730   18.1330   16.3470 C   0  0  0  0  0  0  0  0  0  0  0  0
   26.9770   18.9280   17.1690 C   0  0  0  0  0  0  0  0  0  0  0  0
   26.8820   20.4060   16.8690 C   0  0  0  0  0  0  0  0  0  0  0  0
   27.0910   21.2640   17.7200 O   0  0  0  0  0  0  0  0  0  0  0  0
   26.5780   20.7510   15.5780 N   0  0  0  0  0  0  0  0  0  0  0  0
   26.0230   19.9310   14.6260 C   0  0  0  0  0  0  0  0  0  0  0  0
   25.4550   20.4020   13.6410 O   0  0  0  0  0  0  0  0  0  0  0  0
   23.1550   14.9990   13.3330 C   0  0  0  0  0  0  0  0  0  0  0  0
   22.5310   14.6370   12.1660 N   0  0  0  0  0  0  0  0  0  0  0  0
   23.2210   15.1500   11.1040 C   0  0  0  0  0  0  0  0  0  0  0  0
   22.9000   14.9920    9.8020 N   0  0  0  0  0  0  0  0  0  0  0  0
   21.2570   15.8230    5.8830 C   0  0  0  0  0  0  0  0  0  0  0  0
   20.0660   16.3800    5.9640 N   0  0  0  0  0  0  0  0  0  0  0  0
   18.9504   19.6134    8.5356 H   0  0  0  0  0  0  0  0  0  0  0  0
   19.8320   19.3891    6.9867 H   0  0  0  0  0  0  0  0  0  0  0  0
   18.0430   19.5504    6.9867 H   0  0  0  0  0  0  0  0  0  0  0  0
   18.5865   17.4045    8.7348 H   0  0  0  0  0  0  0  0  0  0  0  0
   17.9382   17.3212    7.0396 H   0  0  0  0  0  0  0  0  0  0  0  0
   21.4333   17.0273    8.9371 H   0  0  0  0  0  0  0  0  0  0  0  0
   25.5636   16.8240    8.7284 H   0  0  0  0  0  0  0  0  0  0  0  0
   24.5839   18.2353   13.4425 H   0  0  0  0  0  0  0  0  0  0  0  0
   27.1941   18.0949   14.5894 H   0  0  0  0  0  0  0  0  0  0  0  0
   24.9518   18.4212   16.6371 H   0  0  0  0  0  0  0  0  0  0  0  0
   26.1177   17.0583   16.5317 H   0  0  0  0  0  0  0  0  0  0  0  0
   26.7743   18.7653   18.2379 H   0  0  0  0  0  0  0  0  0  0  0  0
   27.9891   18.5846   16.9090 H   0  0  0  0  0  0  0  0  0  0  0  0
   26.7858   21.7190   15.2941 H   0  0  0  0  0  0  0  0  0  0  0  0
   22.8246   14.7272   14.3464 H   0  0  0  0  0  0  0  0  0  0  0  0
   21.6755   14.0672   12.1006 H   0  0  0  0  0  0  0  0  0  0  0  0
   21.6474   15.3057    4.9942 H   0  0  0  0  0  0  0  0  0  0  0  0
  1  2  1  0
  2  3  1  0
  3  4  2  0
  4  5  1  0
  5  6  1  0
  6  7  2  0
  6  8  2  0
  6  9  1  0
  9 10  2  0
 10 11  1  0
 11 12  2  0
 12 13  1  0
 13 14  1  0
 14 15  2  0
 14 16  1  0
 16 17  1  0
 17 18  1  0
 18 19  1  0
 19 20  1  0
 20 21  2  0
 20 22  1  0
 22 23  1  0
 23 24  2  0
 13 25  2  0
 25 26  1  0
 26 27  1  0
 27 28  2  0
  5 29  1  0
 29 30  2  0
 30  3  1  0
 28  9  1  0
 27 12  1  0
 23 17  1  0
  1 31  1  0
  1 32  1  0
  1 33  1  0
  2 34  1  0
  2 35  1  0
  4 36  1  0
 10 37  1  0
 16 38  1  0
 17 39  1  6
 18 40  1  0
 18 41  1  0
 19 42  1  0
 19 43  1  0
 22 44  1  0
 25 45  1  0
 26 46  1  0
 29 47  1  0
M  END
>  <meeko>  (1149) 
{"is_sidechain": [true], "free_energy": -10.23, "intermolecular_energy": 0.0, "internal_energy": -10.23, "cluster_size": 20, "cluster_id": 1, "rank_in_cluster": 1}

>  <_RMSD_MCS_to_ref>  (1149) 
0.8882266352432552

$$$$
ligand
     RDKit          3D

 42 44  0  0  0  0  0  0  0  0999 V2000
   18.9090   19.1540    7.5370 C   0  0  0  0  0  0  0  0  0  0  0  0
   18.7730   17.6460    7.6780 C   0  0  0  0  0  0  0  0  0  0  0  0
   20.0880   16.9540    7.5980 C   0  0  0  0  0  0  0  0  0  0  0  0
   21.0020   16.7070    8.6030 C   0  0  0  0  0  0  0  0  0  0  0  0
   22.0310   16.0690    7.9700 N   0  0  0  0  0  0  0  0  0  0  0  0
   23.3760   15.3980    8.7010 S   0  0  0  0  0  6  0  0  0  0  0  0
   24.5190   16.1940    8.2910 O   0  0  0  0  0  0  0  0  0  0  0  0
   23.3060   13.9680    8.4730 O   0  0  0  0  0  0  0  0  0  0  0  0
   23.2590   15.6180   10.4410 C   0  0  0  0  0  0  0  0  0  0  0  0
   22.1970   15.4020   11.1960 N   0  0  0  0  0  0  0  0  0  0  0  0
   22.5900   15.7060   12.4760 C   0  0  0  0  0  0  0  0  0  0  0  0
   23.9060   16.1190   12.5140 C   0  0  0  0  0  0  0  0  0  0  0  0
   24.7810   16.5400   13.5750 C   0  0  0  0  0  0  0  0  0  0  0  0
   25.2950   15.7370   14.3480 O   0  0  0  0  0  0  0  0  0  0  0  0
   25.0100   17.8880   13.6600 N   0  0  0  0  0  0  0  0  0  0  0  0
   25.9810   18.4410   14.5940 C   0  0  2  0  0  0  0  0  0  0  0  0
   25.6890   18.0470   16.0370 C   0  0  0  0  0  0  0  0  0  0  0  0
   26.7140   18.6920   16.9570 C   0  0  0  0  0  0  0  0  0  0  0  0
   26.7460   20.1920   16.7780 C   0  0  0  0  0  0  0  0  0  0  0  0
   26.9730   20.9610   17.7060 O   0  0  0  0  0  0  0  0  0  0  0  0
   26.5340   20.6630   15.5060 N   0  0  0  0  0  0  0  0  0  0  0  0
   25.9450   19.9690   14.4800 C   0  0  0  0  0  0  0  0  0  0  0  0
   25.4290   20.5520   13.5260 O   0  0  0  0  0  0  0  0  0  0  0  0
   24.3130   16.0520   11.2000 N   0  0  0  0  0  0  0  0  0  0  0  0
   21.7040   15.8860    6.6650 C   0  0  0  0  0  0  0  0  0  0  0  0
   20.5400   16.4390    6.3980 N   0  0  0  0  0  0  0  0  0  0  0  0
   18.9504   19.6134    8.5356 H   0  0  0  0  0  0  0  0  0  0  0  0
   19.8320   19.3891    6.9867 H   0  0  0  0  0  0  0  0  0  0  0  0
   18.0430   19.5504    6.9867 H   0  0  0  0  0  0  0  0  0  0  0  0
   18.3128   17.4211    8.6515 H   0  0  0  0  0  0  0  0  0  0  0  0
   18.1492   17.2837    6.8476 H   0  0  0  0  0  0  0  0  0  0  0  0
   20.9204   16.9649    9.6692 H   0  0  0  0  0  0  0  0  0  0  0  0
   21.9385   15.6300   13.3590 H   0  0  0  0  0  0  0  0  0  0  0  0
   24.4822   18.5265   13.0479 H   0  0  0  0  0  0  0  0  0  0  0  0
   26.9712   18.0382   14.3345 H   0  0  0  0  0  0  0  0  0  0  0  0
   24.6811   18.3898   16.3137 H   0  0  0  0  0  0  0  0  0  0  0  0
   25.7448   16.9529   16.1364 H   0  0  0  0  0  0  0  0  0  0  0  0
   26.4540   18.4612   18.0006 H   0  0  0  0  0  0  0  0  0  0  0  0
   27.7070   18.2912   16.7053 H   0  0  0  0  0  0  0  0  0  0  0  0
   26.8452   21.6239   15.3040 H   0  0  0  0  0  0  0  0  0  0  0  0
   25.2516   16.2884   10.8477 H   0  0  0  0  0  0  0  0  0  0  0  0
   22.3256   15.3500    5.9327 H   0  0  0  0  0  0  0  0  0  0  0  0
  1  2  1  0
  2  3  1  0
  3  4  2  0
  4  5  1  0
  5  6  1  0
  6  7  2  0
  6  8  2  0
  6  9  1  0
  9 10  2  0
 10 11  1  0
 11 12  2  0
 12 13  1  0
 13 14  2  0
 13 15  1  0
 15 16  1  0
 16 17  1  0
 17 18  1  0
 18 19  1  0
 19 20  2  0
 19 21  1  0
 21 22  1  0
 22 23  2  0
 12 24  1  0
  5 25  1  0
 25 26  2  0
 26  3  1  0
 24  9  1  0
 22 16  1  0
  1 27  1  0
  1 28  1  0
  1 29  1  0
  2 30  1  0
  2 31  1  0
  4 32  1  0
 11 33  1  0
 15 34  1  0
 16 35  1  6
 17 36  1  0
 17 37  1  0
 18 38  1  0
 18 39  1  0
 21 40  1  0
 24 41  1  0
 25 42  1  0
M  END
>  <meeko>  (1150) 
{"is_sidechain": [true], "free_energy": -10.23, "intermolecular_energy": 0.0, "internal_energy": -10.23, "cluster_size": 20, "cluster_id": 1, "rank_in_cluster": 1}

>  <_RMSD_MCS_to_ref>  (1150) 
0.7230613159799567

$$$$
ligand
     RDKit          3D

 50 53  0  0  0  0  0  0  0  0999 V2000
   18.9090   19.1540    7.5370 C   0  0  0  0  0  0  0  0  0  0  0  0
   18.7730   17.6460    7.6780 C   0  0  0  0  0  0  0  0  0  0  0  0
   19.8910   16.9160    7.0210 C   0  0  0  0  0  0  0  0  0  0  0  0
   21.2460   17.1760    7.0700 C   0  0  0  0  0  0  0  0  0  0  0  0
   21.8000   16.2180    6.2710 N   0  0  0  0  0  0  0  0  0  0  0  0
   23.4410   15.8920    6.1140 S   0  0  0  0  0  6  0  0  0  0  0  0
   23.5460   14.8810    5.0820 O   0  0  0  0  0  0  0  0  0  0  0  0
   24.0960   17.1810    6.0130 O   0  0  0  0  0  0  0  0  0  0  0  0
   23.8700   15.1610    7.6710 C   0  0  0  0  0  0  0  0  0  0  0  0
   24.0280   13.7800    7.7640 C   0  0  0  0  0  0  0  0  0  0  0  0
   24.3630   13.2120    8.9970 C   0  0  0  0  0  0  0  0  0  0  0  0
   24.5320   13.9870   10.1390 C   0  0  0  0  0  0  0  0  0  0  0  0
   24.8620   13.3890   11.2930 N   0  0  0  0  0  0  0  0  0  0  0  0
   25.0170   14.1690   12.3930 C   0  0  0  0  0  0  0  0  0  0  0  0
   24.8440   15.5440   12.4020 C   0  0  0  0  0  0  0  0  0  0  0  0
   25.0420   16.2780   13.6750 C   0  0  0  0  0  0  0  0  0  0  0  0
   24.9220   15.6960   14.7460 O   0  0  0  0  0  0  0  0  0  0  0  0
   25.3320   17.6210   13.5840 N   0  0  0  0  0  0  0  0  0  0  0  0
   25.3950   18.4570   14.7770 C   0  0  1  0  0  0  0  0  0  0  0  0
   26.3280   17.8850   15.8390 C   0  0  0  0  0  0  0  0  0  0  0  0
   26.3790   18.8280   17.0310 C   0  0  0  0  0  0  0  0  0  0  0  0
   26.7900   20.2210   16.6100 C   0  0  0  0  0  0  0  0  0  0  0  0
   27.4630   20.9540   17.3290 O   0  0  0  0  0  0  0  0  0  0  0  0
   26.3480   20.6480   15.3840 N   0  0  0  0  0  0  0  0  0  0  0  0
   25.9020   19.8440   14.3660 C   0  0  0  0  0  0  0  0  0  0  0  0
   25.9030   20.2290   13.1970 O   0  0  0  0  0  0  0  0  0  0  0  0
   24.5140   16.1610   11.1950 C   0  0  0  0  0  0  0  0  0  0  0  0
   24.3510   15.3850   10.0370 C   0  0  0  0  0  0  0  0  0  0  0  0
   24.0180   15.9680    8.8010 C   0  0  0  0  0  0  0  0  0  0  0  0
   20.8190   15.4000    5.8090 C   0  0  0  0  0  0  0  0  0  0  0  0
   19.6420   15.8040    6.2410 N   0  0  0  0  0  0  0  0  0  0  0  0
   18.9504   19.6134    8.5356 H   0  0  0  0  0  0  0  0  0  0  0  0
   19.8320   19.3891    6.9867 H   0  0  0  0  0  0  0  0  0  0  0  0
   18.0430   19.5504    6.9867 H   0  0  0  0  0  0  0  0  0  0  0  0
   18.7631   17.3899    8.7477 H   0  0  0  0  0  0  0  0  0  0  0  0
   17.8372   17.3442    7.1849 H   0  0  0  0  0  0  0  0  0  0  0  0
   21.7614   17.9731    7.6259 H   0  0  0  0  0  0  0  0  0  0  0  0
   23.8908   13.1435    6.8774 H   0  0  0  0  0  0  0  0  0  0  0  0
   24.4965   12.1223    9.0654 H   0  0  0  0  0  0  0  0  0  0  0  0
   25.2976   13.6788   13.3369 H   0  0  0  0  0  0  0  0  0  0  0  0
   25.5069   18.0411   12.6600 H   0  0  0  0  0  0  0  0  0  0  0  0
   24.3868   18.5059   15.2141 H   0  0  0  0  0  0  0  0  0  0  0  0
   25.9546   16.9028   16.1644 H   0  0  0  0  0  0  0  0  0  0  0  0
   27.3377   17.7725   15.4174 H   0  0  0  0  0  0  0  0  0  0  0  0
   25.3830   18.8730   17.4956 H   0  0  0  0  0  0  0  0  0  0  0  0
   27.1236   18.4463   17.7451 H   0  0  0  0  0  0  0  0  0  0  0  0
   26.3512   21.6636   15.2122 H   0  0  0  0  0  0  0  0  0  0  0  0
   24.3820   17.2522   11.1511 H   0  0  0  0  0  0  0  0  0  0  0  0
   23.8746   17.0560    8.7248 H   0  0  0  0  0  0  0  0  0  0  0  0
   20.9841   14.5237    5.1649 H   0  0  0  0  0  0  0  0  0  0  0  0
  1  2  1  0
  2  3  1  0
  3  4  2  0
  4  5  1  0
  5  6  1  0
  6  7  2  0
  6  8  2  0
  6  9  1  0
  9 10  2  0
 10 11  1  0
 11 12  2  0
 12 13  1  0
 13 14  2  0
 14 15  1  0
 15 16  1  0
 16 17  2  0
 16 18  1  0
 18 19  1  0
 19 20  1  0
 20 21  1  0
 21 22  1  0
 22 23  2  0
 22 24  1  0
 24 25  1  0
 25 26  2  0
 15 27  2  0
 27 28  1  0
 28 29  2  0
  5 30  1  0
 30 31  2  0
 31  3  1  0
 29  9  1  0
 28 12  1  0
 25 19  1  0
  1 32  1  0
  1 33  1  0
  1 34  1  0
  2 35  1  0
  2 36  1  0
  4 37  1  0
 10 38  1  0
 11 39  1  0
 14 40  1  0
 18 41  1  0
 19 42  1  1
 20 43  1  0
 20 44  1  0
 21 45  1  0
 21 46  1  0
 24 47  1  0
 27 48  1  0
 29 49  1  0
 30 50  1  0
M  END
>  <meeko>  (1151) 
{"is_sidechain": [true], "free_energy": -10.23, "intermolecular_energy": 0.0, "internal_energy": -10.23, "cluster_size": 20, "cluster_id": 1, "rank_in_cluster": 1}

>  <_RMSD_MCS_to_ref>  (1151) 
0.6426684820167995

$$$$
ligand
     RDKit          3D

 51 54  0  0  0  0  0  0  0  0999 V2000
   18.9090   19.1540    7.5370 C   0  0  0  0  0  0  0  0  0  0  0  0
   18.7730   17.6460    7.6780 C   0  0  0  0  0  0  0  0  0  0  0  0
   19.9010   16.9170    7.0370 C   0  0  0  0  0  0  0  0  0  0  0  0
   21.2520   17.2060    7.0680 C   0  0  0  0  0  0  0  0  0  0  0  0
   21.8210   16.2290    6.3040 N   0  0  0  0  0  0  0  0  0  0  0  0
   23.4670   15.9260    6.1600 S   0  0  0  0  0  6  0  0  0  0  0  0
   23.6060   15.0060    5.0490 O   0  0  0  0  0  0  0  0  0  0  0  0
   24.1130   17.2240    6.1830 O   0  0  0  0  0  0  0  0  0  0  0  0
   23.8650   15.0730    7.6640 C   0  0  0  0  0  0  0  0  0  0  0  0
   24.0030   13.6810    7.6530 C   0  0  0  0  0  0  0  0  0  0  0  0
   24.3200   13.0140    8.8360 C   0  0  0  0  0  0  0  0  0  0  0  0
   24.5060   13.7450   10.0160 C   0  0  0  0  0  0  0  0  0  0  0  0
   24.8370   13.0450   11.2850 C   0  0  0  0  0  0  0  0  0  0  0  0
   24.9290   11.8260   11.3460 O   0  0  0  0  0  0  0  0  0  0  0  0
   25.0280   13.8410   12.3900 N   0  0  0  0  0  0  0  0  0  0  0  0
   24.9080   15.2120   12.3910 C   0  0  0  0  0  0  0  0  0  0  0  0
   25.1210   15.9850   13.6610 C   0  0  0  0  0  0  0  0  0  0  0  0
   25.1130   15.4530   14.7640 O   0  0  0  0  0  0  0  0  0  0  0  0
   25.2900   17.3360   13.4700 N   0  0  0  0  0  0  0  0  0  0  0  0
   25.3380   18.2490   14.6060 C   0  0  1  0  0  0  0  0  0  0  0  0
   26.2900   17.7680   15.6960 C   0  0  0  0  0  0  0  0  0  0  0  0
   26.3270   18.7880   16.8230 C   0  0  0  0  0  0  0  0  0  0  0  0
   26.7060   20.1580   16.3120 C   0  0  0  0  0  0  0  0  0  0  0  0
   27.3570   20.9540   16.9810 O   0  0  0  0  0  0  0  0  0  0  0  0
   26.2570   20.4930   15.0590 N   0  0  0  0  0  0  0  0  0  0  0  0
   25.8080   19.6170   14.1020 C   0  0  0  0  0  0  0  0  0  0  0  0
   25.7750   19.9300   12.9130 O   0  0  0  0  0  0  0  0  0  0  0  0
   24.5910   15.8810   11.2730 C   0  0  0  0  0  0  0  0  0  0  0  0
   24.3820   15.1430   10.0260 C   0  0  0  0  0  0  0  0  0  0  0  0
   24.0630   15.8110    8.8390 C   0  0  0  0  0  0  0  0  0  0  0  0
   20.8540   15.3750    5.8800 C   0  0  0  0  0  0  0  0  0  0  0  0
   19.6710   15.7710    6.3020 N   0  0  0  0  0  0  0  0  0  0  0  0
   18.9504   19.6134    8.5356 H   0  0  0  0  0  0  0  0  0  0  0  0
   19.8320   19.3891    6.9867 H   0  0  0  0  0  0  0  0  0  0  0  0
   18.0430   19.5504    6.9867 H   0  0  0  0  0  0  0  0  0  0  0  0
   18.7489   17.3911    8.7478 H   0  0  0  0  0  0  0  0  0  0  0  0
   17.8443   17.3422    7.1728 H   0  0  0  0  0  0  0  0  0  0  0  0
   21.7540   18.0343    7.5894 H   0  0  0  0  0  0  0  0  0  0  0  0
   23.8626   13.1172    6.7190 H   0  0  0  0  0  0  0  0  0  0  0  0
   24.4235   11.9189    8.8423 H   0  0  0  0  0  0  0  0  0  0  0  0
   25.2777   13.3801   13.2766 H   0  0  0  0  0  0  0  0  0  0  0  0
   25.3837   17.7074   12.5139 H   0  0  0  0  0  0  0  0  0  0  0  0
   24.3316   18.3033   15.0467 H   0  0  0  0  0  0  0  0  0  0  0  0
   25.9405   16.8013   16.0877 H   0  0  0  0  0  0  0  0  0  0  0  0
   27.2994   17.6498   15.2752 H   0  0  0  0  0  0  0  0  0  0  0  0
   25.3324   18.8423   17.2898 H   0  0  0  0  0  0  0  0  0  0  0  0
   27.0838   18.4691   17.5548 H   0  0  0  0  0  0  0  0  0  0  0  0
   26.2569   21.4935   14.8142 H   0  0  0  0  0  0  0  0  0  0  0  0
   24.4888   16.9761   11.2926 H   0  0  0  0  0  0  0  0  0  0  0  0
   23.9683   16.9069    8.8279 H   0  0  0  0  0  0  0  0  0  0  0  0
   21.0337   14.4779    5.2694 H   0  0  0  0  0  0  0  0  0  0  0  0
  1  2  1  0
  2  3  1  0
  3  4  2  0
  4  5  1  0
  5  6  1  0
  6  7  2  0
  6  8  2  0
  6  9  1  0
  9 10  2  0
 10 11  1  0
 11 12  2  0
 12 13  1  0
 13 14  2  0
 13 15  1  0
 15 16  1  0
 16 17  1  0
 17 18  2  0
 17 19  1  0
 19 20  1  0
 20 21  1  0
 21 22  1  0
 22 23  1  0
 23 24  2  0
 23 25  1  0
 25 26  1  0
 26 27  2  0
 16 28  2  0
 28 29  1  0
 29 30  2  0
  5 31  1  0
 31 32  2  0
 32  3  1  0
 30  9  1  0
 29 12  1  0
 26 20  1  0
  1 33  1  0
  1 34  1  0
  1 35  1  0
  2 36  1  0
  2 37  1  0
  4 38  1  0
 10 39  1  0
 11 40  1  0
 15 41  1  0
 19 42  1  0
 20 43  1  1
 21 44  1  0
 21 45  1  0
 22 46  1  0
 22 47  1  0
 25 48  1  0
 28 49  1  0
 30 50  1  0
 31 51  1  0
M  END
>  <meeko>  (1152) 
{"is_sidechain": [true], "free_energy": -10.23, "intermolecular_energy": 0.0, "internal_energy": -10.23, "cluster_size": 19, "cluster_id": 1, "rank_in_cluster": 1}

>  <_RMSD_MCS_to_ref>  (1152) 
0.6013523648133979

$$$$
ligand
     RDKit          3D

 51 54  0  0  0  0  0  0  0  0999 V2000
   18.9090   19.1540    7.5370 C   0  0  0  0  0  0  0  0  0  0  0  0
   18.7730   17.6460    7.6780 C   0  0  0  0  0  0  0  0  0  0  0  0
   20.0960   16.9670    7.7470 C   0  0  0  0  0  0  0  0  0  0  0  0
   20.8960   16.7320    8.8480 C   0  0  0  0  0  0  0  0  0  0  0  0
   21.9740   16.0640    8.3390 N   0  0  0  0  0  0  0  0  0  0  0  0
   23.3760   15.6840    9.1860 S   0  0  0  0  0  6  0  0  0  0  0  0
   24.2980   15.1940    8.1740 O   0  0  0  0  0  0  0  0  0  0  0  0
   23.6730   16.8290   10.0200 O   0  0  0  0  0  0  0  0  0  0  0  0
   22.8930   14.3350   10.2310 C   0  0  0  0  0  0  0  0  0  0  0  0
   22.1830   13.2740    9.6440 C   0  0  0  0  0  0  0  0  0  0  0  0
   21.8030   12.1750   10.4120 C   0  0  0  0  0  0  0  0  0  0  0  0
   22.1220   12.1330   11.7660 C   0  0  0  0  0  0  0  0  0  0  0  0
   22.8120   13.2020   12.3530 C   0  0  0  0  0  0  0  0  0  0  0  0
   23.1460   13.1490   13.8010 C   0  0  0  0  0  0  0  0  0  0  0  0
   22.8270   12.1920   14.4970 O   0  0  0  0  0  0  0  0  0  0  0  0
   23.8890   14.2850   14.3860 C   0  0  0  0  0  0  0  0  0  0  0  0
   24.1800   15.3260   13.5950 C   0  0  0  0  0  0  0  0  0  0  0  0
   24.9310   16.4690   14.2210 C   0  0  0  0  0  0  0  0  0  0  0  0
   26.1520   16.5640   14.1800 O   0  0  0  0  0  0  0  0  0  0  0  0
   24.1160   17.3800   14.8530 N   0  0  0  0  0  0  0  0  0  0  0  0
   24.6770   18.4620   15.6500 C   0  0  1  0  0  0  0  0  0  0  0  0
   25.7590   17.9680   16.6040 C   0  0  0  0  0  0  0  0  0  0  0  0
   26.3340   19.1470   17.3720 C   0  0  0  0  0  0  0  0  0  0  0  0
   26.8560   20.2110   16.4350 C   0  0  0  0  0  0  0  0  0  0  0  0
   27.8270   20.9100   16.7080 O   0  0  0  0  0  0  0  0  0  0  0  0
   26.1670   20.3870   15.2620 N   0  0  0  0  0  0  0  0  0  0  0  0
   25.2760   19.5050   14.7020 C   0  0  0  0  0  0  0  0  0  0  0  0
   24.9710   19.5750   13.5120 O   0  0  0  0  0  0  0  0  0  0  0  0
   23.8300   15.3940   12.2610 N   0  0  0  0  0  0  0  0  0  0  0  0
   23.2130   14.3220   11.5990 C   0  0  0  0  0  0  0  0  0  0  0  0
   21.8310   15.9400    6.9960 C   0  0  0  0  0  0  0  0  0  0  0  0
   20.6950   16.4780    6.6020 N   0  0  0  0  0  0  0  0  0  0  0  0
   18.9504   19.6134    8.5356 H   0  0  0  0  0  0  0  0  0  0  0  0
   19.8320   19.3891    6.9867 H   0  0  0  0  0  0  0  0  0  0  0  0
   18.0430   19.5504    6.9867 H   0  0  0  0  0  0  0  0  0  0  0  0
   18.2129   17.4252    8.5986 H   0  0  0  0  0  0  0  0  0  0  0  0
   18.2457   17.2695    6.7891 H   0  0  0  0  0  0  0  0  0  0  0  0
   20.7086   17.0169    9.8938 H   0  0  0  0  0  0  0  0  0  0  0  0
   21.9263   13.3110    8.5750 H   0  0  0  0  0  0  0  0  0  0  0  0
   21.2523   11.3428    9.9492 H   0  0  0  0  0  0  0  0  0  0  0  0
   21.8332   11.2629   12.3738 H   0  0  0  0  0  0  0  0  0  0  0  0
   24.1948   14.2757   15.4426 H   0  0  0  0  0  0  0  0  0  0  0  0
   23.0936   17.2953   14.7609 H   0  0  0  0  0  0  0  0  0  0  0  0
   23.8708   18.8968   16.2591 H   0  0  0  0  0  0  0  0  0  0  0  0
   25.3230   17.2472   17.3113 H   0  0  0  0  0  0  0  0  0  0  0  0
   26.5595   17.4793   16.0292 H   0  0  0  0  0  0  0  0  0  0  0  0
   25.5456   19.5817   18.0040 H   0  0  0  0  0  0  0  0  0  0  0  0
   27.1711   18.7854   17.9872 H   0  0  0  0  0  0  0  0  0  0  0  0
   26.3342   21.2660   14.7518 H   0  0  0  0  0  0  0  0  0  0  0  0
   24.0279   16.2579   11.7361 H   0  0  0  0  0  0  0  0  0  0  0  0
   22.5612   15.4578    6.3294 H   0  0  0  0  0  0  0  0  0  0  0  0
  1  2  1  0
  2  3  1  0
  3  4  2  0
  4  5  1  0
  5  6  1  0
  6  7  2  0
  6  8  2  0
  6  9  1  0
  9 10  2  0
 10 11  1  0
 11 12  2  0
 12 13  1  0
 13 14  1  0
 14 15  2  0
 14 16  1  0
 16 17  2  0
 17 18  1  0
 18 19  2  0
 18 20  1  0
 20 21  1  0
 21 22  1  0
 22 23  1  0
 23 24  1  0
 24 25  2  0
 24 26  1  0
 26 27  1  0
 27 28  2  0
 17 29  1  0
 29 30  1  0
  5 31  1  0
 31 32  2  0
 32  3  1  0
 30  9  1  0
 30 13  2  0
 27 21  1  0
  1 33  1  0
  1 34  1  0
  1 35  1  0
  2 36  1  0
  2 37  1  0
  4 38  1  0
 10 39  1  0
 11 40  1  0
 12 41  1  0
 16 42  1  0
 20 43  1  0
 21 44  1  1
 22 45  1  0
 22 46  1  0
 23 47  1  0
 23 48  1  0
 26 49  1  0
 29 50  1  0
 31 51  1  0
M  END
>  <meeko>  (1153) 
{"is_sidechain": [true], "free_energy": -10.23, "intermolecular_energy": 0.0, "internal_energy": -10.23, "cluster_size": 20, "cluster_id": 1, "rank_in_cluster": 1}

>  <_RMSD_MCS_to_ref>  (1153) 
0.7989411743050926

$$$$
ligand
     RDKit          3D

 52 55  0  0  0  0  0  0  0  0999 V2000
   18.9090   19.1540    7.5370 C   0  0  0  0  0  0  0  0  0  0  0  0
   18.7730   17.6460    7.6780 C   0  0  0  0  0  0  0  0  0  0  0  0
   20.0840   16.9520    7.5640 C   0  0  0  0  0  0  0  0  0  0  0  0
   20.5630   15.8810    8.2940 C   0  0  0  0  0  0  0  0  0  0  0  0
   21.7840   15.6210    7.7430 N   0  0  0  0  0  0  0  0  0  0  0  0
   22.9010   14.4820    8.2550 S   0  0  0  0  0  6  0  0  0  0  0  0
   22.0950   13.3080    8.5500 O   0  0  0  0  0  0  0  0  0  0  0  0
   23.9570   14.4040    7.2610 O   0  0  0  0  0  0  0  0  0  0  0  0
   23.5700   15.1240    9.7800 C   0  0  0  0  0  0  0  0  0  0  0  0
   22.9850   16.3070   10.1370 N   0  0  0  0  0  0  0  0  0  0  0  0
   23.2660   16.7900   11.3680 C   0  0  0  0  0  0  0  0  0  0  0  0
   24.0640   16.1300   12.2940 C   0  0  0  0  0  0  0  0  0  0  0  0
   24.3170   16.7680   13.6070 C   0  0  0  0  0  0  0  0  0  0  0  0
   23.9410   16.2300   14.6390 O   0  0  0  0  0  0  0  0  0  0  0  0
   24.9630   17.9830   13.5760 N   0  0  0  0  0  0  0  0  0  0  0  0
   25.1430   18.7700   14.7920 C   0  0  1  0  0  0  0  0  0  0  0  0
   26.0340   18.0650   15.8080 C   0  0  0  0  0  0  0  0  0  0  0  0
   26.2140   18.9560   17.0280 C   0  0  0  0  0  0  0  0  0  0  0  0
   26.7590   20.3120   16.6430 C   0  0  0  0  0  0  0  0  0  0  0  0
   27.5130   20.9500   17.3710 O   0  0  0  0  0  0  0  0  0  0  0  0
   26.3440   20.8230   15.4390 N   0  0  0  0  0  0  0  0  0  0  0  0
   25.7800   20.1100   14.4120 C   0  0  0  0  0  0  0  0  0  0  0  0
   25.7790   20.5370   13.2580 O   0  0  0  0  0  0  0  0  0  0  0  0
   24.6520   14.9080   11.9200 C   0  0  0  0  0  0  0  0  0  0  0  0
   24.4330   14.4180   10.6090 C   0  0  0  0  0  0  0  0  0  0  0  0
   25.1970   13.2370   10.1510 C   0  0  0  0  0  0  0  0  0  0  0  0
   25.4050   13.0380    8.9650 O   0  0  0  0  0  0  0  0  0  0  0  0
   25.7490   12.4360   11.1150 N   0  0  0  0  0  0  0  0  0  0  0  0
   25.4980   12.6350   12.5200 C   0  0  0  0  0  0  0  0  0  0  0  0
   25.5360   14.1200   12.8650 C   0  0  0  0  0  0  0  0  0  0  0  0
   22.0530   16.5610    6.7980 C   0  0  0  0  0  0  0  0  0  0  0  0
   21.0220   17.3640    6.6370 N   0  0  0  0  0  0  0  0  0  0  0  0
   18.9504   19.6134    8.5356 H   0  0  0  0  0  0  0  0  0  0  0  0
   19.8320   19.3891    6.9867 H   0  0  0  0  0  0  0  0  0  0  0  0
   18.0430   19.5504    6.9867 H   0  0  0  0  0  0  0  0  0  0  0  0
   18.3365   17.4198    8.6620 H   0  0  0  0  0  0  0  0  0  0  0  0
   18.1279   17.2867    6.8627 H   0  0  0  0  0  0  0  0  0  0  0  0
   20.0725   15.3579    9.1281 H   0  0  0  0  0  0  0  0  0  0  0  0
   22.8378   17.7623   11.6530 H   0  0  0  0  0  0  0  0  0  0  0  0
   25.3249   18.3423   12.6811 H   0  0  0  0  0  0  0  0  0  0  0  0
   24.1569   18.9126   15.2581 H   0  0  0  0  0  0  0  0  0  0  0  0
   25.5653   17.1174   16.1118 H   0  0  0  0  0  0  0  0  0  0  0  0
   27.0154   17.8597   15.3555 H   0  0  0  0  0  0  0  0  0  0  0  0
   25.2400   19.0885   17.5216 H   0  0  0  0  0  0  0  0  0  0  0  0
   26.9324   18.4734   17.7070 H   0  0  0  0  0  0  0  0  0  0  0  0
   26.4674   21.8351   15.2931 H   0  0  0  0  0  0  0  0  0  0  0  0
   26.3657   11.6636   10.8254 H   0  0  0  0  0  0  0  0  0  0  0  0
   24.5065   12.2304   12.7713 H   0  0  0  0  0  0  0  0  0  0  0  0
   26.2773   12.1159   13.0973 H   0  0  0  0  0  0  0  0  0  0  0  0
   25.1797   14.2612   13.8961 H   0  0  0  0  0  0  0  0  0  0  0  0
   26.5705   14.4810   12.7680 H   0  0  0  0  0  0  0  0  0  0  0  0
   23.0005   16.6397    6.2448 H   0  0  0  0  0  0  0  0  0  0  0  0
  1  2  1  0
  2  3  1  0
  3  4  2  0
  4  5  1  0
  5  6  1  0
  6  7  2  0
  6  8  2  0
  6  9  1  0
  9 10  2  0
 10 11  1  0
 11 12  2  0
 12 13  1  0
 13 14  2  0
 13 15  1  0
 15 16  1  0
 16 17  1  0
 17 18  1  0
 18 19  1  0
 19 20  2  0
 19 21  1  0
 21 22  1  0
 22 23  2  0
 12 24  1  0
 24 25  2  0
 25 26  1  0
 26 27  2  0
 26 28  1  0
 28 29  1  0
 29 30  1  0
  5 31  1  0
 31 32  2  0
 32  3  1  0
 25  9  1  0
 22 16  1  0
 30 24  1  0
  1 33  1  0
  1 34  1  0
  1 35  1  0
  2 36  1  0
  2 37  1  0
  4 38  1  0
 11 39  1  0
 15 40  1  0
 16 41  1  1
 17 42  1  0
 17 43  1  0
 18 44  1  0
 18 45  1  0
 21 46  1  0
 28 47  1  0
 29 48  1  0
 29 49  1  0
 30 50  1  0
 30 51  1  0
 31 52  1  0
M  END
>  <meeko>  (1154) 
{"is_sidechain": [true], "free_energy": -10.23, "intermolecular_energy": 0.0, "internal_energy": -10.23, "cluster_size": 20, "cluster_id": 1, "rank_in_cluster": 1}

>  <_RMSD_MCS_to_ref>  (1154) 
0.6240777195189717

$$$$
ligand
     RDKit          3D

 50 53  0  0  0  0  0  0  0  0999 V2000
   18.9090   19.1540    7.5370 C   0  0  0  0  0  0  0  0  0  0  0  0
   18.7730   17.6460    7.6780 C   0  0  0  0  0  0  0  0  0  0  0  0
   20.0710   16.9440    7.4830 C   0  0  0  0  0  0  0  0  0  0  0  0
   21.0090   16.5750    8.4260 C   0  0  0  0  0  0  0  0  0  0  0  0
   21.9810   15.9450    7.7030 N   0  0  0  0  0  0  0  0  0  0  0  0
   23.4760   15.4450    8.2840 S   0  0  0  0  0  6  0  0  0  0  0  0
   24.4230   16.4570    7.8590 O   0  0  0  0  0  0  0  0  0  0  0  0
   23.6040   14.0520    7.8970 O   0  0  0  0  0  0  0  0  0  0  0  0
   23.2900   15.5320   10.0420 C   0  0  0  0  0  0  0  0  0  0  0  0
   22.4000   14.6700   10.6840 C   0  0  0  0  0  0  0  0  0  0  0  0
   22.2630   14.7370   12.0700 C   0  0  0  0  0  0  0  0  0  0  0  0
   23.0210   15.6470   12.8230 C   0  0  0  0  0  0  0  0  0  0  0  0
   23.9130   16.5180   12.1700 C   0  0  0  0  0  0  0  0  0  0  0  0
   24.0550   16.4440   10.7750 C   0  0  0  0  0  0  0  0  0  0  0  0
   24.7700   17.4980   12.9390 C   0  0  0  0  0  0  0  0  0  0  0  0
   24.2910   17.7300   14.3840 C   0  0  2  0  0  0  0  0  0  0  0  0
   25.2360   18.5620   15.1550 N   0  0  0  0  0  0  0  0  0  0  0  0
   26.2710   17.9350   15.9690 C   0  0  0  0  0  0  0  0  0  0  0  0
   26.6930   18.8590   17.0900 C   0  0  0  0  0  0  0  0  0  0  0  0
   27.0860   20.1870   16.5120 C   0  0  0  0  0  0  0  0  0  0  0  0
   27.8510   20.9550   17.0900 O   0  0  0  0  0  0  0  0  0  0  0  0
   26.4800   20.5310   15.3350 N   0  0  0  0  0  0  0  0  0  0  0  0
   25.4700   19.8560   14.7030 C   0  0  0  0  0  0  0  0  0  0  0  0
   24.8350   20.3960   13.8030 O   0  0  0  0  0  0  0  0  0  0  0  0
   23.9690   16.3880   15.0510 C   0  0  0  0  0  0  0  0  0  0  0  0
   22.8160   15.7040   14.3180 C   0  0  0  0  0  0  0  0  0  0  0  0
   21.6540   15.9890    6.3860 C   0  0  0  0  0  0  0  0  0  0  0  0
   20.4890   16.5790    6.2180 N   0  0  0  0  0  0  0  0  0  0  0  0
   18.9504   19.6134    8.5356 H   0  0  0  0  0  0  0  0  0  0  0  0
   19.8320   19.3891    6.9867 H   0  0  0  0  0  0  0  0  0  0  0  0
   18.0430   19.5504    6.9867 H   0  0  0  0  0  0  0  0  0  0  0  0
   18.3942   17.4170    8.6850 H   0  0  0  0  0  0  0  0  0  0  0  0
   18.0790   17.2952    6.9000 H   0  0  0  0  0  0  0  0  0  0  0  0
   20.9801   16.7488    9.5118 H   0  0  0  0  0  0  0  0  0  0  0  0
   21.8122   13.9447   10.1023 H   0  0  0  0  0  0  0  0  0  0  0  0
   21.5527   14.0689   12.5791 H   0  0  0  0  0  0  0  0  0  0  0  0
   24.7682   17.1036   10.2590 H   0  0  0  0  0  0  0  0  0  0  0  0
   25.7989   17.1103   12.9712 H   0  0  0  0  0  0  0  0  0  0  0  0
   24.7046   18.4641   12.4172 H   0  0  0  0  0  0  0  0  0  0  0  0
   23.3581   18.3124   14.3601 H   0  0  0  0  0  0  0  0  0  0  0  0
   25.8787   17.0010   16.3976 H   0  0  0  0  0  0  0  0  0  0  0  0
   27.1439   17.7226   15.3343 H   0  0  0  0  0  0  0  0  0  0  0  0
   25.8552   18.9955   17.7896 H   0  0  0  0  0  0  0  0  0  0  0  0
   27.5474   18.4221   17.6278 H   0  0  0  0  0  0  0  0  0  0  0  0
   26.8191   21.3882   14.8756 H   0  0  0  0  0  0  0  0  0  0  0  0
   24.8580   15.7411   15.0159 H   0  0  0  0  0  0  0  0  0  0  0  0
   23.6778   16.5650   16.0969 H   0  0  0  0  0  0  0  0  0  0  0  0
   22.7188   14.6764   14.6983 H   0  0  0  0  0  0  0  0  0  0  0  0
   21.9085   16.2972   14.5042 H   0  0  0  0  0  0  0  0  0  0  0  0
   22.2760   15.5875    5.5724 H   0  0  0  0  0  0  0  0  0  0  0  0
  1  2  1  0
  2  3  1  0
  3  4  2  0
  4  5  1  0
  5  6  1  0
  6  7  2  0
  6  8  2  0
  6  9  1  0
  9 10  2  0
 10 11  1  0
 11 12  2  0
 12 13  1  0
 13 14  2  0
 13 15  1  0
 15 16  1  0
 16 17  1  0
 17 18  1  0
 18 19  1  0
 19 20  1  0
 20 21  2  0
 20 22  1  0
 22 23  1  0
 23 24  2  0
 16 25  1  0
 25 26  1  0
  5 27  1  0
 27 28  2  0
 28  3  1  0
 14  9  1  0
 23 17  1  0
 26 12  1  0
  1 29  1  0
  1 30  1  0
  1 31  1  0
  2 32  1  0
  2 33  1  0
  4 34  1  0
 10 35  1  0
 11 36  1  0
 14 37  1  0
 15 38  1  0
 15 39  1  0
 16 40  1  6
 18 41  1  0
 18 42  1  0
 19 43  1  0
 19 44  1  0
 22 45  1  0
 25 46  1  0
 25 47  1  0
 26 48  1  0
 26 49  1  0
 27 50  1  0
M  END
>  <meeko>  (1155) 
{"is_sidechain": [true], "free_energy": -10.23, "intermolecular_energy": 0.0, "internal_energy": -10.23, "cluster_size": 20, "cluster_id": 1, "rank_in_cluster": 1}

>  <_RMSD_MCS_to_ref>  (1155) 
0.532181594946687

$$$$
ligand
     RDKit          3D

 45 47  0  0  0  0  0  0  0  0999 V2000
   18.9090   19.1540    7.5370 C   0  0  0  0  0  0  0  0  0  0  0  0
   18.7730   17.6460    7.6780 C   0  0  0  0  0  0  0  0  0  0  0  0
   20.0930   16.9590    7.6560 C   0  0  0  0  0  0  0  0  0  0  0  0
   20.9240   16.6400    8.7110 C   0  0  0  0  0  0  0  0  0  0  0  0
   21.9800   16.0020    8.1260 N   0  0  0  0  0  0  0  0  0  0  0  0
   23.4480   15.6360    8.8810 S   0  0  0  0  0  6  0  0  0  0  0  0
   23.8390   14.3630    8.3060 O   0  0  0  0  0  0  0  0  0  0  0  0
   24.2590   16.8230    8.6770 O   0  0  0  0  0  0  0  0  0  0  0  0
   23.0850   15.4250   10.5740 C   0  0  0  0  0  0  0  0  0  0  0  0
   23.9930   15.9200   11.5910 C   0  0  0  0  0  0  0  0  0  0  0  0
   23.6960   15.7460   12.8870 C   0  0  0  0  0  0  0  0  0  0  0  0
   24.6390   16.2570   13.9340 C   0  0  0  0  0  0  0  0  0  0  0  0
   25.1690   15.5140   14.7500 O   0  0  0  0  0  0  0  0  0  0  0  0
   24.8680   17.6100   13.8720 N   0  0  0  0  0  0  0  0  0  0  0  0
   25.8850   18.2350   14.7080 C   0  0  2  0  0  0  0  0  0  0  0  0
   25.6710   17.9530   16.1910 C   0  0  0  0  0  0  0  0  0  0  0  0
   26.7350   18.6760   17.0040 C   0  0  0  0  0  0  0  0  0  0  0  0
   26.7400   20.1580   16.7060 C   0  0  0  0  0  0  0  0  0  0  0  0
   27.0110   20.9990   17.5570 O   0  0  0  0  0  0  0  0  0  0  0  0
   26.4550   20.5270   15.4160 N   0  0  0  0  0  0  0  0  0  0  0  0
   25.8320   19.7480   14.4750 C   0  0  0  0  0  0  0  0  0  0  0  0
   25.2770   20.2440   13.4940 O   0  0  0  0  0  0  0  0  0  0  0  0
   22.5400   15.0890   13.2430 N   0  0  0  0  0  0  0  0  0  0  0  0
   21.6390   14.5820   12.3440 C   0  0  0  0  0  0  0  0  0  0  0  0
   20.6310   13.9790   12.6900 O   0  0  0  0  0  0  0  0  0  0  0  0
   21.9500   14.7910   10.9110 C   0  0  0  0  0  0  0  0  0  0  0  0
   21.8080   16.0020    6.7780 C   0  0  0  0  0  0  0  0  0  0  0  0
   20.6610   16.5650    6.4600 N   0  0  0  0  0  0  0  0  0  0  0  0
   18.9504   19.6134    8.5356 H   0  0  0  0  0  0  0  0  0  0  0  0
   19.8320   19.3891    6.9867 H   0  0  0  0  0  0  0  0  0  0  0  0
   18.0430   19.5504    6.9867 H   0  0  0  0  0  0  0  0  0  0  0  0
   18.2732   17.4229    8.6321 H   0  0  0  0  0  0  0  0  0  0  0  0
   18.1860   17.2781    6.8235 H   0  0  0  0  0  0  0  0  0  0  0  0
   20.7705   16.8516    9.7795 H   0  0  0  0  0  0  0  0  0  0  0  0
   24.9204   16.4354   11.3007 H   0  0  0  0  0  0  0  0  0  0  0  0
   24.3137   18.1903   13.2263 H   0  0  0  0  0  0  0  0  0  0  0  0
   26.8636   17.8158   14.4312 H   0  0  0  0  0  0  0  0  0  0  0  0
   24.6747   18.3093   16.4919 H   0  0  0  0  0  0  0  0  0  0  0  0
   25.7438   16.8705   16.3724 H   0  0  0  0  0  0  0  0  0  0  0  0
   26.5314   18.5263   18.0746 H   0  0  0  0  0  0  0  0  0  0  0  0
   27.7185   18.2639   16.7340 H   0  0  0  0  0  0  0  0  0  0  0  0
   26.7344   21.4756   15.1279 H   0  0  0  0  0  0  0  0  0  0  0  0
   22.3401   14.9714   14.2466 H   0  0  0  0  0  0  0  0  0  0  0  0
   21.2604   14.4317   10.1330 H   0  0  0  0  0  0  0  0  0  0  0  0
   22.5262   15.5895    6.0541 H   0  0  0  0  0  0  0  0  0  0  0  0
  1  2  1  0
  2  3  1  0
  3  4  2  0
  4  5  1  0
  5  6  1  0
  6  7  2  0
  6  8  2  0
  6  9  1  0
  9 10  1  0
 10 11  2  0
 11 12  1  0
 12 13  2  0
 12 14  1  0
 14 15  1  0
 15 16  1  0
 16 17  1  0
 17 18  1  0
 18 19  2  0
 18 20  1  0
 20 21  1  0
 21 22  2  0
 11 23  1  0
 23 24  1  0
 24 25  2  0
 24 26  1  0
  5 27  1  0
 27 28  2  0
 28  3  1  0
 26  9  2  0
 21 15  1  0
  1 29  1  0
  1 30  1  0
  1 31  1  0
  2 32  1  0
  2 33  1  0
  4 34  1  0
 10 35  1  0
 14 36  1  0
 15 37  1  6
 16 38  1  0
 16 39  1  0
 17 40  1  0
 17 41  1  0
 20 42  1  0
 23 43  1  0
 26 44  1  0
 27 45  1  0
M  END
>  <meeko>  (1156) 
{"is_sidechain": [true], "free_energy": -10.23, "intermolecular_energy": 0.0, "internal_energy": -10.23, "cluster_size": 20, "cluster_id": 1, "rank_in_cluster": 1}

>  <_RMSD_MCS_to_ref>  (1156) 
0.6288953278037079

$$$$
ligand
     RDKit          3D

 55 59  0  0  0  0  0  0  0  0999 V2000
   18.8250   19.0170    7.5350 C   0  0  0  0  0  0  0  0  0  0  0  0
   18.5200   17.5420    7.7330 C   0  0  0  0  0  0  0  0  0  0  0  0
   19.7520   16.7370    7.9510 C   0  0  0  0  0  0  0  0  0  0  0  0
   20.5160   16.6090    9.0950 C   0  0  0  0  0  0  0  0  0  0  0  0
   21.5080   15.7410    8.7390 N   0  0  0  0  0  0  0  0  0  0  0  0
   22.8410   15.3410    9.6800 S   0  0  0  0  0  6  0  0  0  0  0  0
   23.7920   16.4210    9.5260 O   0  0  0  0  0  0  0  0  0  0  0  0
   23.1640   13.9730    9.3230 O   0  0  0  0  0  0  0  0  0  0  0  0
   22.2240   15.3700   11.3350 C   0  0  0  0  0  0  0  0  0  0  0  0
   21.0980   14.5910   11.6600 C   0  0  0  0  0  0  0  0  0  0  0  0
   20.5650   14.5440   12.9760 C   0  0  0  0  0  0  0  0  0  0  0  0
   19.3950   13.6880   13.2720 C   0  0  0  0  0  0  0  0  0  0  0  0
   19.4690   12.3000   13.4010 C   0  0  0  0  0  0  0  0  0  0  0  0
   18.3100   11.5750   13.6760 C   0  0  0  0  0  0  0  0  0  0  0  0
   17.1040   12.2470   13.8190 C   0  0  0  0  0  0  0  0  0  0  0  0
   17.1080   13.6220   13.6850 C   0  0  0  0  0  0  0  0  0  0  0  0
   18.2170   14.3480   13.4220 N   0  0  0  0  0  0  0  0  0  0  0  0
   21.1970   15.3150   13.9660 C   0  0  0  0  0  0  0  0  0  0  0  0
   22.2880   16.0940   13.6100 C   0  0  0  0  0  0  0  0  0  0  0  0
   22.8100   16.1440   12.3190 C   0  0  0  0  0  0  0  0  0  0  0  0
   23.9840   17.0670   12.2860 C   0  0  0  0  0  0  0  0  0  0  0  0
   24.0370   17.5680   13.6540 N   0  0  0  0  0  0  0  0  0  0  0  0
   25.1870   18.2820   14.1980 C   0  0  2  0  0  0  0  0  0  0  0  0
   25.4890   17.8930   15.6420 C   0  0  0  0  0  0  0  0  0  0  0  0
   26.7450   18.6150   16.1060 C   0  0  0  0  0  0  0  0  0  0  0  0
   26.6100   20.1110   15.9380 C   0  0  0  0  0  0  0  0  0  0  0  0
   27.1100   20.9080   16.7260 O   0  0  0  0  0  0  0  0  0  0  0  0
   25.9150   20.5460   14.8390 N   0  0  0  0  0  0  0  0  0  0  0  0
   25.0020   19.8080   14.1210 C   0  0  0  0  0  0  0  0  0  0  0  0
   24.1120   20.3680   13.4840 O   0  0  0  0  0  0  0  0  0  0  0  0
   23.0990   16.9620   14.4700 C   0  0  0  0  0  0  0  0  0  0  0  0
   22.9460   17.0900   15.6690 O   0  0  0  0  0  0  0  0  0  0  0  0
   21.3650   15.4130    7.4300 C   0  0  0  0  0  0  0  0  0  0  0  0
   20.2950   15.9890    6.9240 N   0  0  0  0  0  0  0  0  0  0  0  0
   18.9260   19.5054    8.5155 H   0  0  0  0  0  0  0  0  0  0  0  0
   19.7645   19.1250    6.9731 H   0  0  0  0  0  0  0  0  0  0  0  0
   18.0054   19.4887    6.9731 H   0  0  0  0  0  0  0  0  0  0  0  0
   17.8644   17.4305    8.6092 H   0  0  0  0  0  0  0  0  0  0  0  0
   18.0329   17.1725    6.8185 H   0  0  0  0  0  0  0  0  0  0  0  0
   20.3607   17.0951   10.0695 H   0  0  0  0  0  0  0  0  0  0  0  0
   20.6146   13.9989   10.8689 H   0  0  0  0  0  0  0  0  0  0  0  0
   20.4330   11.7827   13.2867 H   0  0  0  0  0  0  0  0  0  0  0  0
   18.3511   10.4806   13.7787 H   0  0  0  0  0  0  0  0  0  0  0  0
   16.1731   11.7012   14.0326 H   0  0  0  0  0  0  0  0  0  0  0  0
   16.1535   14.1566   13.7990 H   0  0  0  0  0  0  0  0  0  0  0  0
   20.8334   15.3011   15.0041 H   0  0  0  0  0  0  0  0  0  0  0  0
   24.9061   16.5267   12.0256 H   0  0  0  0  0  0  0  0  0  0  0  0
   23.8917   17.8635   11.5329 H   0  0  0  0  0  0  0  0  0  0  0  0
   26.0398   17.9854   13.5697 H   0  0  0  0  0  0  0  0  0  0  0  0
   24.6427   18.1787   16.2840 H   0  0  0  0  0  0  0  0  0  0  0  0
   25.6446   16.8059   15.7055 H   0  0  0  0  0  0  0  0  0  0  0  0
   26.9177   18.3875   17.1683 H   0  0  0  0  0  0  0  0  0  0  0  0
   27.5909   18.2709   15.4927 H   0  0  0  0  0  0  0  0  0  0  0  0
   26.0919   21.5102   14.5230 H   0  0  0  0  0  0  0  0  0  0  0  0
   22.0479   14.7573    6.8699 H   0  0  0  0  0  0  0  0  0  0  0  0
  1  2  1  0
  2  3  1  0
  3  4  2  0
  4  5  1  0
  5  6  1  0
  6  7  2  0
  6  8  2  0
  6  9  1  0
  9 10  2  0
 10 11  1  0
 11 12  1  0
 12 13  2  0
 13 14  1  0
 14 15  2  0
 15 16  1  0
 16 17  2  0
 11 18  2  0
 18 19  1  0
 19 20  2  0
 20 21  1  0
 21 22  1  0
 22 23  1  0
 23 24  1  0
 24 25  1  0
 25 26  1  0
 26 27  2  0
 26 28  1  0
 28 29  1  0
 29 30  2  0
 22 31  1  0
 31 32  2  0
  5 33  1  0
 33 34  2  0
 34  3  1  0
 20  9  1  0
 29 23  1  0
 17 12  1  0
 31 19  1  0
  1 35  1  0
  1 36  1  0
  1 37  1  0
  2 38  1  0
  2 39  1  0
  4 40  1  0
 10 41  1  0
 13 42  1  0
 14 43  1  0
 15 44  1  0
 16 45  1  0
 18 46  1  0
 21 47  1  0
 21 48  1  0
 23 49  1  6
 24 50  1  0
 24 51  1  0
 25 52  1  0
 25 53  1  0
 28 54  1  0
 33 55  1  0
M  END
>  <meeko>  (1157) 
{"is_sidechain": [true], "free_energy": -10.22, "intermolecular_energy": 0.0, "internal_energy": -10.22, "cluster_size": 13, "cluster_id": 1, "rank_in_cluster": 1}

>  <_RMSD_MCS_to_ref>  (1157) 
1.543505371980718

$$$$
ligand
     RDKit          3D

 45 48  0  0  0  0  0  0  0  0999 V2000
   18.7970   18.8160    7.7190 C   0  0  0  0  0  0  0  0  0  0  0  0
   18.5280   17.3300    7.8810 C   0  0  0  0  0  0  0  0  0  0  0  0
   19.7740   16.5210    7.7920 C   0  0  0  0  0  0  0  0  0  0  0  0
   20.6620   16.1830    8.7940 C   0  0  0  0  0  0  0  0  0  0  0  0
   21.6240   15.4500    8.1580 N   0  0  0  0  0  0  0  0  0  0  0  0
   22.8700   14.5970    8.8970 S   0  0  0  0  0  6  0  0  0  0  0  0
   24.0280   15.4700    8.8450 O   0  0  0  0  0  0  0  0  0  0  0  0
   22.8590   13.2810    8.2870 O   0  0  0  0  0  0  0  0  0  0  0  0
   22.3810   14.4260   10.5880 C   0  0  0  0  0  0  0  0  0  0  0  0
   21.4840   13.4490   10.9450 C   0  0  0  0  0  0  0  0  0  0  0  0
   21.1750   13.4300   12.2810 C   0  0  0  0  0  0  0  0  0  0  0  0
   21.6980   14.2900   13.1770 N   0  0  0  0  0  0  0  0  0  0  0  0
   22.5720   15.2040   12.7150 C   0  0  0  0  0  0  0  0  0  0  0  0
   23.1520   16.1460   13.6540 C   0  0  0  0  0  0  0  0  0  0  0  0
   24.5000   16.3980   13.8160 C   0  0  0  0  0  0  0  0  0  0  0  0
   24.5440   17.3340   14.8060 N   0  0  0  0  0  0  0  0  0  0  0  0
   25.6960   18.0410   15.3430 C   0  0  2  0  0  0  0  0  0  0  0  0
   25.6760   18.0420   16.8720 C   0  0  0  0  0  0  0  0  0  0  0  0
   26.9120   18.7530   17.4000 C   0  0  0  0  0  0  0  0  0  0  0  0
   27.0150   20.1540   16.8470 C   0  0  0  0  0  0  0  0  0  0  0  0
   27.6100   21.0520   17.4340 O   0  0  0  0  0  0  0  0  0  0  0  0
   26.4580   20.3630   15.6100 N   0  0  0  0  0  0  0  0  0  0  0  0
   25.7950   19.4590   14.8090 C   0  0  0  0  0  0  0  0  0  0  0  0
   25.3710   19.8160   13.7120 O   0  0  0  0  0  0  0  0  0  0  0  0
   23.3060   17.6850   15.2010 N   0  0  0  0  0  0  0  0  0  0  0  0
   22.4420   16.9450   14.5140 N   0  0  0  0  0  0  0  0  0  0  0  0
   22.9440   15.3150   11.4300 N   0  0  0  0  0  0  0  0  0  0  0  0
   21.2930   15.3290    6.8460 C   0  0  0  0  0  0  0  0  0  0  0  0
   20.1730   15.9740    6.5870 N   0  0  0  0  0  0  0  0  0  0  0  0
   18.8816   19.2836    8.7111 H   0  0  0  0  0  0  0  0  0  0  0  0
   19.7359   18.9603    7.1643 H   0  0  0  0  0  0  0  0  0  0  0  0
   17.9683   19.2803    7.1643 H   0  0  0  0  0  0  0  0  0  0  0  0
   18.0638   17.1589    8.8635 H   0  0  0  0  0  0  0  0  0  0  0  0
   17.8619   17.0160    7.0638 H   0  0  0  0  0  0  0  0  0  0  0  0
   20.6074   16.4443    9.8611 H   0  0  0  0  0  0  0  0  0  0  0  0
   21.0508   12.7426   10.2216 H   0  0  0  0  0  0  0  0  0  0  0  0
   20.4626   12.6727   12.6402 H   0  0  0  0  0  0  0  0  0  0  0  0
   25.3433   15.9476   13.2720 H   0  0  0  0  0  0  0  0  0  0  0  0
   26.5913   17.4984   15.0054 H   0  0  0  0  0  0  0  0  0  0  0  0
   24.7747   18.5642   17.2256 H   0  0  0  0  0  0  0  0  0  0  0  0
   25.6687   17.0043   17.2370 H   0  0  0  0  0  0  0  0  0  0  0  0
   26.8552   18.8039   18.4974 H   0  0  0  0  0  0  0  0  0  0  0  0
   27.8007   18.1876   17.0830 H   0  0  0  0  0  0  0  0  0  0  0  0
   26.5470   21.3172   15.2325 H   0  0  0  0  0  0  0  0  0  0  0  0
   21.8791   14.7696    6.1020 H   0  0  0  0  0  0  0  0  0  0  0  0
  1  2  1  0
  2  3  1  0
  3  4  2  0
  4  5  1  0
  5  6  1  0
  6  7  2  0
  6  8  2  0
  6  9  1  0
  9 10  2  0
 10 11  1  0
 11 12  2  0
 12 13  1  0
 13 14  1  0
 14 15  2  0
 15 16  1  0
 16 17  1  0
 17 18  1  0
 18 19  1  0
 19 20  1  0
 20 21  2  0
 20 22  1  0
 22 23  1  0
 23 24  2  0
 16 25  1  0
 25 26  2  0
 13 27  2  0
  5 28  1  0
 28 29  2  0
 29  3  1  0
 27  9  1  0
 26 14  1  0
 23 17  1  0
  1 30  1  0
  1 31  1  0
  1 32  1  0
  2 33  1  0
  2 34  1  0
  4 35  1  0
 10 36  1  0
 11 37  1  0
 15 38  1  0
 17 39  1  1
 18 40  1  0
 18 41  1  0
 19 42  1  0
 19 43  1  0
 22 44  1  0
 28 45  1  0
M  END
>  <meeko>  (1158) 
{"is_sidechain": [true], "free_energy": -10.22, "intermolecular_energy": 0.0, "internal_energy": -10.22, "cluster_size": 20, "cluster_id": 1, "rank_in_cluster": 1}

>  <_RMSD_MCS_to_ref>  (1158) 
0.6767350540154791

$$$$
ligand
     RDKit          3D

 48 51  0  0  0  0  0  0  0  0999 V2000
   18.7970   18.8170    7.7190 C   0  0  0  0  0  0  0  0  0  0  0  0
   18.5280   17.3290    7.8810 C   0  0  0  0  0  0  0  0  0  0  0  0
   19.7760   16.5210    7.8200 C   0  0  0  0  0  0  0  0  0  0  0  0
   20.5860   16.0920    8.8530 C   0  0  0  0  0  0  0  0  0  0  0  0
   21.5690   15.3720    8.2360 N   0  0  0  0  0  0  0  0  0  0  0  0
   22.9710   14.8040    8.9590 S   0  0  0  0  0  6  0  0  0  0  0  0
   23.2230   13.4820    8.4200 O   0  0  0  0  0  0  0  0  0  0  0  0
   23.9450   15.8740    8.8940 O   0  0  0  0  0  0  0  0  0  0  0  0
   22.6400   14.5500   10.6670 C   0  0  0  0  0  0  0  0  0  0  0  0
   23.4120   14.9450   11.6620 N   0  0  0  0  0  0  0  0  0  0  0  0
   22.7570   14.5750   12.8180 C   0  0  0  0  0  0  0  0  0  0  0  0
   23.1240   14.7610   14.1660 C   0  0  0  0  0  0  0  0  0  0  0  0
   24.3910   15.4460   14.5380 C   0  0  0  0  0  0  0  0  0  0  0  0
   25.3730   14.8030   14.8900 O   0  0  0  0  0  0  0  0  0  0  0  0
   24.3790   16.8150   14.4610 N   0  0  0  0  0  0  0  0  0  0  0  0
   25.5120   17.6650   14.7770 C   0  0  2  0  0  0  0  0  0  0  0  0
   25.7860   17.6760   16.2760 C   0  0  0  0  0  0  0  0  0  0  0  0
   26.9020   18.6580   16.5850 C   0  0  0  0  0  0  0  0  0  0  0  0
   26.5590   20.0430   16.0920 C   0  0  0  0  0  0  0  0  0  0  0  0
   26.9460   21.0570   16.6640 O   0  0  0  0  0  0  0  0  0  0  0  0
   25.8290   20.1150   14.9330 N   0  0  0  0  0  0  0  0  0  0  0  0
   25.1860   19.0850   14.2900 C   0  0  0  0  0  0  0  0  0  0  0  0
   24.4190   19.3110   13.3520 O   0  0  0  0  0  0  0  0  0  0  0  0
   22.2510   14.2910   15.1610 C   0  0  0  0  0  0  0  0  0  0  0  0
   21.0540   13.6500   14.8220 C   0  0  0  0  0  0  0  0  0  0  0  0
   20.6810   13.4560   13.4850 C   0  0  0  0  0  0  0  0  0  0  0  0
   21.5590   13.9350   12.5110 C   0  0  0  0  0  0  0  0  0  0  0  0
   21.5140   13.9250   11.1380 N   0  0  0  0  0  0  0  0  0  0  0  0
   21.3820   15.4340    6.8910 C   0  0  0  0  0  0  0  0  0  0  0  0
   20.2870   16.1100    6.6050 N   0  0  0  0  0  0  0  0  0  0  0  0
   18.8815   19.2845    8.7111 H   0  0  0  0  0  0  0  0  0  0  0  0
   19.7359   18.9616    7.1643 H   0  0  0  0  0  0  0  0  0  0  0  0
   17.9682   19.2812    7.1643 H   0  0  0  0  0  0  0  0  0  0  0  0
   18.0445   17.1606    8.8546 H   0  0  0  0  0  0  0  0  0  0  0  0
   17.8798   17.0113    7.0510 H   0  0  0  0  0  0  0  0  0  0  0  0
   20.4665   16.2862    9.9291 H   0  0  0  0  0  0  0  0  0  0  0  0
   23.5065   17.2711   14.1583 H   0  0  0  0  0  0  0  0  0  0  0  0
   26.4145   17.2811   14.2788 H   0  0  0  0  0  0  0  0  0  0  0  0
   24.8743   17.9781   16.8122 H   0  0  0  0  0  0  0  0  0  0  0  0
   26.0876   16.6685   16.5986 H   0  0  0  0  0  0  0  0  0  0  0  0
   27.0590   18.6926   17.6732 H   0  0  0  0  0  0  0  0  0  0  0  0
   27.8155   18.3212   16.0731 H   0  0  0  0  0  0  0  0  0  0  0  0
   25.7546   21.0447   14.4960 H   0  0  0  0  0  0  0  0  0  0  0  0
   22.5117   14.4286   16.2208 H   0  0  0  0  0  0  0  0  0  0  0  0
   20.3911   13.2904   15.6228 H   0  0  0  0  0  0  0  0  0  0  0  0
   19.7417   12.9507   13.2161 H   0  0  0  0  0  0  0  0  0  0  0  0
   20.7636   13.5181   10.5616 H   0  0  0  0  0  0  0  0  0  0  0  0
   22.0519   14.9825    6.1444 H   0  0  0  0  0  0  0  0  0  0  0  0
  1  2  1  0
  2  3  1  0
  3  4  2  0
  4  5  1  0
  5  6  1  0
  6  7  2  0
  6  8  2  0
  6  9  1  0
  9 10  2  0
 10 11  1  0
 11 12  2  0
 12 13  1  0
 13 14  2  0
 13 15  1  0
 15 16  1  0
 16 17  1  0
 17 18  1  0
 18 19  1  0
 19 20  2  0
 19 21  1  0
 21 22  1  0
 22 23  2  0
 12 24  1  0
 24 25  2  0
 25 26  1  0
 26 27  2  0
 27 28  1  0
  5 29  1  0
 29 30  2  0
 30  3  1  0
 28  9  1  0
 27 11  1  0
 22 16  1  0
  1 31  1  0
  1 32  1  0
  1 33  1  0
  2 34  1  0
  2 35  1  0
  4 36  1  0
 15 37  1  0
 16 38  1  6
 17 39  1  0
 17 40  1  0
 18 41  1  0
 18 42  1  0
 21 43  1  0
 24 44  1  0
 25 45  1  0
 26 46  1  0
 28 47  1  0
 29 48  1  0
M  END
>  <meeko>  (1159) 
{"is_sidechain": [true], "free_energy": -10.22, "intermolecular_energy": 0.0, "internal_energy": -10.22, "cluster_size": 10, "cluster_id": 1, "rank_in_cluster": 1}

>  <_RMSD_MCS_to_ref>  (1159) 
0.7550331854369784

$$$$
ligand
     RDKit          3D

 53 56  0  0  0  0  0  0  0  0999 V2000
   18.7970   18.8170    7.7190 C   0  0  0  0  0  0  0  0  0  0  0  0
   18.5280   17.3290    7.8810 C   0  0  0  0  0  0  0  0  0  0  0  0
   19.7860   16.5370    7.9530 C   0  0  0  0  0  0  0  0  0  0  0  0
   20.1900   15.6310    8.9130 C   0  0  0  0  0  0  0  0  0  0  0  0
   21.4200   15.2170    8.4870 N   0  0  0  0  0  0  0  0  0  0  0  0
   22.3280   13.9680    9.1490 S   0  0  0  0  0  6  0  0  0  0  0  0
   21.3450   13.0150    9.6300 O   0  0  0  0  0  0  0  0  0  0  0  0
   23.3160   13.6340    8.1430 O   0  0  0  0  0  0  0  0  0  0  0  0
   23.1990   14.6140   10.5670 C   0  0  0  0  0  0  0  0  0  0  0  0
   24.4730   15.1690   10.4160 C   0  0  0  0  0  0  0  0  0  0  0  0
   25.1460   15.6810   11.5260 C   0  0  0  0  0  0  0  0  0  0  0  0
   24.5630   15.6570   12.8020 C   0  0  0  0  0  0  0  0  0  0  0  0
   25.3820   16.2460   13.9140 C   0  0  0  0  0  0  0  0  0  0  0  0
   25.9400   15.5130   14.7270 O   0  0  0  0  0  0  0  0  0  0  0  0
   25.4790   17.6130   13.9860 N   0  0  0  0  0  0  0  0  0  0  0  0
   26.3650   18.2830   14.9230 C   0  0  2  0  0  0  0  0  0  0  0  0
   25.9950   17.9860   16.3710 C   0  0  0  0  0  0  0  0  0  0  0  0
   26.9400   18.7320   17.3000 C   0  0  0  0  0  0  0  0  0  0  0  0
   26.9340   20.2140   17.0120 C   0  0  0  0  0  0  0  0  0  0  0  0
   27.0850   21.0570   17.8920 O   0  0  0  0  0  0  0  0  0  0  0  0
   26.7820   20.5850   15.7010 N   0  0  0  0  0  0  0  0  0  0  0  0
   26.2890   19.7960   14.6880 C   0  0  0  0  0  0  0  0  0  0  0  0
   25.8360   20.3000   13.6600 O   0  0  0  0  0  0  0  0  0  0  0  0
   23.2740   15.1080   12.9520 C   0  0  0  0  0  0  0  0  0  0  0  0
   22.5900   14.5560   11.8440 C   0  0  0  0  0  0  0  0  0  0  0  0
   21.2180   13.9470   12.0370 C   0  0  0  0  0  0  0  0  0  0  0  0
   20.9060   13.6940   13.5020 C   0  0  0  0  0  0  0  0  0  0  0  0
   21.3180   14.9150   14.2910 C   0  0  0  0  0  0  0  0  0  0  0  0
   22.7300   15.1060   14.2140 O   0  0  0  0  0  0  0  0  0  0  0  0
   21.7180   15.8340    7.3150 C   0  0  0  0  0  0  0  0  0  0  0  0
   20.7400   16.6410    6.9590 N   0  0  0  0  0  0  0  0  0  0  0  0
   18.8815   19.2845    8.7111 H   0  0  0  0  0  0  0  0  0  0  0  0
   19.7359   18.9616    7.1643 H   0  0  0  0  0  0  0  0  0  0  0  0
   17.9682   19.2812    7.1643 H   0  0  0  0  0  0  0  0  0  0  0  0
   17.9558   17.1708    8.8071 H   0  0  0  0  0  0  0  0  0  0  0  0
   17.9638   16.9890    7.0001 H   0  0  0  0  0  0  0  0  0  0  0  0
   19.6457   15.3147    9.8150 H   0  0  0  0  0  0  0  0  0  0  0  0
   24.9447   15.2021    9.4228 H   0  0  0  0  0  0  0  0  0  0  0  0
   26.1505   16.1107   11.3985 H   0  0  0  0  0  0  0  0  0  0  0  0
   24.9026   18.1852   13.3526 H   0  0  0  0  0  0  0  0  0  0  0  0
   27.3850   17.9088   14.7509 H   0  0  0  0  0  0  0  0  0  0  0  0
   24.9618   18.3128   16.5597 H   0  0  0  0  0  0  0  0  0  0  0  0
   26.0776   16.9048   16.5557 H   0  0  0  0  0  0  0  0  0  0  0  0
   26.6237   18.5677   18.3406 H   0  0  0  0  0  0  0  0  0  0  0  0
   27.9591   18.3506   17.1388 H   0  0  0  0  0  0  0  0  0  0  0  0
   27.0632   21.5439   15.4514 H   0  0  0  0  0  0  0  0  0  0  0  0
   20.4637   14.6350   11.6274 H   0  0  0  0  0  0  0  0  0  0  0  0
   21.2006   12.9790   11.5149 H   0  0  0  0  0  0  0  0  0  0  0  0
   19.8278   13.5160   13.6276 H   0  0  0  0  0  0  0  0  0  0  0  0
   21.4528   12.8089   13.8592 H   0  0  0  0  0  0  0  0  0  0  0  0
   20.8099   15.8000   13.8803 H   0  0  0  0  0  0  0  0  0  0  0  0
   21.0352   14.7705   15.3442 H   0  0  0  0  0  0  0  0  0  0  0  0
   22.6454   15.6814    6.7434 H   0  0  0  0  0  0  0  0  0  0  0  0
  1  2  1  0
  2  3  1  0
  3  4  2  0
  4  5  1  0
  5  6  1  0
  6  7  2  0
  6  8  2  0
  6  9  1  0
  9 10  2  0
 10 11  1  0
 11 12  2  0
 12 13  1  0
 13 14  2  0
 13 15  1  0
 15 16  1  0
 16 17  1  0
 17 18  1  0
 18 19  1  0
 19 20  2  0
 19 21  1  0
 21 22  1  0
 22 23  2  0
 12 24  1  0
 24 25  2  0
 25 26  1  0
 26 27  1  0
 27 28  1  0
 28 29  1  0
  5 30  1  0
 30 31  2  0
 31  3  1  0
 25  9  1  0
 22 16  1  0
 29 24  1  0
  1 32  1  0
  1 33  1  0
  1 34  1  0
  2 35  1  0
  2 36  1  0
  4 37  1  0
 10 38  1  0
 11 39  1  0
 15 40  1  0
 16 41  1  6
 17 42  1  0
 17 43  1  0
 18 44  1  0
 18 45  1  0
 21 46  1  0
 26 47  1  0
 26 48  1  0
 27 49  1  0
 27 50  1  0
 28 51  1  0
 28 52  1  0
 30 53  1  0
M  END
>  <meeko>  (1160) 
{"is_sidechain": [true], "free_energy": -10.22, "intermolecular_energy": 0.0, "internal_energy": -10.22, "cluster_size": 13, "cluster_id": 1, "rank_in_cluster": 1}

>  <_RMSD_MCS_to_ref>  (1160) 
0.8342026798752865

$$$$
ligand
     RDKit          3D

 53 57  0  0  0  0  0  0  0  0999 V2000
   18.7970   18.8170    7.7190 C   0  0  0  0  0  0  0  0  0  0  0  0
   18.5280   17.3290    7.8810 C   0  0  0  0  0  0  0  0  0  0  0  0
   19.7730   16.5190    7.7820 C   0  0  0  0  0  0  0  0  0  0  0  0
   20.3870   15.7460    8.7480 C   0  0  0  0  0  0  0  0  0  0  0  0
   21.4900   15.2420    8.1200 N   0  0  0  0  0  0  0  0  0  0  0  0
   22.6000   14.1870    8.8060 S   0  0  0  0  0  6  0  0  0  0  0  0
   21.8950   12.9640    9.1400 O   0  0  0  0  0  0  0  0  0  0  0  0
   23.7240   14.1980    7.8890 O   0  0  0  0  0  0  0  0  0  0  0  0
   23.1060   14.9580   10.3300 C   0  0  0  0  0  0  0  0  0  0  0  0
   22.1950   14.8890   11.4150 C   0  0  0  0  0  0  0  0  0  0  0  0
   22.5070   15.4610   12.6470 C   0  0  0  0  0  0  0  0  0  0  0  0
   23.7270   16.0940   12.7580 C   0  0  0  0  0  0  0  0  0  0  0  0
   24.6350   16.1840   11.7010 C   0  0  0  0  0  0  0  0  0  0  0  0
   24.3450   15.6240   10.4570 C   0  0  0  0  0  0  0  0  0  0  0  0
   25.3230   15.7650    9.3880 C   0  0  0  0  0  0  0  0  0  0  0  0
   26.6940   15.5910    9.3870 C   0  0  0  0  0  0  0  0  0  0  0  0
   27.1050   15.9050    8.0810 C   0  0  0  0  0  0  0  0  0  0  0  0
   26.0840   16.2720    7.3060 N   0  0  0  0  0  0  0  0  0  0  0  0
   25.0150   16.1800    8.1120 N   0  0  0  0  0  0  0  0  0  0  0  0
   25.8310   16.9720   12.1430 C   0  0  0  0  0  0  0  0  0  0  0  0
   25.5520   17.2260   13.5500 N   0  0  0  0  0  0  0  0  0  0  0  0
   26.2850   18.2060   14.3460 C   0  0  1  0  0  0  0  0  0  0  0  0
   25.5460   19.5360   14.4640 C   0  0  0  0  0  0  0  0  0  0  0  0
   26.4100   20.5240   15.2330 C   0  0  0  0  0  0  0  0  0  0  0  0
   26.7990   19.9730   16.5850 C   0  0  0  0  0  0  0  0  0  0  0  0
   26.9110   20.6860   17.5780 O   0  0  0  0  0  0  0  0  0  0  0  0
   27.0450   18.6250   16.6510 N   0  0  0  0  0  0  0  0  0  0  0  0
   26.5960   17.6800   15.7580 C   0  0  0  0  0  0  0  0  0  0  0  0
   26.4580   16.5090   16.1080 O   0  0  0  0  0  0  0  0  0  0  0  0
   24.2900   16.7920   13.9180 C   0  0  0  0  0  0  0  0  0  0  0  0
   23.7220   16.9430   14.9830 O   0  0  0  0  0  0  0  0  0  0  0  0
   21.5350   15.7100    6.8480 C   0  0  0  0  0  0  0  0  0  0  0  0
   20.4910   16.4770    6.6040 N   0  0  0  0  0  0  0  0  0  0  0  0
   18.8815   19.2845    8.7111 H   0  0  0  0  0  0  0  0  0  0  0  0
   19.7359   18.9616    7.1643 H   0  0  0  0  0  0  0  0  0  0  0  0
   17.9682   19.2812    7.1643 H   0  0  0  0  0  0  0  0  0  0  0  0
   18.0707   17.1568    8.8665 H   0  0  0  0  0  0  0  0  0  0  0  0
   17.8561   17.0166    7.0680 H   0  0  0  0  0  0  0  0  0  0  0  0
   20.0622   15.5755    9.7850 H   0  0  0  0  0  0  0  0  0  0  0  0
   21.2302   14.3776   11.2824 H   0  0  0  0  0  0  0  0  0  0  0  0
   21.8090   15.4096   13.4956 H   0  0  0  0  0  0  0  0  0  0  0  0
   27.3276   15.2744   10.2286 H   0  0  0  0  0  0  0  0  0  0  0  0
   28.1487   15.8540    7.7373 H   0  0  0  0  0  0  0  0  0  0  0  0
   24.0563   16.3988    7.8055 H   0  0  0  0  0  0  0  0  0  0  0  0
   26.7558   16.3889   12.0220 H   0  0  0  0  0  0  0  0  0  0  0  0
   25.9860   17.8907   11.5583 H   0  0  0  0  0  0  0  0  0  0  0  0
   27.2277   18.3763   13.8053 H   0  0  0  0  0  0  0  0  0  0  0  0
   25.3401   19.9325   13.4588 H   0  0  0  0  0  0  0  0  0  0  0  0
   24.5960   19.3839   14.9973 H   0  0  0  0  0  0  0  0  0  0  0  0
   27.3221   20.7298   14.6535 H   0  0  0  0  0  0  0  0  0  0  0  0
   25.8313   21.4468   15.3864 H   0  0  0  0  0  0  0  0  0  0  0  0
   27.6170   18.2907   17.4396 H   0  0  0  0  0  0  0  0  0  0  0  0
   22.3299   15.4819    6.1227 H   0  0  0  0  0  0  0  0  0  0  0  0
  1  2  1  0
  2  3  1  0
  3  4  2  0
  4  5  1  0
  5  6  1  0
  6  7  2  0
  6  8  2  0
  6  9  1  0
  9 10  2  0
 10 11  1  0
 11 12  2  0
 12 13  1  0
 13 14  2  0
 14 15  1  0
 15 16  2  0
 16 17  1  0
 17 18  2  0
 18 19  1  0
 13 20  1  0
 20 21  1  0
 21 22  1  0
 22 23  1  0
 23 24  1  0
 24 25  1  0
 25 26  2  0
 25 27  1  0
 27 28  1  0
 28 29  2  0
 21 30  1  0
 30 31  2  0
  5 32  1  0
 32 33  2  0
 33  3  1  0
 14  9  1  0
 19 15  1  0
 28 22  1  0
 30 12  1  0
  1 34  1  0
  1 35  1  0
  1 36  1  0
  2 37  1  0
  2 38  1  0
  4 39  1  0
 10 40  1  0
 11 41  1  0
 16 42  1  0
 17 43  1  0
 19 44  1  0
 20 45  1  0
 20 46  1  0
 22 47  1  6
 23 48  1  0
 23 49  1  0
 24 50  1  0
 24 51  1  0
 27 52  1  0
 32 53  1  0
M  END
>  <meeko>  (1161) 
{"is_sidechain": [true], "free_energy": -10.22, "intermolecular_energy": 0.0, "internal_energy": -10.22, "cluster_size": 12, "cluster_id": 1, "rank_in_cluster": 1}

>  <_RMSD_MCS_to_ref>  (1161) 
1.8339669965526761

$$$$
ligand
     RDKit          3D

 51 55  0  0  0  0  0  0  0  0999 V2000
   18.9090   19.1540    7.5370 C   0  0  0  0  0  0  0  0  0  0  0  0
   18.7730   17.6460    7.6780 C   0  0  0  0  0  0  0  0  0  0  0  0
   19.7250   16.9140    6.8010 C   0  0  0  0  0  0  0  0  0  0  0  0
   20.4020   15.7350    7.0460 C   0  0  0  0  0  0  0  0  0  0  0  0
   21.1310   15.5270    5.9100 N   0  0  0  0  0  0  0  0  0  0  0  0
   22.2140   14.2570    5.6580 S   0  0  0  0  0  6  0  0  0  0  0  0
   22.4550   14.2420    4.2250 O   0  0  0  0  0  0  0  0  0  0  0  0
   21.5530   13.1230    6.2890 O   0  0  0  0  0  0  0  0  0  0  0  0
   23.6970   14.5790    6.4930 C   0  0  0  0  0  0  0  0  0  0  0  0
   24.8650   14.4260    5.8260 C   0  0  0  0  0  0  0  0  0  0  0  0
   26.1500   14.7000    6.4590 C   0  0  0  0  0  0  0  0  0  0  0  0
   26.1700   15.1260    7.7330 C   0  0  0  0  0  0  0  0  0  0  0  0
   24.9610   15.2860    8.3930 N   0  0  0  0  0  0  0  0  0  0  0  0
   23.7070   15.0360    7.8390 C   0  0  0  0  0  0  0  0  0  0  0  0
   22.7390   15.2770    8.7010 N   0  0  0  0  0  0  0  0  0  0  0  0
   23.3810   15.6840    9.8310 C   0  0  0  0  0  0  0  0  0  0  0  0
   22.8780   16.1730   11.3980 S   0  0  0  0  0  0  0  0  0  0  0  0
   24.5280   16.4140   11.8610 C   0  0  0  0  0  0  0  0  0  0  0  0
   24.8830   16.8780   13.1990 C   0  0  0  0  0  0  0  0  0  0  0  0
   24.9980   16.1140   14.1550 O   0  0  0  0  0  0  0  0  0  0  0  0
   25.0770   18.2320   13.3450 N   0  0  0  0  0  0  0  0  0  0  0  0
   25.2960   18.8490   14.6430 C   0  0  1  0  0  0  0  0  0  0  0  0
   26.3560   18.1130   15.4570 C   0  0  0  0  0  0  0  0  0  0  0  0
   26.5590   18.8240   16.7870 C   0  0  0  0  0  0  0  0  0  0  0  0
   26.9140   20.2780   16.5830 C   0  0  0  0  0  0  0  0  0  0  0  0
   27.6600   20.8860   17.3440 O   0  0  0  0  0  0  0  0  0  0  0  0
   26.3300   20.9100   15.5130 N   0  0  0  0  0  0  0  0  0  0  0  0
   25.7450   20.2970   14.4330 C   0  0  0  0  0  0  0  0  0  0  0  0
   25.5860   20.8980   13.3710 O   0  0  0  0  0  0  0  0  0  0  0  0
   25.4280   16.1240   10.8450 C   0  0  0  0  0  0  0  0  0  0  0  0
   24.7320   15.7030    9.6830 C   0  0  0  0  0  0  0  0  0  0  0  0
   20.9200   16.5550    5.0490 C   0  0  0  0  0  0  0  0  0  0  0  0
   20.0470   17.4050    5.5520 N   0  0  0  0  0  0  0  0  0  0  0  0
   18.9504   19.6134    8.5356 H   0  0  0  0  0  0  0  0  0  0  0  0
   19.8320   19.3891    6.9867 H   0  0  0  0  0  0  0  0  0  0  0  0
   18.0430   19.5504    6.9867 H   0  0  0  0  0  0  0  0  0  0  0  0
   18.9693   17.3685    8.7241 H   0  0  0  0  0  0  0  0  0  0  0  0
   17.7523   17.3683    7.3762 H   0  0  0  0  0  0  0  0  0  0  0  0
   20.3629   15.1077    7.9488 H   0  0  0  0  0  0  0  0  0  0  0  0
   24.8444   14.0864    4.7799 H   0  0  0  0  0  0  0  0  0  0  0  0
   27.0882   14.5601    5.9020 H   0  0  0  0  0  0  0  0  0  0  0  0
   27.1219   15.3425    8.2400 H   0  0  0  0  0  0  0  0  0  0  0  0
   25.0667   18.8292   12.5059 H   0  0  0  0  0  0  0  0  0  0  0  0
   24.3506   18.8046   15.2036 H   0  0  0  0  0  0  0  0  0  0  0  0
   26.0256   17.0799   15.6403 H   0  0  0  0  0  0  0  0  0  0  0  0
   27.3040   18.1015   14.8991 H   0  0  0  0  0  0  0  0  0  0  0  0
   25.6301   18.7606   17.3727 H   0  0  0  0  0  0  0  0  0  0  0  0
   27.3884   18.3353   17.3191 H   0  0  0  0  0  0  0  0  0  0  0  0
   26.3310   21.9400   15.5215 H   0  0  0  0  0  0  0  0  0  0  0  0
   26.5216   16.2084   10.9287 H   0  0  0  0  0  0  0  0  0  0  0  0
   21.4087   16.6635    4.0695 H   0  0  0  0  0  0  0  0  0  0  0  0
  1  2  1  0
  2  3  1  0
  3  4  2  0
  4  5  1  0
  5  6  1  0
  6  7  2  0
  6  8  2  0
  6  9  1  0
  9 10  2  0
 10 11  1  0
 11 12  2  0
 12 13  1  0
 13 14  1  0
 14 15  2  0
 15 16  1  0
 16 17  1  0
 17 18  1  0
 18 19  1  0
 19 20  2  0
 19 21  1  0
 21 22  1  0
 22 23  1  0
 23 24  1  0
 24 25  1  0
 25 26  2  0
 25 27  1  0
 27 28  1  0
 28 29  2  0
 18 30  2  0
 30 31  1  0
  5 32  1  0
 32 33  2  0
 33  3  1  0
 14  9  1  0
 31 16  2  0
 31 13  1  0
 28 22  1  0
  1 34  1  0
  1 35  1  0
  1 36  1  0
  2 37  1  0
  2 38  1  0
  4 39  1  0
 10 40  1  0
 11 41  1  0
 12 42  1  0
 21 43  1  0
 22 44  1  1
 23 45  1  0
 23 46  1  0
 24 47  1  0
 24 48  1  0
 27 49  1  0
 30 50  1  0
 32 51  1  0
M  END
>  <meeko>  (1162) 
{"is_sidechain": [true], "free_energy": -10.22, "intermolecular_energy": 0.0, "internal_energy": -10.22, "cluster_size": 12, "cluster_id": 1, "rank_in_cluster": 1}

>  <_RMSD_MCS_to_ref>  (1162) 
0.7127990990142704

$$$$
ligand
     RDKit          3D

 48 51  0  0  0  0  0  0  0  0999 V2000
   18.9090   19.1540    7.5370 C   0  0  0  0  0  0  0  0  0  0  0  0
   18.7730   17.6460    7.6780 C   0  0  0  0  0  0  0  0  0  0  0  0
   20.0940   16.9600    7.6780 C   0  0  0  0  0  0  0  0  0  0  0  0
   21.0030   16.8290    8.7090 C   0  0  0  0  0  0  0  0  0  0  0  0
   22.0300   16.1180    8.1600 N   0  0  0  0  0  0  0  0  0  0  0  0
   23.3350   15.4630    8.9910 S   0  0  0  0  0  6  0  0  0  0  0  0
   23.5460   14.1470    8.4130 O   0  0  0  0  0  0  0  0  0  0  0  0
   24.3650   16.4800    9.0150 O   0  0  0  0  0  0  0  0  0  0  0  0
   22.7370   15.2330   10.6390 C   0  0  0  0  0  0  0  0  0  0  0  0
   23.4040   15.8410   11.7130 C   0  0  0  0  0  0  0  0  0  0  0  0
   22.9510   15.6850   13.0320 C   0  0  0  0  0  0  0  0  0  0  0  0
   23.7000   16.3860   14.1110 C   0  0  0  0  0  0  0  0  0  0  0  0
   24.0230   15.7770   15.1250 O   0  0  0  0  0  0  0  0  0  0  0  0
   23.9690   17.7210   13.9180 N   0  0  0  0  0  0  0  0  0  0  0  0
   24.5690   18.5270   14.9730 C   0  0  1  0  0  0  0  0  0  0  0  0
   25.7180   17.8030   15.6680 C   0  0  0  0  0  0  0  0  0  0  0  0
   26.3210   18.7100   16.7280 C   0  0  0  0  0  0  0  0  0  0  0  0
   26.7630   20.0280   16.1370 C   0  0  0  0  0  0  0  0  0  0  0  0
   27.7390   20.6440   16.5560 O   0  0  0  0  0  0  0  0  0  0  0  0
   25.9980   20.5310   15.1160 N   0  0  0  0  0  0  0  0  0  0  0  0
   25.1000   19.8250   14.3560 C   0  0  0  0  0  0  0  0  0  0  0  0
   24.7380   20.2320   13.2520 O   0  0  0  0  0  0  0  0  0  0  0  0
   21.8090   14.9150   13.3100 C   0  0  0  0  0  0  0  0  0  0  0  0
   21.1500   14.2840   12.2450 C   0  0  0  0  0  0  0  0  0  0  0  0
   20.0380   13.4820   12.2610 N   0  0  0  0  0  0  0  0  0  0  0  0
   19.8340   13.1420   11.0090 C   0  0  0  0  0  0  0  0  0  0  0  0
   20.7650   13.6950   10.1790 N   0  0  0  0  0  0  0  0  0  0  0  0
   21.6230   14.4460   10.9500 C   0  0  0  0  0  0  0  0  0  0  0  0
   21.7240   15.8120    6.8740 C   0  0  0  0  0  0  0  0  0  0  0  0
   20.5560   16.3210    6.5440 N   0  0  0  0  0  0  0  0  0  0  0  0
   18.9504   19.6134    8.5356 H   0  0  0  0  0  0  0  0  0  0  0  0
   19.8320   19.3891    6.9867 H   0  0  0  0  0  0  0  0  0  0  0  0
   18.0430   19.5504    6.9867 H   0  0  0  0  0  0  0  0  0  0  0  0
   18.2583   17.4237    8.6244 H   0  0  0  0  0  0  0  0  0  0  0  0
   18.2004   17.2763    6.8146 H   0  0  0  0  0  0  0  0  0  0  0  0
   20.9186   17.2104    9.7373 H   0  0  0  0  0  0  0  0  0  0  0  0
   24.2983   16.4511   11.5177 H   0  0  0  0  0  0  0  0  0  0  0  0
   23.7426   18.1579   13.0131 H   0  0  0  0  0  0  0  0  0  0  0  0
   23.7953   18.7301   15.7280 H   0  0  0  0  0  0  0  0  0  0  0  0
   25.3397   16.8855   16.1425 H   0  0  0  0  0  0  0  0  0  0  0  0
   26.4883   17.5420   14.9274 H   0  0  0  0  0  0  0  0  0  0  0  0
   25.5677   18.9012   17.5064 H   0  0  0  0  0  0  0  0  0  0  0  0
   27.2023   18.2078   17.1536 H   0  0  0  0  0  0  0  0  0  0  0  0
   26.1078   21.5320   14.8995 H   0  0  0  0  0  0  0  0  0  0  0  0
   21.4398   14.8094   14.3408 H   0  0  0  0  0  0  0  0  0  0  0  0
   19.0137   12.4916   10.6712 H   0  0  0  0  0  0  0  0  0  0  0  0
   20.8166   13.5724    9.1576 H   0  0  0  0  0  0  0  0  0  0  0  0
   22.3629   15.2211    6.2012 H   0  0  0  0  0  0  0  0  0  0  0  0
  1  2  1  0
  2  3  1  0
  3  4  2  0
  4  5  1  0
  5  6  1  0
  6  7  2  0
  6  8  2  0
  6  9  1  0
  9 10  2  0
 10 11  1  0
 11 12  1  0
 12 13  2  0
 12 14  1  0
 14 15  1  0
 15 16  1  0
 16 17  1  0
 17 18  1  0
 18 19  2  0
 18 20  1  0
 20 21  1  0
 21 22  2  0
 11 23  2  0
 23 24  1  0
 24 25  1  0
 25 26  2  0
 26 27  1  0
 27 28  1  0
  5 29  1  0
 29 30  2  0
 30  3  1  0
 28  9  1  0
 21 15  1  0
 28 24  2  0
  1 31  1  0
  1 32  1  0
  1 33  1  0
  2 34  1  0
  2 35  1  0
  4 36  1  0
 10 37  1  0
 14 38  1  0
 15 39  1  1
 16 40  1  0
 16 41  1  0
 17 42  1  0
 17 43  1  0
 20 44  1  0
 23 45  1  0
 26 46  1  0
 27 47  1  0
 29 48  1  0
M  END
>  <meeko>  (1163) 
{"is_sidechain": [true], "free_energy": -10.22, "intermolecular_energy": 0.0, "internal_energy": -10.22, "cluster_size": 19, "cluster_id": 1, "rank_in_cluster": 1}

>  <_RMSD_MCS_to_ref>  (1163) 
0.42506666143872857

$$$$
ligand
     RDKit          3D

 47 50  0  0  0  0  0  0  0  0999 V2000
   18.9090   19.1540    7.5370 C   0  0  0  0  0  0  0  0  0  0  0  0
   18.7730   17.6460    7.6780 C   0  0  0  0  0  0  0  0  0  0  0  0
   20.0570   16.9400    7.4170 C   0  0  0  0  0  0  0  0  0  0  0  0
   20.9680   16.4330    8.3230 C   0  0  0  0  0  0  0  0  0  0  0  0
   21.9460   15.8830    7.5420 N   0  0  0  0  0  0  0  0  0  0  0  0
   23.3840   15.2080    8.0830 S   0  0  0  0  0  6  0  0  0  0  0  0
   23.5970   14.0410    7.2460 O   0  0  0  0  0  0  0  0  0  0  0  0
   24.3370   16.3030    8.1390 O   0  0  0  0  0  0  0  0  0  0  0  0
   23.0640   14.6620    9.7250 C   0  0  0  0  0  0  0  0  0  0  0  0
   22.3050   13.5360    9.8450 N   0  0  0  0  0  0  0  0  0  0  0  0
   22.0230   13.0650   11.0810 C   0  0  0  0  0  0  0  0  0  0  0  0
   22.4500   13.6430   12.2650 C   0  0  0  0  0  0  0  0  0  0  0  0
   23.2200   14.7830   12.0880 C   0  0  0  0  0  0  0  0  0  0  0  0
   23.7580   15.5290   13.0900 O   0  0  0  0  0  0  0  0  0  0  0  0
   24.4430   16.5620   12.5070 C   0  0  0  0  0  0  0  0  0  0  0  0
   25.1290   17.5240   13.3450 C   0  0  0  0  0  0  0  0  0  0  0  0
   26.2970   17.8630   13.1760 O   0  0  0  0  0  0  0  0  0  0  0  0
   24.3620   18.0300   14.3690 N   0  0  0  0  0  0  0  0  0  0  0  0
   24.9180   18.8760   15.4100 C   0  0  1  0  0  0  0  0  0  0  0  0
   25.9730   18.1520   16.2380 C   0  0  0  0  0  0  0  0  0  0  0  0
   26.5360   19.1000   17.2850 C   0  0  0  0  0  0  0  0  0  0  0  0
   27.0850   20.3550   16.6480 C   0  0  0  0  0  0  0  0  0  0  0  0
   28.0600   20.9510   17.0970 O   0  0  0  0  0  0  0  0  0  0  0  0
   26.4190   20.8260   15.5450 N   0  0  0  0  0  0  0  0  0  0  0  0
   25.5550   20.1060   14.7570 C   0  0  0  0  0  0  0  0  0  0  0  0
   25.3110   20.4520   13.6010 O   0  0  0  0  0  0  0  0  0  0  0  0
   24.3390   16.4690   11.1320 C   0  0  0  0  0  0  0  0  0  0  0  0
   23.5490   15.3220   10.8520 C   0  0  0  0  0  0  0  0  0  0  0  0
   21.6420   16.0970    6.2350 C   0  0  0  0  0  0  0  0  0  0  0  0
   20.4890   16.7230    6.1230 N   0  0  0  0  0  0  0  0  0  0  0  0
   18.9504   19.6134    8.5356 H   0  0  0  0  0  0  0  0  0  0  0  0
   19.8320   19.3891    6.9867 H   0  0  0  0  0  0  0  0  0  0  0  0
   18.0430   19.5504    6.9867 H   0  0  0  0  0  0  0  0  0  0  0  0
   18.4426   17.4140    8.7012 H   0  0  0  0  0  0  0  0  0  0  0  0
   18.0402   17.3014    6.9335 H   0  0  0  0  0  0  0  0  0  0  0  0
   20.9180   16.4646    9.4214 H   0  0  0  0  0  0  0  0  0  0  0  0
   21.4088   12.1551   11.1512 H   0  0  0  0  0  0  0  0  0  0  0  0
   22.2011   13.2350   13.2557 H   0  0  0  0  0  0  0  0  0  0  0  0
   23.3583   17.8007   14.3982 H   0  0  0  0  0  0  0  0  0  0  0  0
   24.0998   19.1630   16.0869 H   0  0  0  0  0  0  0  0  0  0  0  0
   25.5157   17.2849   16.7369 H   0  0  0  0  0  0  0  0  0  0  0  0
   26.7848   17.8106   15.5789 H   0  0  0  0  0  0  0  0  0  0  0  0
   25.7353   19.3750   17.9874 H   0  0  0  0  0  0  0  0  0  0  0  0
   27.3560   18.5897   17.8115 H   0  0  0  0  0  0  0  0  0  0  0  0
   26.5818   21.8090   15.2842 H   0  0  0  0  0  0  0  0  0  0  0  0
   24.7836   17.1533   10.3944 H   0  0  0  0  0  0  0  0  0  0  0  0
   22.2722   15.7897    5.3874 H   0  0  0  0  0  0  0  0  0  0  0  0
  1  2  1  0
  2  3  1  0
  3  4  2  0
  4  5  1  0
  5  6  1  0
  6  7  2  0
  6  8  2  0
  6  9  1  0
  9 10  2  0
 10 11  1  0
 11 12  2  0
 12 13  1  0
 13 14  1  0
 14 15  1  0
 15 16  1  0
 16 17  2  0
 16 18  1  0
 18 19  1  0
 19 20  1  0
 20 21  1  0
 21 22  1  0
 22 23  2  0
 22 24  1  0
 24 25  1  0
 25 26  2  0
 15 27  2  0
 27 28  1  0
  5 29  1  0
 29 30  2  0
 30  3  1  0
 28  9  1  0
 28 13  2  0
 25 19  1  0
  1 31  1  0
  1 32  1  0
  1 33  1  0
  2 34  1  0
  2 35  1  0
  4 36  1  0
 11 37  1  0
 12 38  1  0
 18 39  1  0
 19 40  1  1
 20 41  1  0
 20 42  1  0
 21 43  1  0
 21 44  1  0
 24 45  1  0
 27 46  1  0
 29 47  1  0
M  END
>  <meeko>  (1164) 
{"is_sidechain": [true], "free_energy": -10.22, "intermolecular_energy": 0.0, "internal_energy": -10.22, "cluster_size": 19, "cluster_id": 1, "rank_in_cluster": 1}

>  <_RMSD_MCS_to_ref>  (1164) 
0.7621616917980366

$$$$
ligand
     RDKit          3D

 49 52  0  0  0  0  0  0  0  0999 V2000
   18.9090   19.1540    7.5370 C   0  0  0  0  0  0  0  0  0  0  0  0
   18.7730   17.6460    7.6780 C   0  0  0  0  0  0  0  0  0  0  0  0
   19.9310   16.9200    7.0910 C   0  0  0  0  0  0  0  0  0  0  0  0
   21.2810   17.1530    7.2650 C   0  0  0  0  0  0  0  0  0  0  0  0
   21.8880   16.2060    6.4900 N   0  0  0  0  0  0  0  0  0  0  0  0
   23.5400   15.9060    6.3980 S   0  0  0  0  0  6  0  0  0  0  0  0
   24.1550   17.2240    6.4120 O   0  0  0  0  0  0  0  0  0  0  0  0
   23.6910   14.9880    5.2790 O   0  0  0  0  0  0  0  0  0  0  0  0
   23.9150   15.0560    7.9140 C   0  0  0  0  0  0  0  0  0  0  0  0
   23.9840   13.7150    7.8640 N   0  0  0  0  0  0  0  0  0  0  0  0
   24.2790   13.1280    9.0370 C   0  0  0  0  0  0  0  0  0  0  0  0
   24.4960   13.8260   10.2210 C   0  0  0  0  0  0  0  0  0  0  0  0
   24.8090   13.1990   11.4400 C   0  0  0  0  0  0  0  0  0  0  0  0
   25.0130   13.9720   12.5810 C   0  0  0  0  0  0  0  0  0  0  0  0
   24.8980   15.3630   12.5110 C   0  0  0  0  0  0  0  0  0  0  0  0
   25.1330   16.1540   13.7510 C   0  0  0  0  0  0  0  0  0  0  0  0
   25.1840   15.5920   14.8380 O   0  0  0  0  0  0  0  0  0  0  0  0
   25.2500   17.5180   13.6050 N   0  0  0  0  0  0  0  0  0  0  0  0
   25.3360   18.3900   14.7690 C   0  0  1  0  0  0  0  0  0  0  0  0
   26.2850   17.8440   15.8300 C   0  0  0  0  0  0  0  0  0  0  0  0
   26.3580   18.8190   16.9950 C   0  0  0  0  0  0  0  0  0  0  0  0
   26.7660   20.1980   16.5330 C   0  0  0  0  0  0  0  0  0  0  0  0
   27.4380   20.9540   17.2280 O   0  0  0  0  0  0  0  0  0  0  0  0
   26.3180   20.5900   15.2970 N   0  0  0  0  0  0  0  0  0  0  0  0
   25.8360   19.7640   14.3120 C   0  0  0  0  0  0  0  0  0  0  0  0
   25.7980   20.1260   13.1360 O   0  0  0  0  0  0  0  0  0  0  0  0
   24.5970   15.9750   11.2850 C   0  0  0  0  0  0  0  0  0  0  0  0
   24.3900   15.2240   10.1350 C   0  0  0  0  0  0  0  0  0  0  0  0
   24.1030   15.8500    8.9900 N   0  0  0  0  0  0  0  0  0  0  0  0
   20.9360   15.4270    5.9130 C   0  0  0  0  0  0  0  0  0  0  0  0
   19.7320   15.8430    6.2500 N   0  0  0  0  0  0  0  0  0  0  0  0
   18.9504   19.6134    8.5356 H   0  0  0  0  0  0  0  0  0  0  0  0
   19.8320   19.3891    6.9867 H   0  0  0  0  0  0  0  0  0  0  0  0
   18.0430   19.5504    6.9867 H   0  0  0  0  0  0  0  0  0  0  0  0
   18.7024   17.3951    8.7467 H   0  0  0  0  0  0  0  0  0  0  0  0
   17.8689   17.3361    7.1334 H   0  0  0  0  0  0  0  0  0  0  0  0
   21.7586   17.9251    7.8861 H   0  0  0  0  0  0  0  0  0  0  0  0
   24.3532   12.0308    9.0622 H   0  0  0  0  0  0  0  0  0  0  0  0
   24.8924   12.1034   11.4925 H   0  0  0  0  0  0  0  0  0  0  0  0
   25.2644   13.4878   13.5362 H   0  0  0  0  0  0  0  0  0  0  0  0
   25.2771   17.9274   12.6603 H   0  0  0  0  0  0  0  0  0  0  0  0
   24.3351   18.4572   15.2204 H   0  0  0  0  0  0  0  0  0  0  0  0
   25.9146   16.8720   16.1880 H   0  0  0  0  0  0  0  0  0  0  0  0
   27.2873   17.7168   15.3949 H   0  0  0  0  0  0  0  0  0  0  0  0
   25.3695   18.8796   17.4738 H   0  0  0  0  0  0  0  0  0  0  0  0
   27.1137   18.4538   17.7061 H   0  0  0  0  0  0  0  0  0  0  0  0
   26.3459   21.5983   15.0885 H   0  0  0  0  0  0  0  0  0  0  0  0
   24.5235   17.0713   11.2334 H   0  0  0  0  0  0  0  0  0  0  0  0
   21.1417   14.5689    5.2562 H   0  0  0  0  0  0  0  0  0  0  0  0
  1  2  1  0
  2  3  1  0
  3  4  2  0
  4  5  1  0
  5  6  1  0
  6  7  2  0
  6  8  2  0
  6  9  1  0
  9 10  2  0
 10 11  1  0
 11 12  2  0
 12 13  1  0
 13 14  2  0
 14 15  1  0
 15 16  1  0
 16 17  2  0
 16 18  1  0
 18 19  1  0
 19 20  1  0
 20 21  1  0
 21 22  1  0
 22 23  2  0
 22 24  1  0
 24 25  1  0
 25 26  2  0
 15 27  2  0
 27 28  1  0
 28 29  2  0
  5 30  1  0
 30 31  2  0
 31  3  1  0
 29  9  1  0
 28 12  1  0
 25 19  1  0
  1 32  1  0
  1 33  1  0
  1 34  1  0
  2 35  1  0
  2 36  1  0
  4 37  1  0
 11 38  1  0
 13 39  1  0
 14 40  1  0
 18 41  1  0
 19 42  1  1
 20 43  1  0
 20 44  1  0
 21 45  1  0
 21 46  1  0
 24 47  1  0
 27 48  1  0
 30 49  1  0
M  END
>  <meeko>  (1165) 
{"is_sidechain": [true], "free_energy": -10.22, "intermolecular_energy": 0.0, "internal_energy": -10.22, "cluster_size": 20, "cluster_id": 1, "rank_in_cluster": 1}

>  <_RMSD_MCS_to_ref>  (1165) 
0.5792307158829039

$$$$
ligand
     RDKit          3D

 47 50  0  0  0  0  0  0  0  0999 V2000
   18.9090   19.1540    7.5370 C   0  0  0  0  0  0  0  0  0  0  0  0
   18.7730   17.6460    7.6780 C   0  0  0  0  0  0  0  0  0  0  0  0
   19.9130   16.9200    7.0570 C   0  0  0  0  0  0  0  0  0  0  0  0
   20.4250   15.6760    7.3720 C   0  0  0  0  0  0  0  0  0  0  0  0
   21.4570   15.5070    6.4950 N   0  0  0  0  0  0  0  0  0  0  0  0
   22.5450   14.2280    6.4760 S   0  0  0  0  0  6  0  0  0  0  0  0
   21.7360   13.0250    6.5530 O   0  0  0  0  0  0  0  0  0  0  0  0
   23.4400   14.4880    5.3620 O   0  0  0  0  0  0  0  0  0  0  0  0
   23.4790   14.3620    7.9780 C   0  0  0  0  0  0  0  0  0  0  0  0
   24.5800   13.5390    8.1540 C   0  0  0  0  0  0  0  0  0  0  0  0
   25.3000   13.6610    9.3410 C   0  0  0  0  0  0  0  0  0  0  0  0
   24.8710   14.6090   10.2960 C   0  0  0  0  0  0  0  0  0  0  0  0
   25.3760   14.9750   11.5840 C   0  0  0  0  0  0  0  0  0  0  0  0
   24.6350   15.9720   12.1960 C   0  0  0  0  0  0  0  0  0  0  0  0
   24.8920   16.5600   13.5020 C   0  0  0  0  0  0  0  0  0  0  0  0
   24.8250   15.9120   14.5460 O   0  0  0  0  0  0  0  0  0  0  0  0
   25.2060   17.9000   13.5180 N   0  0  0  0  0  0  0  0  0  0  0  0
   25.3430   18.6490   14.7560 C   0  0  1  0  0  0  0  0  0  0  0  0
   26.3360   18.0000   15.7130 C   0  0  0  0  0  0  0  0  0  0  0  0
   26.4580   18.8490   16.9700 C   0  0  0  0  0  0  0  0  0  0  0  0
   26.8430   20.2720   16.6370 C   0  0  0  0  0  0  0  0  0  0  0  0
   27.5470   20.9530   17.3750 O   0  0  0  0  0  0  0  0  0  0  0  0
   26.3380   20.7880   15.4700 N   0  0  0  0  0  0  0  0  0  0  0  0
   25.8220   20.0650   14.4230 C   0  0  0  0  0  0  0  0  0  0  0  0
   25.7450   20.5470   13.2930 O   0  0  0  0  0  0  0  0  0  0  0  0
   23.3280   16.4650   11.2060 S   0  0  0  0  0  0  0  0  0  0  0  0
   23.7460   15.3640    9.9790 C   0  0  0  0  0  0  0  0  0  0  0  0
   23.0150   15.2870    8.8480 N   0  0  0  0  0  0  0  0  0  0  0  0
   21.5700   16.6170    5.7210 C   0  0  0  0  0  0  0  0  0  0  0  0
   20.6310   17.4900    6.0240 N   0  0  0  0  0  0  0  0  0  0  0  0
   18.9504   19.6134    8.5356 H   0  0  0  0  0  0  0  0  0  0  0  0
   19.8320   19.3891    6.9867 H   0  0  0  0  0  0  0  0  0  0  0  0
   18.0430   19.5504    6.9867 H   0  0  0  0  0  0  0  0  0  0  0  0
   18.7315   17.3923    8.7475 H   0  0  0  0  0  0  0  0  0  0  0  0
   17.8532   17.3392    7.1585 H   0  0  0  0  0  0  0  0  0  0  0  0
   20.0798   14.9808    8.1514 H   0  0  0  0  0  0  0  0  0  0  0  0
   24.8759   12.8133    7.3821 H   0  0  0  0  0  0  0  0  0  0  0  0
   26.1830   13.0328    9.5299 H   0  0  0  0  0  0  0  0  0  0  0  0
   26.2626   14.5115   12.0414 H   0  0  0  0  0  0  0  0  0  0  0  0
   25.3487   18.3884   12.6225 H   0  0  0  0  0  0  0  0  0  0  0  0
   24.3621   18.6676   15.2536 H   0  0  0  0  0  0  0  0  0  0  0  0
   25.9815   16.9943   15.9828 H   0  0  0  0  0  0  0  0  0  0  0  0
   27.3190   17.9237   15.2252 H   0  0  0  0  0  0  0  0  0  0  0  0
   25.4913   18.8529   17.4948 H   0  0  0  0  0  0  0  0  0  0  0  0
   27.2446   18.4165   17.6058 H   0  0  0  0  0  0  0  0  0  0  0  0
   26.3469   21.8131   15.3702 H   0  0  0  0  0  0  0  0  0  0  0  0
   22.3387   16.7665    4.9485 H   0  0  0  0  0  0  0  0  0  0  0  0
  1  2  1  0
  2  3  1  0
  3  4  2  0
  4  5  1  0
  5  6  1  0
  6  7  2  0
  6  8  2  0
  6  9  1  0
  9 10  2  0
 10 11  1  0
 11 12  2  0
 12 13  1  0
 13 14  2  0
 14 15  1  0
 15 16  2  0
 15 17  1  0
 17 18  1  0
 18 19  1  0
 19 20  1  0
 20 21  1  0
 21 22  2  0
 21 23  1  0
 23 24  1  0
 24 25  2  0
 14 26  1  0
 26 27  1  0
 27 28  2  0
  5 29  1  0
 29 30  2  0
 30  3  1  0
 28  9  1  0
 27 12  1  0
 24 18  1  0
  1 31  1  0
  1 32  1  0
  1 33  1  0
  2 34  1  0
  2 35  1  0
  4 36  1  0
 10 37  1  0
 11 38  1  0
 13 39  1  0
 17 40  1  0
 18 41  1  1
 19 42  1  0
 19 43  1  0
 20 44  1  0
 20 45  1  0
 23 46  1  0
 29 47  1  0
M  END
>  <meeko>  (1166) 
{"is_sidechain": [true], "free_energy": -10.22, "intermolecular_energy": 0.0, "internal_energy": -10.22, "cluster_size": 11, "cluster_id": 1, "rank_in_cluster": 1}

>  <_RMSD_MCS_to_ref>  (1166) 
0.640613681471828

$$$$
ligand
     RDKit          3D

 42 44  0  0  0  0  0  0  0  0999 V2000
   18.9090   19.1540    7.5370 C   0  0  0  0  0  0  0  0  0  0  0  0
   18.7730   17.6460    7.6780 C   0  0  0  0  0  0  0  0  0  0  0  0
   20.0840   16.9510    7.5660 C   0  0  0  0  0  0  0  0  0  0  0  0
   21.0540   16.7650    8.5300 C   0  0  0  0  0  0  0  0  0  0  0  0
   22.0480   16.0900    7.8820 N   0  0  0  0  0  0  0  0  0  0  0  0
   23.3660   15.3490    8.6130 S   0  0  0  0  0  6  0  0  0  0  0  0
   23.2620   13.9420    8.2810 O   0  0  0  0  0  0  0  0  0  0  0  0
   24.5140   16.1670    8.2790 O   0  0  0  0  0  0  0  0  0  0  0  0
   23.1640   15.4630   10.3710 C   0  0  0  0  0  0  0  0  0  0  0  0
   22.2650   14.9040   11.2570 C   0  0  0  0  0  0  0  0  0  0  0  0
   22.5190   15.3040   12.6000 C   0  0  0  0  0  0  0  0  0  0  0  0
   23.6030   16.1570   12.7090 C   0  0  0  0  0  0  0  0  0  0  0  0
   24.1240   16.7430   13.9370 C   0  0  0  0  0  0  0  0  0  0  0  0
   24.1420   16.1390   15.0080 O   0  0  0  0  0  0  0  0  0  0  0  0
   24.5970   18.0330   13.8420 N   0  0  0  0  0  0  0  0  0  0  0  0
   25.0070   18.7940   15.0110 C   0  0  1  0  0  0  0  0  0  0  0  0
   26.0470   18.0520   15.8450 C   0  0  0  0  0  0  0  0  0  0  0  0
   26.4570   18.9150   17.0280 C   0  0  0  0  0  0  0  0  0  0  0  0
   26.9580   20.2670   16.5760 C   0  0  0  0  0  0  0  0  0  0  0  0
   27.8430   20.8730   17.1700 O   0  0  0  0  0  0  0  0  0  0  0  0
   26.3480   20.8100   15.4740 N   0  0  0  0  0  0  0  0  0  0  0  0
   25.6010   20.1270   14.5460 C   0  0  0  0  0  0  0  0  0  0  0  0
   25.4190   20.5800   13.4160 O   0  0  0  0  0  0  0  0  0  0  0  0
   24.2980   16.4600   11.1740 S   0  0  0  0  0  0  0  0  0  0  0  0
   21.6550   15.8370    6.6070 C   0  0  0  0  0  0  0  0  0  0  0  0
   20.4670   16.3570    6.3790 N   0  0  0  0  0  0  0  0  0  0  0  0
   18.9504   19.6134    8.5356 H   0  0  0  0  0  0  0  0  0  0  0  0
   19.8320   19.3891    6.9867 H   0  0  0  0  0  0  0  0  0  0  0  0
   18.0430   19.5504    6.9867 H   0  0  0  0  0  0  0  0  0  0  0  0
   18.3351   17.4201    8.6615 H   0  0  0  0  0  0  0  0  0  0  0  0
   18.1293   17.2869    6.8614 H   0  0  0  0  0  0  0  0  0  0  0  0
   21.0313   17.0874    9.5815 H   0  0  0  0  0  0  0  0  0  0  0  0
   21.4486   14.2291   10.9606 H   0  0  0  0  0  0  0  0  0  0  0  0
   21.9178   14.9705   13.4587 H   0  0  0  0  0  0  0  0  0  0  0  0
   24.6624   18.4728   12.9129 H   0  0  0  0  0  0  0  0  0  0  0  0
   24.1203   18.9510   15.6427 H   0  0  0  0  0  0  0  0  0  0  0  0
   25.6177   17.1078   16.2112 H   0  0  0  0  0  0  0  0  0  0  0  0
   26.9294   17.8370   15.2244 H   0  0  0  0  0  0  0  0  0  0  0  0
   25.5870   19.0572   17.6859 H   0  0  0  0  0  0  0  0  0  0  0  0
   27.2715   18.4049   17.5632 H   0  0  0  0  0  0  0  0  0  0  0  0
   26.4606   21.8235   15.3292 H   0  0  0  0  0  0  0  0  0  0  0  0
   22.2463   15.2762    5.8682 H   0  0  0  0  0  0  0  0  0  0  0  0
  1  2  1  0
  2  3  1  0
  3  4  2  0
  4  5  1  0
  5  6  1  0
  6  7  2  0
  6  8  2  0
  6  9  1  0
  9 10  2  0
 10 11  1  0
 11 12  2  0
 12 13  1  0
 13 14  2  0
 13 15  1  0
 15 16  1  0
 16 17  1  0
 17 18  1  0
 18 19  1  0
 19 20  2  0
 19 21  1  0
 21 22  1  0
 22 23  2  0
 12 24  1  0
  5 25  1  0
 25 26  2  0
 26  3  1  0
 24  9  1  0
 22 16  1  0
  1 27  1  0
  1 28  1  0
  1 29  1  0
  2 30  1  0
  2 31  1  0
  4 32  1  0
 10 33  1  0
 11 34  1  0
 15 35  1  0
 16 36  1  1
 17 37  1  0
 17 38  1  0
 18 39  1  0
 18 40  1  0
 21 41  1  0
 25 42  1  0
M  END
>  <meeko>  (1167) 
{"is_sidechain": [true], "free_energy": -10.22, "intermolecular_energy": 0.0, "internal_energy": -10.22, "cluster_size": 20, "cluster_id": 1, "rank_in_cluster": 1}

>  <_RMSD_MCS_to_ref>  (1167) 
0.574597927056631

$$$$
ligand
     RDKit          3D

 50 53  0  0  0  0  0  0  0  0999 V2000
   18.9090   19.1540    7.5370 C   0  0  0  0  0  0  0  0  0  0  0  0
   18.7730   17.6460    7.6780 C   0  0  0  0  0  0  0  0  0  0  0  0
   19.9600   16.9230    7.1460 C   0  0  0  0  0  0  0  0  0  0  0  0
   21.2730   16.9790    7.5700 C   0  0  0  0  0  0  0  0  0  0  0  0
   21.9330   16.1330    6.7260 N   0  0  0  0  0  0  0  0  0  0  0  0
   23.5230   15.6130    6.8920 S   0  0  0  0  0  6  0  0  0  0  0  0
   24.3400   16.8100    6.9130 O   0  0  0  0  0  0  0  0  0  0  0  0
   23.6960   14.5680    5.9020 O   0  0  0  0  0  0  0  0  0  0  0  0
   23.5620   14.8810    8.5060 C   0  0  0  0  0  0  0  0  0  0  0  0
   23.0520   13.5930    8.6990 C   0  0  0  0  0  0  0  0  0  0  0  0
   23.0900   13.0220    9.9730 C   0  0  0  0  0  0  0  0  0  0  0  0
   23.6410   13.7440   11.0330 C   0  0  0  0  0  0  0  0  0  0  0  0
   23.6950   13.1760   12.3070 N   0  0  0  0  0  0  0  0  0  0  0  0
   24.2600   13.8390   13.3690 C   0  0  0  0  0  0  0  0  0  0  0  0
   24.3990   13.3240   14.4670 O   0  0  0  0  0  0  0  0  0  0  0  0
   24.7460   15.2550   13.0870 C   0  0  0  0  0  0  0  0  0  0  0  0
   25.3190   16.1270   14.1910 C   0  0  0  0  0  0  0  0  0  0  0  0
   25.9290   15.6340   15.1250 O   0  0  0  0  0  0  0  0  0  0  0  0
   25.0240   17.4660   14.0520 N   0  0  0  0  0  0  0  0  0  0  0  0
   25.2880   18.4080   15.1280 C   0  0  1  0  0  0  0  0  0  0  0  0
   26.2930   17.8590   16.1370 C   0  0  0  0  0  0  0  0  0  0  0  0
   26.5530   18.9020   17.2120 C   0  0  0  0  0  0  0  0  0  0  0  0
   27.0180   20.2070   16.6120 C   0  0  0  0  0  0  0  0  0  0  0  0
   27.8070   20.9530   17.1860 O   0  0  0  0  0  0  0  0  0  0  0  0
   26.4880   20.5460   15.3930 N   0  0  0  0  0  0  0  0  0  0  0  0
   25.8390   19.7050   14.5240 C   0  0  0  0  0  0  0  0  0  0  0  0
   25.6950   20.0020   13.3390 O   0  0  0  0  0  0  0  0  0  0  0  0
   24.7140   15.7860   11.8910 N   0  0  0  0  0  0  0  0  0  0  0  0
   24.1630   15.0330   10.8410 C   0  0  0  0  0  0  0  0  0  0  0  0
   24.1260   15.5970    9.5670 C   0  0  0  0  0  0  0  0  0  0  0  0
   21.0410   15.5700    5.8710 C   0  0  0  0  0  0  0  0  0  0  0  0
   19.8300   16.0370    6.0940 N   0  0  0  0  0  0  0  0  0  0  0  0
   18.9504   19.6134    8.5356 H   0  0  0  0  0  0  0  0  0  0  0  0
   19.8320   19.3891    6.9867 H   0  0  0  0  0  0  0  0  0  0  0  0
   18.0430   19.5504    6.9867 H   0  0  0  0  0  0  0  0  0  0  0  0
   18.6557   17.3989    8.7434 H   0  0  0  0  0  0  0  0  0  0  0  0
   17.8954   17.3298    7.0951 H   0  0  0  0  0  0  0  0  0  0  0  0
   21.6913   17.5699    8.3981 H   0  0  0  0  0  0  0  0  0  0  0  0
   22.6242   13.0340    7.8537 H   0  0  0  0  0  0  0  0  0  0  0  0
   22.6889   12.0114   10.1398 H   0  0  0  0  0  0  0  0  0  0  0  0
   23.3011   12.2358   12.4544 H   0  0  0  0  0  0  0  0  0  0  0  0
   24.6099   17.8050   13.1719 H   0  0  0  0  0  0  0  0  0  0  0  0
   24.3437   18.5904   15.6618 H   0  0  0  0  0  0  0  0  0  0  0  0
   25.8867   16.9480   16.6006 H   0  0  0  0  0  0  0  0  0  0  0  0
   27.2355   17.6197   15.6227 H   0  0  0  0  0  0  0  0  0  0  0  0
   25.6232   19.0772   17.7731 H   0  0  0  0  0  0  0  0  0  0  0  0
   27.3445   18.5248   17.8763 H   0  0  0  0  0  0  0  0  0  0  0  0
   26.5869   21.5288   15.1010 H   0  0  0  0  0  0  0  0  0  0  0  0
   24.5391   16.6021    9.3964 H   0  0  0  0  0  0  0  0  0  0  0  0
   21.2944   14.8276    5.0999 H   0  0  0  0  0  0  0  0  0  0  0  0
  1  2  1  0
  2  3  1  0
  3  4  2  0
  4  5  1  0
  5  6  1  0
  6  7  2  0
  6  8  2  0
  6  9  1  0
  9 10  2  0
 10 11  1  0
 11 12  2  0
 12 13  1  0
 13 14  1  0
 14 15  2  0
 14 16  1  0
 16 17  1  0
 17 18  2  0
 17 19  1  0
 19 20  1  0
 20 21  1  0
 21 22  1  0
 22 23  1  0
 23 24  2  0
 23 25  1  0
 25 26  1  0
 26 27  2  0
 16 28  2  0
 28 29  1  0
 29 30  2  0
  5 31  1  0
 31 32  2  0
 32  3  1  0
 30  9  1  0
 29 12  1  0
 26 20  1  0
  1 33  1  0
  1 34  1  0
  1 35  1  0
  2 36  1  0
  2 37  1  0
  4 38  1  0
 10 39  1  0
 11 40  1  0
 13 41  1  0
 19 42  1  0
 20 43  1  1
 21 44  1  0
 21 45  1  0
 22 46  1  0
 22 47  1  0
 25 48  1  0
 30 49  1  0
 31 50  1  0
M  END
>  <meeko>  (1168) 
{"is_sidechain": [true], "free_energy": -10.22, "intermolecular_energy": 0.0, "internal_energy": -10.22, "cluster_size": 19, "cluster_id": 1, "rank_in_cluster": 1}

>  <_RMSD_MCS_to_ref>  (1168) 
0.6572081523806252

$$$$
ligand
     RDKit          3D

 46 49  0  0  0  0  0  0  0  0999 V2000
   18.9090   19.1540    7.5370 C   0  0  0  0  0  0  0  0  0  0  0  0
   18.7730   17.6460    7.6780 C   0  0  0  0  0  0  0  0  0  0  0  0
   20.0890   16.9540    7.6150 C   0  0  0  0  0  0  0  0  0  0  0  0
   20.6650   16.0990    8.5340 C   0  0  0  0  0  0  0  0  0  0  0  0
   21.8740   15.7830    7.9840 N   0  0  0  0  0  0  0  0  0  0  0  0
   22.9350   14.6030    8.5400 S   0  0  0  0  0  6  0  0  0  0  0  0
   22.1210   13.6840    9.3120 O   0  0  0  0  0  0  0  0  0  0  0  0
   23.7080   14.1820    7.3890 O   0  0  0  0  0  0  0  0  0  0  0  0
   24.0040   15.4880    9.6430 C   0  0  0  0  0  0  0  0  0  0  0  0
   25.3300   15.7750    9.2480 C   0  0  0  0  0  0  0  0  0  0  0  0
   26.1900   16.4720   10.1040 C   0  0  0  0  0  0  0  0  0  0  0  0
   25.7030   16.8700   11.3360 C   0  0  0  0  0  0  0  0  0  0  0  0
   24.3870   16.5840   11.7020 C   0  0  0  0  0  0  0  0  0  0  0  0
   23.5100   15.9050   10.8820 C   0  0  0  0  0  0  0  0  0  0  0  0
   24.1570   17.1290   13.0440 C   0  0  0  0  0  0  0  0  0  0  0  0
   23.0970   17.0910   13.6350 O   0  0  0  0  0  0  0  0  0  0  0  0
   25.3620   17.6660   13.4710 N   0  0  0  0  0  0  0  0  0  0  0  0
   25.4460   18.5200   14.6510 C   0  0  1  0  0  0  0  0  0  0  0  0
   26.3330   17.9250   15.7420 C   0  0  0  0  0  0  0  0  0  0  0  0
   26.3010   18.8280   16.9660 C   0  0  0  0  0  0  0  0  0  0  0  0
   26.7070   20.2390   16.6130 C   0  0  0  0  0  0  0  0  0  0  0  0
   27.3600   20.9460   17.3770 O   0  0  0  0  0  0  0  0  0  0  0  0
   26.2950   20.7090   15.3920 N   0  0  0  0  0  0  0  0  0  0  0  0
   25.9540   19.9320   14.3100 C   0  0  0  0  0  0  0  0  0  0  0  0
   26.0730   20.3700   13.1680 O   0  0  0  0  0  0  0  0  0  0  0  0
   26.3800   17.6360   12.4270 C   0  0  0  0  0  0  0  0  0  0  0  0
   21.9850   16.3860    6.7730 C   0  0  0  0  0  0  0  0  0  0  0  0
   20.9180   17.1160    6.5220 N   0  0  0  0  0  0  0  0  0  0  0  0
   18.9504   19.6134    8.5356 H   0  0  0  0  0  0  0  0  0  0  0  0
   19.8320   19.3891    6.9867 H   0  0  0  0  0  0  0  0  0  0  0  0
   18.0430   19.5504    6.9867 H   0  0  0  0  0  0  0  0  0  0  0  0
   18.3011   17.4220    8.6460 H   0  0  0  0  0  0  0  0  0  0  0  0
   18.1602   17.2826    6.8399 H   0  0  0  0  0  0  0  0  0  0  0  0
   20.2458   15.7521    9.4900 H   0  0  0  0  0  0  0  0  0  0  0  0
   25.6887   15.4483    8.2608 H   0  0  0  0  0  0  0  0  0  0  0  0
   27.2245   16.6971    9.8055 H   0  0  0  0  0  0  0  0  0  0  0  0
   22.4732   15.7018   11.1881 H   0  0  0  0  0  0  0  0  0  0  0  0
   24.4164   18.5893   15.0319 H   0  0  0  0  0  0  0  0  0  0  0  0
   25.9614   16.9258   16.0130 H   0  0  0  0  0  0  0  0  0  0  0  0
   27.3658   17.8427   15.3724 H   0  0  0  0  0  0  0  0  0  0  0  0
   25.2806   18.8401   17.3766 H   0  0  0  0  0  0  0  0  0  0  0  0
   27.0123   18.4356   17.7077 H   0  0  0  0  0  0  0  0  0  0  0  0
   26.2361   21.7307   15.2758 H   0  0  0  0  0  0  0  0  0  0  0  0
   26.6404   18.6523   12.0965 H   0  0  0  0  0  0  0  0  0  0  0  0
   27.3296   17.1870   12.7536 H   0  0  0  0  0  0  0  0  0  0  0  0
   22.8456   16.2798    6.0961 H   0  0  0  0  0  0  0  0  0  0  0  0
  1  2  1  0
  2  3  1  0
  3  4  2  0
  4  5  1  0
  5  6  1  0
  6  7  2  0
  6  8  2  0
  6  9  1  0
  9 10  2  0
 10 11  1  0
 11 12  2  0
 12 13  1  0
 13 14  2  0
 13 15  1  0
 15 16  2  0
 15 17  1  0
 17 18  1  0
 18 19  1  0
 19 20  1  0
 20 21  1  0
 21 22  2  0
 21 23  1  0
 23 24  1  0
 24 25  2  0
 17 26  1  0
  5 27  1  0
 27 28  2  0
 28  3  1  0
 14  9  1  0
 24 18  1  0
 26 12  1  0
  1 29  1  0
  1 30  1  0
  1 31  1  0
  2 32  1  0
  2 33  1  0
  4 34  1  0
 10 35  1  0
 11 36  1  0
 14 37  1  0
 18 38  1  1
 19 39  1  0
 19 40  1  0
 20 41  1  0
 20 42  1  0
 23 43  1  0
 26 44  1  0
 26 45  1  0
 27 46  1  0
M  END
>  <meeko>  (1169) 
{"is_sidechain": [true], "free_energy": -10.22, "intermolecular_energy": 0.0, "internal_energy": -10.22, "cluster_size": 20, "cluster_id": 1, "rank_in_cluster": 1}

>  <_RMSD_MCS_to_ref>  (1169) 
0.7298011905839686

$$$$
ligand
     RDKit          3D

 52 56  0  0  0  0  0  0  0  0999 V2000
   18.8250   19.0180    7.5350 C   0  0  0  0  0  0  0  0  0  0  0  0
   18.5200   17.5410    7.7330 C   0  0  0  0  0  0  0  0  0  0  0  0
   19.7570   16.7140    7.7450 C   0  0  0  0  0  0  0  0  0  0  0  0
   20.2630   15.9260    8.7610 C   0  0  0  0  0  0  0  0  0  0  0  0
   21.4350   15.4470    8.2530 N   0  0  0  0  0  0  0  0  0  0  0  0
   22.4870   14.3930    9.0250 S   0  0  0  0  0  6  0  0  0  0  0  0
   21.6630   13.2420    9.3480 O   0  0  0  0  0  0  0  0  0  0  0  0
   23.6630   14.2750    8.1860 O   0  0  0  0  0  0  0  0  0  0  0  0
   22.9800   15.1730   10.5440 C   0  0  0  0  0  0  0  0  0  0  0  0
   22.0110   15.2490   11.5750 C   0  0  0  0  0  0  0  0  0  0  0  0
   22.3070   15.8740   12.7880 C   0  0  0  0  0  0  0  0  0  0  0  0
   23.5710   16.4080   12.9320 C   0  0  0  0  0  0  0  0  0  0  0  0
   24.5420   16.3360   11.9340 C   0  0  0  0  0  0  0  0  0  0  0  0
   24.2740   15.6960   10.7270 C   0  0  0  0  0  0  0  0  0  0  0  0
   25.3170   15.6470    9.7290 C   0  0  0  0  0  0  0  0  0  0  0  0
   26.4690   14.8970    9.8500 C   0  0  0  0  0  0  0  0  0  0  0  0
   27.4430   15.1150    8.4530 S   0  0  0  0  0  0  0  0  0  0  0  0
   26.2620   16.1880    7.8200 C   0  0  0  0  0  0  0  0  0  0  0  0
   25.2150   16.4080    8.5860 N   0  0  0  0  0  0  0  0  0  0  0  0
   25.7780   17.0500   12.3820 C   0  0  0  0  0  0  0  0  0  0  0  0
   25.4560   17.4170   13.7560 N   0  0  0  0  0  0  0  0  0  0  0  0
   26.2400   18.3690   14.5340 C   0  0  1  0  0  0  0  0  0  0  0  0
   25.6180   19.7630   14.5520 C   0  0  0  0  0  0  0  0  0  0  0  0
   26.5320   20.7140   15.3090 C   0  0  0  0  0  0  0  0  0  0  0  0
   26.8130   20.2050   16.7050 C   0  0  0  0  0  0  0  0  0  0  0  0
   26.9430   20.9590   17.6630 O   0  0  0  0  0  0  0  0  0  0  0  0
   26.9370   18.8470   16.8480 N   0  0  0  0  0  0  0  0  0  0  0  0
   26.4490   17.8950   15.9830 C   0  0  0  0  0  0  0  0  0  0  0  0
   26.2090   16.7580   16.3820 O   0  0  0  0  0  0  0  0  0  0  0  0
   24.1380   17.1300   14.0770 C   0  0  0  0  0  0  0  0  0  0  0  0
   23.5340   17.4060   15.0940 O   0  0  0  0  0  0  0  0  0  0  0  0
   21.5700   15.8600    6.9670 C   0  0  0  0  0  0  0  0  0  0  0  0
   20.5780   16.6600    6.6340 N   0  0  0  0  0  0  0  0  0  0  0  0
   18.9258   19.5062    8.5155 H   0  0  0  0  0  0  0  0  0  0  0  0
   19.7645   19.1263    6.9731 H   0  0  0  0  0  0  0  0  0  0  0  0
   18.0053   19.4896    6.9731 H   0  0  0  0  0  0  0  0  0  0  0  0
   17.9968   17.4117    8.6919 H   0  0  0  0  0  0  0  0  0  0  0  0
   17.8955   17.2068    6.8914 H   0  0  0  0  0  0  0  0  0  0  0  0
   19.8229   15.7303    9.7500 H   0  0  0  0  0  0  0  0  0  0  0  0
   21.0144   14.8107   11.4180 H   0  0  0  0  0  0  0  0  0  0  0  0
   21.5630   15.9380   13.5957 H   0  0  0  0  0  0  0  0  0  0  0  0
   26.7238   14.2583   10.7086 H   0  0  0  0  0  0  0  0  0  0  0  0
   26.3737   16.6628    6.8340 H   0  0  0  0  0  0  0  0  0  0  0  0
   26.6550   16.3871   12.3436 H   0  0  0  0  0  0  0  0  0  0  0  0
   26.0378   17.9117   11.7495 H   0  0  0  0  0  0  0  0  0  0  0  0
   27.2151   18.4265   14.0281 H   0  0  0  0  0  0  0  0  0  0  0  0
   25.4897   20.1210   13.5198 H   0  0  0  0  0  0  0  0  0  0  0  0
   24.6377   19.7216   15.0493 H   0  0  0  0  0  0  0  0  0  0  0  0
   27.4824   20.8091   14.7634 H   0  0  0  0  0  0  0  0  0  0  0  0
   26.0315   21.6903   15.3878 H   0  0  0  0  0  0  0  0  0  0  0  0
   27.4419   18.5085   17.6795 H   0  0  0  0  0  0  0  0  0  0  0  0
   22.3922   15.5677    6.2972 H   0  0  0  0  0  0  0  0  0  0  0  0
  1  2  1  0
  2  3  1  0
  3  4  2  0
  4  5  1  0
  5  6  1  0
  6  7  2  0
  6  8  2  0
  6  9  1  0
  9 10  2  0
 10 11  1  0
 11 12  2  0
 12 13  1  0
 13 14  2  0
 14 15  1  0
 15 16  2  0
 16 17  1  0
 17 18  1  0
 18 19  2  0
 13 20  1  0
 20 21  1  0
 21 22  1  0
 22 23  1  0
 23 24  1  0
 24 25  1  0
 25 26  2  0
 25 27  1  0
 27 28  1  0
 28 29  2  0
 21 30  1  0
 30 31  2  0
  5 32  1  0
 32 33  2  0
 33  3  1  0
 14  9  1  0
 19 15  1  0
 28 22  1  0
 30 12  1  0
  1 34  1  0
  1 35  1  0
  1 36  1  0
  2 37  1  0
  2 38  1  0
  4 39  1  0
 10 40  1  0
 11 41  1  0
 16 42  1  0
 18 43  1  0
 20 44  1  0
 20 45  1  0
 22 46  1  6
 23 47  1  0
 23 48  1  0
 24 49  1  0
 24 50  1  0
 27 51  1  0
 32 52  1  0
M  END
>  <meeko>  (1170) 
{"is_sidechain": [true], "free_energy": -10.21, "intermolecular_energy": 0.0, "internal_energy": -10.21, "cluster_size": 12, "cluster_id": 1, "rank_in_cluster": 1}

>  <_RMSD_MCS_to_ref>  (1170) 
1.8330776185299837

$$$$
ligand
     RDKit          3D

 46 49  0  0  0  0  0  0  0  0999 V2000
   18.8250   19.0170    7.5350 C   0  0  0  0  0  0  0  0  0  0  0  0
   18.5200   17.5420    7.7330 C   0  0  0  0  0  0  0  0  0  0  0  0
   19.7260   16.7660    8.1290 C   0  0  0  0  0  0  0  0  0  0  0  0
   20.3200   16.6570    9.3730 C   0  0  0  0  0  0  0  0  0  0  0  0
   21.4020   15.8520    9.1560 N   0  0  0  0  0  0  0  0  0  0  0  0
   22.4850   15.3330   10.3300 S   0  0  0  0  0  6  0  0  0  0  0  0
   23.4160   16.4140   10.5770 O   0  0  0  0  0  0  0  0  0  0  0  0
   22.9400   14.0510    9.8210 O   0  0  0  0  0  0  0  0  0  0  0  0
   21.5790   15.0160   11.8090 C   0  0  0  0  0  0  0  0  0  0  0  0
   20.2730   14.5230   11.6760 C   0  0  0  0  0  0  0  0  0  0  0  0
   19.4840   14.3370   12.8060 C   0  0  0  0  0  0  0  0  0  0  0  0
   20.0240   14.6640   14.0350 C   0  0  0  0  0  0  0  0  0  0  0  0
   21.2770   15.1390   14.1950 N   0  0  0  0  0  0  0  0  0  0  0  0
   22.0560   15.2880   13.0850 C   0  0  0  0  0  0  0  0  0  0  0  0
   23.3960   15.7420   13.3730 C   0  0  0  0  0  0  0  0  0  0  0  0
   23.7450   16.6650   14.3320 C   0  0  0  0  0  0  0  0  0  0  0  0
   25.0790   16.8550   14.1300 N   0  0  0  0  0  0  0  0  0  0  0  0
   26.0180   17.7300   14.8150 C   0  0  2  0  0  0  0  0  0  0  0  0
   25.7820   17.6960   16.3260 C   0  0  0  0  0  0  0  0  0  0  0  0
   26.8280   18.5450   17.0310 C   0  0  0  0  0  0  0  0  0  0  0  0
   26.8230   19.9590   16.5070 C   0  0  0  0  0  0  0  0  0  0  0  0
   27.1540   20.9200   17.1940 O   0  0  0  0  0  0  0  0  0  0  0  0
   26.4700   20.1190   15.1900 N   0  0  0  0  0  0  0  0  0  0  0  0
   25.9870   19.1670   14.3160 C   0  0  0  0  0  0  0  0  0  0  0  0
   25.5990   19.5160   13.2030 O   0  0  0  0  0  0  0  0  0  0  0  0
   25.5480   16.0060   13.1930 N   0  0  0  0  0  0  0  0  0  0  0  0
   24.5150   15.3320   12.7090 N   0  0  0  0  0  0  0  0  0  0  0  0
   21.4020   15.4430    7.8610 C   0  0  0  0  0  0  0  0  0  0  0  0
   20.4090   16.0040    7.2000 N   0  0  0  0  0  0  0  0  0  0  0  0
   18.9260   19.5054    8.5155 H   0  0  0  0  0  0  0  0  0  0  0  0
   19.7645   19.1250    6.9731 H   0  0  0  0  0  0  0  0  0  0  0  0
   18.0054   19.4887    6.9731 H   0  0  0  0  0  0  0  0  0  0  0  0
   17.7591   17.4404    8.5209 H   0  0  0  0  0  0  0  0  0  0  0  0
   18.1603   17.1403    6.7742 H   0  0  0  0  0  0  0  0  0  0  0  0
   19.9957   17.1136   10.3197 H   0  0  0  0  0  0  0  0  0  0  0  0
   19.8733   14.2838   10.6795 H   0  0  0  0  0  0  0  0  0  0  0  0
   18.4609   13.9415   12.7238 H   0  0  0  0  0  0  0  0  0  0  0  0
   19.3995   14.5301   14.9306 H   0  0  0  0  0  0  0  0  0  0  0  0
   23.0984   17.1386   15.0854 H   0  0  0  0  0  0  0  0  0  0  0  0
   27.0196   17.3382   14.5842 H   0  0  0  0  0  0  0  0  0  0  0  0
   24.7802   18.0923   16.5479 H   0  0  0  0  0  0  0  0  0  0  0  0
   25.8576   16.6578   16.6817 H   0  0  0  0  0  0  0  0  0  0  0  0
   26.6107   18.5607   18.1092 H   0  0  0  0  0  0  0  0  0  0  0  0
   27.8189   18.1062   16.8425 H   0  0  0  0  0  0  0  0  0  0  0  0
   26.5794   21.0686   14.8064 H   0  0  0  0  0  0  0  0  0  0  0  0
   22.1287   14.7419    7.4248 H   0  0  0  0  0  0  0  0  0  0  0  0
  1  2  1  0
  2  3  1  0
  3  4  2  0
  4  5  1  0
  5  6  1  0
  6  7  2  0
  6  8  2  0
  6  9  1  0
  9 10  2  0
 10 11  1  0
 11 12  2  0
 12 13  1  0
 13 14  2  0
 14 15  1  0
 15 16  2  0
 16 17  1  0
 17 18  1  0
 18 19  1  0
 19 20  1  0
 20 21  1  0
 21 22  2  0
 21 23  1  0
 23 24  1  0
 24 25  2  0
 17 26  1  0
 26 27  2  0
  5 28  1  0
 28 29  2  0
 29  3  1  0
 14  9  1  0
 27 15  1  0
 24 18  1  0
  1 30  1  0
  1 31  1  0
  1 32  1  0
  2 33  1  0
  2 34  1  0
  4 35  1  0
 10 36  1  0
 11 37  1  0
 12 38  1  0
 16 39  1  0
 18 40  1  1
 19 41  1  0
 19 42  1  0
 20 43  1  0
 20 44  1  0
 23 45  1  0
 28 46  1  0
M  END
>  <meeko>  (1171) 
{"is_sidechain": [true], "free_energy": -10.21, "intermolecular_energy": 0.0, "internal_energy": -10.21, "cluster_size": 19, "cluster_id": 1, "rank_in_cluster": 1}

>  <_RMSD_MCS_to_ref>  (1171) 
0.8402795831018263

$$$$
ligand
     RDKit          3D

 46 49  0  0  0  0  0  0  0  0999 V2000
   18.8250   19.0180    7.5350 C   0  0  0  0  0  0  0  0  0  0  0  0
   18.5200   17.5410    7.7330 C   0  0  0  0  0  0  0  0  0  0  0  0
   19.7350   16.7640    8.0950 C   0  0  0  0  0  0  0  0  0  0  0  0
   20.3540   16.6440    9.3240 C   0  0  0  0  0  0  0  0  0  0  0  0
   21.4580   15.8840    9.0650 N   0  0  0  0  0  0  0  0  0  0  0  0
   22.5890   15.3680   10.1920 S   0  0  0  0  0  6  0  0  0  0  0  0
   22.3230   16.1960   11.3540 O   0  0  0  0  0  0  0  0  0  0  0  0
   22.5020   13.9230   10.2500 O   0  0  0  0  0  0  0  0  0  0  0  0
   24.1810   15.7820    9.5760 C   0  0  0  0  0  0  0  0  0  0  0  0
   24.4100   15.5330    8.2320 C   0  0  0  0  0  0  0  0  0  0  0  0
   25.5940   15.7610    7.6140 N   0  0  0  0  0  0  0  0  0  0  0  0
   26.5920   16.2580    8.3700 C   0  0  0  0  0  0  0  0  0  0  0  0
   26.4540   16.5470    9.7160 C   0  0  0  0  0  0  0  0  0  0  0  0
   25.2190   16.3220   10.3370 C   0  0  0  0  0  0  0  0  0  0  0  0
   25.1260   16.6400   11.7390 C   0  0  0  0  0  0  0  0  0  0  0  0
   25.4790   17.8200   12.3510 C   0  0  0  0  0  0  0  0  0  0  0  0
   25.1560   17.6140   13.6630 N   0  0  0  0  0  0  0  0  0  0  0  0
   25.3310   18.4800   14.8200 C   0  0  1  0  0  0  0  0  0  0  0  0
   26.3440   17.8780   15.7950 C   0  0  0  0  0  0  0  0  0  0  0  0
   26.4550   18.7580   17.0300 C   0  0  0  0  0  0  0  0  0  0  0  0
   26.8270   20.1720   16.6590 C   0  0  0  0  0  0  0  0  0  0  0  0
   27.4490   20.9100   17.4160 O   0  0  0  0  0  0  0  0  0  0  0  0
   26.3850   20.6150   15.4370 N   0  0  0  0  0  0  0  0  0  0  0  0
   25.7360   19.8980   14.4550 C   0  0  0  0  0  0  0  0  0  0  0  0
   25.4900   20.4350   13.3780 O   0  0  0  0  0  0  0  0  0  0  0  0
   24.7300   16.3490   13.8580 N   0  0  0  0  0  0  0  0  0  0  0  0
   24.6980   15.7480   12.6780 N   0  0  0  0  0  0  0  0  0  0  0  0
   21.4250   15.4760    7.7710 C   0  0  0  0  0  0  0  0  0  0  0  0
   20.4060   16.0250    7.1400 N   0  0  0  0  0  0  0  0  0  0  0  0
   18.9258   19.5062    8.5155 H   0  0  0  0  0  0  0  0  0  0  0  0
   19.7645   19.1263    6.9731 H   0  0  0  0  0  0  0  0  0  0  0  0
   18.0053   19.4896    6.9731 H   0  0  0  0  0  0  0  0  0  0  0  0
   17.7787   17.4366    8.5389 H   0  0  0  0  0  0  0  0  0  0  0  0
   18.1339   17.1439    6.7826 H   0  0  0  0  0  0  0  0  0  0  0  0
   20.0318   17.0638   10.2884 H   0  0  0  0  0  0  0  0  0  0  0  0
   23.5824   15.1266    7.6321 H   0  0  0  0  0  0  0  0  0  0  0  0
   27.5658   16.4434    7.8932 H   0  0  0  0  0  0  0  0  0  0  0  0
   27.3023   16.9478   10.2903 H   0  0  0  0  0  0  0  0  0  0  0  0
   25.9180   18.7183   11.8924 H   0  0  0  0  0  0  0  0  0  0  0  0
   24.3457   18.5471   15.3044 H   0  0  0  0  0  0  0  0  0  0  0  0
   26.0121   16.8721   16.0918 H   0  0  0  0  0  0  0  0  0  0  0  0
   27.3266   17.8141   15.3047 H   0  0  0  0  0  0  0  0  0  0  0  0
   25.4872   18.7667   17.5528 H   0  0  0  0  0  0  0  0  0  0  0  0
   27.2426   18.3492   17.6801 H   0  0  0  0  0  0  0  0  0  0  0  0
   26.5605   21.6081   15.2278 H   0  0  0  0  0  0  0  0  0  0  0  0
   22.1472   14.7842    7.3130 H   0  0  0  0  0  0  0  0  0  0  0  0
  1  2  1  0
  2  3  1  0
  3  4  2  0
  4  5  1  0
  5  6  1  0
  6  7  2  0
  6  8  2  0
  6  9  1  0
  9 10  2  0
 10 11  1  0
 11 12  2  0
 12 13  1  0
 13 14  2  0
 14 15  1  0
 15 16  2  0
 16 17  1  0
 17 18  1  0
 18 19  1  0
 19 20  1  0
 20 21  1  0
 21 22  2  0
 21 23  1  0
 23 24  1  0
 24 25  2  0
 17 26  1  0
 26 27  2  0
  5 28  1  0
 28 29  2  0
 29  3  1  0
 14  9  1  0
 27 15  1  0
 24 18  1  0
  1 30  1  0
  1 31  1  0
  1 32  1  0
  2 33  1  0
  2 34  1  0
  4 35  1  0
 10 36  1  0
 12 37  1  0
 13 38  1  0
 16 39  1  0
 18 40  1  1
 19 41  1  0
 19 42  1  0
 20 43  1  0
 20 44  1  0
 23 45  1  0
 28 46  1  0
M  END
>  <meeko>  (1172) 
{"is_sidechain": [true], "free_energy": -10.21, "intermolecular_energy": 0.0, "internal_energy": -10.21, "cluster_size": 10, "cluster_id": 1, "rank_in_cluster": 1}

>  <_RMSD_MCS_to_ref>  (1172) 
0.5515959672723423

$$$$
ligand
     RDKit          3D

 54 58  0  0  0  0  0  0  0  0999 V2000
   18.8250   19.0170    7.5350 C   0  0  0  0  0  0  0  0  0  0  0  0
   18.5200   17.5420    7.7330 C   0  0  0  0  0  0  0  0  0  0  0  0
   19.7480   16.7000    7.7360 C   0  0  0  0  0  0  0  0  0  0  0  0
   20.3550   16.0520    8.7940 C   0  0  0  0  0  0  0  0  0  0  0  0
   21.4370   15.4410    8.2350 N   0  0  0  0  0  0  0  0  0  0  0  0
   22.5210   14.4120    8.9950 S   0  0  0  0  0  6  0  0  0  0  0  0
   23.6770   14.2900    8.1320 O   0  0  0  0  0  0  0  0  0  0  0  0
   21.7200   13.2630    9.3710 O   0  0  0  0  0  0  0  0  0  0  0  0
   23.0240   15.2630   10.4850 C   0  0  0  0  0  0  0  0  0  0  0  0
   22.0330   15.3920   11.4950 C   0  0  0  0  0  0  0  0  0  0  0  0
   22.3140   16.0340   12.6990 C   0  0  0  0  0  0  0  0  0  0  0  0
   23.5900   16.5210   12.8680 C   0  0  0  0  0  0  0  0  0  0  0  0
   24.5850   16.3990   11.8950 C   0  0  0  0  0  0  0  0  0  0  0  0
   24.3370   15.7670   10.6690 C   0  0  0  0  0  0  0  0  0  0  0  0
   25.4290   15.6660    9.7010 C   0  0  0  0  0  0  0  0  0  0  0  0
   26.4500   14.7350    9.8190 C   0  0  0  0  0  0  0  0  0  0  0  0
   27.4330   14.5660    8.9120 N   0  0  0  0  0  0  0  0  0  0  0  0
   27.3840   15.3670    7.8390 C   0  0  0  0  0  0  0  0  0  0  0  0
   26.4490   16.2960    7.6010 N   0  0  0  0  0  0  0  0  0  0  0  0
   25.4890   16.4230    8.5420 C   0  0  0  0  0  0  0  0  0  0  0  0
   25.8480   17.0330   12.4040 C   0  0  0  0  0  0  0  0  0  0  0  0
   25.4900   17.4400   13.7550 N   0  0  0  0  0  0  0  0  0  0  0  0
   26.2940   18.3620   14.5510 C   0  0  1  0  0  0  0  0  0  0  0  0
   25.7360   19.7820   14.5450 C   0  0  0  0  0  0  0  0  0  0  0  0
   26.6700   20.6930   15.3260 C   0  0  0  0  0  0  0  0  0  0  0  0
   26.8930   20.1760   16.7290 C   0  0  0  0  0  0  0  0  0  0  0  0
   27.0250   20.9250   17.6930 O   0  0  0  0  0  0  0  0  0  0  0  0
   26.9590   18.8140   16.8790 N   0  0  0  0  0  0  0  0  0  0  0  0
   26.4350   17.8870   16.0070 C   0  0  0  0  0  0  0  0  0  0  0  0
   26.1030   16.7720   16.4060 O   0  0  0  0  0  0  0  0  0  0  0  0
   24.1500   17.2250   14.0260 C   0  0  0  0  0  0  0  0  0  0  0  0
   23.5210   17.5460   15.0150 O   0  0  0  0  0  0  0  0  0  0  0  0
   21.4840   15.7330    6.9100 C   0  0  0  0  0  0  0  0  0  0  0  0
   20.4560   16.4820    6.5690 N   0  0  0  0  0  0  0  0  0  0  0  0
   18.9260   19.5054    8.5155 H   0  0  0  0  0  0  0  0  0  0  0  0
   19.7645   19.1250    6.9731 H   0  0  0  0  0  0  0  0  0  0  0  0
   18.0054   19.4887    6.9731 H   0  0  0  0  0  0  0  0  0  0  0  0
   18.0031   17.4150    8.6957 H   0  0  0  0  0  0  0  0  0  0  0  0
   17.8931   17.2148    6.8904 H   0  0  0  0  0  0  0  0  0  0  0  0
   20.0375   16.0334    9.8470 H   0  0  0  0  0  0  0  0  0  0  0  0
   21.0282   14.9785   11.3236 H   0  0  0  0  0  0  0  0  0  0  0  0
   21.5488   16.1468   13.4811 H   0  0  0  0  0  0  0  0  0  0  0  0
   26.4584   14.0920   10.7115 H   0  0  0  0  0  0  0  0  0  0  0  0
   28.1803   15.2517    7.0889 H   0  0  0  0  0  0  0  0  0  0  0  0
   24.7040   17.1759    8.3779 H   0  0  0  0  0  0  0  0  0  0  0  0
   26.6764   16.3094   12.4157 H   0  0  0  0  0  0  0  0  0  0  0  0
   26.1961   17.8679   11.7781 H   0  0  0  0  0  0  0  0  0  0  0  0
   27.2850   18.3738   14.0737 H   0  0  0  0  0  0  0  0  0  0  0  0
   25.6552   20.1405   13.5082 H   0  0  0  0  0  0  0  0  0  0  0  0
   24.7400   19.7882   15.0119 H   0  0  0  0  0  0  0  0  0  0  0  0
   27.6375   20.7460   14.8053 H   0  0  0  0  0  0  0  0  0  0  0  0
   26.2092   21.6897   15.3917 H   0  0  0  0  0  0  0  0  0  0  0  0
   27.4416   18.4547   17.7150 H   0  0  0  0  0  0  0  0  0  0  0  0
   22.2694   15.3923    6.2193 H   0  0  0  0  0  0  0  0  0  0  0  0
  1  2  1  0
  2  3  1  0
  3  4  2  0
  4  5  1  0
  5  6  1  0
  6  7  2  0
  6  8  2  0
  6  9  1  0
  9 10  2  0
 10 11  1  0
 11 12  2  0
 12 13  1  0
 13 14  2  0
 14 15  1  0
 15 16  2  0
 16 17  1  0
 17 18  2  0
 18 19  1  0
 19 20  2  0
 13 21  1  0
 21 22  1  0
 22 23  1  0
 23 24  1  0
 24 25  1  0
 25 26  1  0
 26 27  2  0
 26 28  1  0
 28 29  1  0
 29 30  2  0
 22 31  1  0
 31 32  2  0
  5 33  1  0
 33 34  2  0
 34  3  1  0
 14  9  1  0
 20 15  1  0
 29 23  1  0
 31 12  1  0
  1 35  1  0
  1 36  1  0
  1 37  1  0
  2 38  1  0
  2 39  1  0
  4 40  1  0
 10 41  1  0
 11 42  1  0
 16 43  1  0
 18 44  1  0
 20 45  1  0
 21 46  1  0
 21 47  1  0
 23 48  1  6
 24 49  1  0
 24 50  1  0
 25 51  1  0
 25 52  1  0
 28 53  1  0
 33 54  1  0
M  END
>  <meeko>  (1173) 
{"is_sidechain": [true], "free_energy": -10.21, "intermolecular_energy": 0.0, "internal_energy": -10.21, "cluster_size": 7, "cluster_id": 1, "rank_in_cluster": 1}

>  <_RMSD_MCS_to_ref>  (1173) 
1.8389421929165934

$$$$
ligand
     RDKit          3D

 49 52  0  0  0  0  0  0  0  0999 V2000
   18.7970   18.8170    7.7190 C   0  0  0  0  0  0  0  0  0  0  0  0
   18.5280   17.3290    7.8810 C   0  0  0  0  0  0  0  0  0  0  0  0
   19.7810   16.5260    7.8560 C   0  0  0  0  0  0  0  0  0  0  0  0
   20.6260   16.2020    8.8980 C   0  0  0  0  0  0  0  0  0  0  0  0
   21.6210   15.4750    8.3090 N   0  0  0  0  0  0  0  0  0  0  0  0
   22.8110   14.6130    9.1150 S   0  0  0  0  0  6  0  0  0  0  0  0
   22.8910   13.3170    8.4740 O   0  0  0  0  0  0  0  0  0  0  0  0
   23.9420   15.5080    9.2560 O   0  0  0  0  0  0  0  0  0  0  0  0
   22.2590   14.2970   10.7630 C   0  0  0  0  0  0  0  0  0  0  0  0
   21.1400   13.6670   11.2820 C   0  0  0  0  0  0  0  0  0  0  0  0
   21.2160   13.7130   12.7010 C   0  0  0  0  0  0  0  0  0  0  0  0
   20.3910   13.2450   13.7400 C   0  0  0  0  0  0  0  0  0  0  0  0
   20.7770   13.4540   15.0680 C   0  0  0  0  0  0  0  0  0  0  0  0
   21.9620   14.1290   15.3710 C   0  0  0  0  0  0  0  0  0  0  0  0
   22.7950   14.6240   14.3550 C   0  0  0  0  0  0  0  0  0  0  0  0
   24.0660   15.3590   14.6110 C   0  0  0  0  0  0  0  0  0  0  0  0
   25.1340   14.7530   14.6290 O   0  0  0  0  0  0  0  0  0  0  0  0
   23.9840   16.7210   14.7820 N   0  0  0  0  0  0  0  0  0  0  0  0
   25.1850   17.5400   14.8930 C   0  0  2  0  0  0  0  0  0  0  0  0
   25.6520   17.6880   16.3380 C   0  0  0  0  0  0  0  0  0  0  0  0
   26.8790   18.5840   16.3840 C   0  0  0  0  0  0  0  0  0  0  0  0
   26.6050   19.9240   15.7410 C   0  0  0  0  0  0  0  0  0  0  0  0
   27.1220   20.9640   16.1370 O   0  0  0  0  0  0  0  0  0  0  0  0
   25.7620   19.9250   14.6580 N   0  0  0  0  0  0  0  0  0  0  0  0
   24.8790   18.9290   14.3240 C   0  0  0  0  0  0  0  0  0  0  0  0
   23.9110   19.1510   13.5980 O   0  0  0  0  0  0  0  0  0  0  0  0
   22.3930   14.3810   13.0270 C   0  0  0  0  0  0  0  0  0  0  0  0
   23.0110   14.7070   11.8390 N   0  0  0  0  0  0  0  0  0  0  0  0
   21.3380   15.3230    6.9900 C   0  0  0  0  0  0  0  0  0  0  0  0
   20.2330   15.9670    6.6760 N   0  0  0  0  0  0  0  0  0  0  0  0
   18.8815   19.2845    8.7111 H   0  0  0  0  0  0  0  0  0  0  0  0
   19.7359   18.9616    7.1643 H   0  0  0  0  0  0  0  0  0  0  0  0
   17.9682   19.2812    7.1643 H   0  0  0  0  0  0  0  0  0  0  0  0
   18.0200   17.1633    8.8425 H   0  0  0  0  0  0  0  0  0  0  0  0
   17.9018   17.0048    7.0368 H   0  0  0  0  0  0  0  0  0  0  0  0
   20.5219   16.4684    9.9602 H   0  0  0  0  0  0  0  0  0  0  0  0
   20.3299   13.2088   10.6957 H   0  0  0  0  0  0  0  0  0  0  0  0
   19.4520   12.7201   13.5103 H   0  0  0  0  0  0  0  0  0  0  0  0
   20.1397   13.0823   15.8839 H   0  0  0  0  0  0  0  0  0  0  0  0
   22.2472   14.2751   16.4233 H   0  0  0  0  0  0  0  0  0  0  0  0
   23.0585   17.1701   14.8325 H   0  0  0  0  0  0  0  0  0  0  0  0
   25.9907   17.0437   14.3321 H   0  0  0  0  0  0  0  0  0  0  0  0
   24.8475   18.1366   16.9393 H   0  0  0  0  0  0  0  0  0  0  0  0
   25.9052   16.6979   16.7450 H   0  0  0  0  0  0  0  0  0  0  0  0
   27.1677   18.7425   17.4335 H   0  0  0  0  0  0  0  0  0  0  0  0
   27.6898   18.0912   15.8274 H   0  0  0  0  0  0  0  0  0  0  0  0
   25.7951   20.7481   14.0397 H   0  0  0  0  0  0  0  0  0  0  0  0
   23.9161   15.1933   11.7666 H   0  0  0  0  0  0  0  0  0  0  0  0
   21.9472   14.7424    6.2817 H   0  0  0  0  0  0  0  0  0  0  0  0
  1  2  1  0
  2  3  1  0
  3  4  2  0
  4  5  1  0
  5  6  1  0
  6  7  2  0
  6  8  2  0
  6  9  1  0
  9 10  2  0
 10 11  1  0
 11 12  2  0
 12 13  1  0
 13 14  2  0
 14 15  1  0
 15 16  1  0
 16 17  2  0
 16 18  1  0
 18 19  1  0
 19 20  1  0
 20 21  1  0
 21 22  1  0
 22 23  2  0
 22 24  1  0
 24 25  1  0
 25 26  2  0
 15 27  2  0
 27 28  1  0
  5 29  1  0
 29 30  2  0
 30  3  1  0
 28  9  1  0
 27 11  1  0
 25 19  1  0
  1 31  1  0
  1 32  1  0
  1 33  1  0
  2 34  1  0
  2 35  1  0
  4 36  1  0
 10 37  1  0
 12 38  1  0
 13 39  1  0
 14 40  1  0
 18 41  1  0
 19 42  1  6
 20 43  1  0
 20 44  1  0
 21 45  1  0
 21 46  1  0
 24 47  1  0
 28 48  1  0
 29 49  1  0
M  END
>  <meeko>  (1174) 
{"is_sidechain": [true], "free_energy": -10.21, "intermolecular_energy": 0.0, "internal_energy": -10.21, "cluster_size": 16, "cluster_id": 1, "rank_in_cluster": 1}

>  <_RMSD_MCS_to_ref>  (1174) 
0.97569321510401

$$$$
ligand
     RDKit          3D

 49 52  0  0  0  0  0  0  0  0999 V2000
   18.7980   18.8170    7.7190 C   0  0  0  0  0  0  0  0  0  0  0  0
   18.5270   17.3290    7.8810 C   0  0  0  0  0  0  0  0  0  0  0  0
   19.7840   16.5320    7.8810 C   0  0  0  0  0  0  0  0  0  0  0  0
   20.3400   15.7890    8.9040 C   0  0  0  0  0  0  0  0  0  0  0  0
   21.4990   15.3020    8.3690 N   0  0  0  0  0  0  0  0  0  0  0  0
   22.7060   14.5110    9.2160 S   0  0  0  0  0  6  0  0  0  0  0  0
   23.0390   13.3480    8.4180 O   0  0  0  0  0  0  0  0  0  0  0  0
   23.6750   15.5140    9.6040 O   0  0  0  0  0  0  0  0  0  0  0  0
   22.0980   13.8810   10.7040 C   0  0  0  0  0  0  0  0  0  0  0  0
   20.9900   13.0640   10.8130 C   0  0  0  0  0  0  0  0  0  0  0  0
   20.8110   12.7760   12.1370 N   0  0  0  0  0  0  0  0  0  0  0  0
   21.7850   13.3930   12.8920 C   0  0  0  0  0  0  0  0  0  0  0  0
   21.9680   13.3840   14.2800 C   0  0  0  0  0  0  0  0  0  0  0  0
   23.0460   14.1050   14.8000 C   0  0  0  0  0  0  0  0  0  0  0  0
   23.9240   14.7920   13.9590 C   0  0  0  0  0  0  0  0  0  0  0  0
   25.0420   15.5600   14.5770 C   0  0  0  0  0  0  0  0  0  0  0  0
   26.0350   14.9810   15.0040 O   0  0  0  0  0  0  0  0  0  0  0  0
   24.8990   16.9290   14.6180 N   0  0  0  0  0  0  0  0  0  0  0  0
   25.9600   17.7890   15.1200 C   0  0  2  0  0  0  0  0  0  0  0  0
   26.0880   17.7150   16.6380 C   0  0  0  0  0  0  0  0  0  0  0  0
   27.1830   18.6620   17.1010 C   0  0  0  0  0  0  0  0  0  0  0  0
   26.9260   20.0740   16.6280 C   0  0  0  0  0  0  0  0  0  0  0  0
   27.2710   21.0580   17.2750 O   0  0  0  0  0  0  0  0  0  0  0  0
   26.3150   20.2120   15.4070 N   0  0  0  0  0  0  0  0  0  0  0  0
   25.6450   19.2320   14.7160 C   0  0  0  0  0  0  0  0  0  0  0  0
   24.8560   19.5140   13.8140 O   0  0  0  0  0  0  0  0  0  0  0  0
   23.7210   14.7890   12.5680 C   0  0  0  0  0  0  0  0  0  0  0  0
   22.6280   14.0850   12.0140 C   0  0  0  0  0  0  0  0  0  0  0  0
   21.6060   15.7150    7.0800 C   0  0  0  0  0  0  0  0  0  0  0  0
   20.5850   16.4820    6.7570 N   0  0  0  0  0  0  0  0  0  0  0  0
   18.8831   19.2843    8.7111 H   0  0  0  0  0  0  0  0  0  0  0  0
   19.7370   18.9604    7.1644 H   0  0  0  0  0  0  0  0  0  0  0  0
   17.9698   19.2823    7.1644 H   0  0  0  0  0  0  0  0  0  0  0  0
   18.0020   17.1649    8.8336 H   0  0  0  0  0  0  0  0  0  0  0  0
   17.9148   16.9995    7.0286 H   0  0  0  0  0  0  0  0  0  0  0  0
   19.9415   15.6267    9.9163 H   0  0  0  0  0  0  0  0  0  0  0  0
   20.3631   12.7083    9.9821 H   0  0  0  0  0  0  0  0  0  0  0  0
   20.0578   12.1840   12.5154 H   0  0  0  0  0  0  0  0  0  0  0  0
   21.2856   12.8277   14.9394 H   0  0  0  0  0  0  0  0  0  0  0  0
   23.2054   14.1319   15.8881 H   0  0  0  0  0  0  0  0  0  0  0  0
   24.0214   17.3537   14.2859 H   0  0  0  0  0  0  0  0  0  0  0  0
   26.9128   17.4499   14.6873 H   0  0  0  0  0  0  0  0  0  0  0  0
   25.1331   18.0043   17.1010 H   0  0  0  0  0  0  0  0  0  0  0  0
   26.3428   16.6869   16.9347 H   0  0  0  0  0  0  0  0  0  0  0  0
   27.2220   18.6542   18.2003 H   0  0  0  0  0  0  0  0  0  0  0  0
   28.1383   18.3221   16.6745 H   0  0  0  0  0  0  0  0  0  0  0  0
   26.3636   21.1413   14.9655 H   0  0  0  0  0  0  0  0  0  0  0  0
   24.4134   15.3350   11.9103 H   0  0  0  0  0  0  0  0  0  0  0  0
   22.4291   15.4469    6.4013 H   0  0  0  0  0  0  0  0  0  0  0  0
  1  2  1  0
  2  3  1  0
  3  4  2  0
  4  5  1  0
  5  6  1  0
  6  7  2  0
  6  8  2  0
  6  9  1  0
  9 10  2  0
 10 11  1  0
 11 12  1  0
 12 13  2  0
 13 14  1  0
 14 15  2  0
 15 16  1  0
 16 17  2  0
 16 18  1  0
 18 19  1  0
 19 20  1  0
 20 21  1  0
 21 22  1  0
 22 23  2  0
 22 24  1  0
 24 25  1  0
 25 26  2  0
 15 27  1  0
 27 28  2  0
  5 29  1  0
 29 30  2  0
 30  3  1  0
 28  9  1  0
 28 12  1  0
 25 19  1  0
  1 31  1  0
  1 32  1  0
  1 33  1  0
  2 34  1  0
  2 35  1  0
  4 36  1  0
 10 37  1  0
 11 38  1  0
 13 39  1  0
 14 40  1  0
 18 41  1  0
 19 42  1  6
 20 43  1  0
 20 44  1  0
 21 45  1  0
 21 46  1  0
 24 47  1  0
 27 48  1  0
 29 49  1  0
M  END
>  <meeko>  (1175) 
{"is_sidechain": [true], "free_energy": -10.21, "intermolecular_energy": 0.0, "internal_energy": -10.21, "cluster_size": 11, "cluster_id": 1, "rank_in_cluster": 1}

>  <_RMSD_MCS_to_ref>  (1175) 
0.6337604042538474

$$$$
ligand
     RDKit          3D

 48 51  0  0  0  0  0  0  0  0999 V2000
   18.7970   18.8170    7.7190 C   0  0  0  0  0  0  0  0  0  0  0  0
   18.5280   17.3290    7.8810 C   0  0  0  0  0  0  0  0  0  0  0  0
   19.7630   16.5140    7.7240 C   0  0  0  0  0  0  0  0  0  0  0  0
   20.7100   16.1820    8.6730 C   0  0  0  0  0  0  0  0  0  0  0  0
   21.6260   15.4390    7.9870 N   0  0  0  0  0  0  0  0  0  0  0  0
   22.8850   14.5660    8.6650 S   0  0  0  0  0  6  0  0  0  0  0  0
   22.7170   13.1890    8.2430 O   0  0  0  0  0  0  0  0  0  0  0  0
   24.0940   15.3250    8.4390 O   0  0  0  0  0  0  0  0  0  0  0  0
   22.6800   14.5180   10.4200 C   0  0  0  0  0  0  0  0  0  0  0  0
   23.4640   14.9420   11.4790 C   0  0  0  0  0  0  0  0  0  0  0  0
   22.7840   14.6470   12.6980 C   0  0  0  0  0  0  0  0  0  0  0  0
   23.0530   14.8300   14.0660 C   0  0  0  0  0  0  0  0  0  0  0  0
   24.2980   15.4860   14.5610 C   0  0  0  0  0  0  0  0  0  0  0  0
   25.3080   14.8550   14.8520 O   0  0  0  0  0  0  0  0  0  0  0  0
   24.2180   16.8590   14.6460 N   0  0  0  0  0  0  0  0  0  0  0  0
   25.3660   17.6930   14.9470 C   0  0  2  0  0  0  0  0  0  0  0  0
   25.7040   17.6840   16.4350 C   0  0  0  0  0  0  0  0  0  0  0  0
   26.9020   18.5840   16.6890 C   0  0  0  0  0  0  0  0  0  0  0  0
   26.6540   19.9840   16.1810 C   0  0  0  0  0  0  0  0  0  0  0  0
   27.1220   20.9770   16.7300 O   0  0  0  0  0  0  0  0  0  0  0  0
   25.8980   20.0980   15.0410 N   0  0  0  0  0  0  0  0  0  0  0  0
   25.0780   19.1340   14.5090 C   0  0  0  0  0  0  0  0  0  0  0  0
   24.1870   19.4330   13.7140 O   0  0  0  0  0  0  0  0  0  0  0  0
   22.1550   14.4140   15.0120 N   0  0  0  0  0  0  0  0  0  0  0  0
   21.0100   13.8240   14.6090 C   0  0  0  0  0  0  0  0  0  0  0  0
   20.6570   13.5990   13.2870 C   0  0  0  0  0  0  0  0  0  0  0  0
   21.5840   14.0290   12.3390 C   0  0  0  0  0  0  0  0  0  0  0  0
   21.5480   13.9590   10.9670 N   0  0  0  0  0  0  0  0  0  0  0  0
   21.2050   15.2890    6.7050 C   0  0  0  0  0  0  0  0  0  0  0  0
   20.0850   15.9510    6.5050 N   0  0  0  0  0  0  0  0  0  0  0  0
   18.8815   19.2845    8.7111 H   0  0  0  0  0  0  0  0  0  0  0  0
   19.7359   18.9616    7.1643 H   0  0  0  0  0  0  0  0  0  0  0  0
   17.9682   19.2812    7.1643 H   0  0  0  0  0  0  0  0  0  0  0  0
   18.1115   17.1514    8.8835 H   0  0  0  0  0  0  0  0  0  0  0  0
   17.8213   17.0261    7.0943 H   0  0  0  0  0  0  0  0  0  0  0  0
   20.7228   16.4544    9.7387 H   0  0  0  0  0  0  0  0  0  0  0  0
   24.4481   15.4261   11.3947 H   0  0  0  0  0  0  0  0  0  0  0  0
   23.3060   17.3114   14.4895 H   0  0  0  0  0  0  0  0  0  0  0  0
   26.2279   17.2848   14.3988 H   0  0  0  0  0  0  0  0  0  0  0  0
   24.8409   18.0521   17.0091 H   0  0  0  0  0  0  0  0  0  0  0  0
   25.9438   16.6577   16.7498 H   0  0  0  0  0  0  0  0  0  0  0  0
   27.0966   18.6246   17.7709 H   0  0  0  0  0  0  0  0  0  0  0  0
   27.7681   18.1686   16.1530 H   0  0  0  0  0  0  0  0  0  0  0  0
   25.9511   20.9939   14.5356 H   0  0  0  0  0  0  0  0  0  0  0  0
   20.3044   13.4973   15.3871 H   0  0  0  0  0  0  0  0  0  0  0  0
   19.7104   13.1144   13.0057 H   0  0  0  0  0  0  0  0  0  0  0  0
   20.7783   13.5445   10.4223 H   0  0  0  0  0  0  0  0  0  0  0  0
   21.7274   14.6964    5.9396 H   0  0  0  0  0  0  0  0  0  0  0  0
  1  2  1  0
  2  3  1  0
  3  4  2  0
  4  5  1  0
  5  6  1  0
  6  7  2  0
  6  8  2  0
  6  9  1  0
  9 10  2  0
 10 11  1  0
 11 12  2  0
 12 13  1  0
 13 14  2  0
 13 15  1  0
 15 16  1  0
 16 17  1  0
 17 18  1  0
 18 19  1  0
 19 20  2  0
 19 21  1  0
 21 22  1  0
 22 23  2  0
 12 24  1  0
 24 25  2  0
 25 26  1  0
 26 27  2  0
 27 28  1  0
  5 29  1  0
 29 30  2  0
 30  3  1  0
 28  9  1  0
 27 11  1  0
 22 16  1  0
  1 31  1  0
  1 32  1  0
  1 33  1  0
  2 34  1  0
  2 35  1  0
  4 36  1  0
 10 37  1  0
 15 38  1  0
 16 39  1  6
 17 40  1  0
 17 41  1  0
 18 42  1  0
 18 43  1  0
 21 44  1  0
 25 45  1  0
 26 46  1  0
 28 47  1  0
 29 48  1  0
M  END
>  <meeko>  (1176) 
{"is_sidechain": [true], "free_energy": -10.21, "intermolecular_energy": 0.0, "internal_energy": -10.21, "cluster_size": 17, "cluster_id": 1, "rank_in_cluster": 1}

>  <_RMSD_MCS_to_ref>  (1176) 
0.7334080264991193

$$$$
ligand
     RDKit          3D

 47 50  0  0  0  0  0  0  0  0999 V2000
   18.7970   18.8170    7.7190 C   0  0  0  0  0  0  0  0  0  0  0  0
   18.5280   17.3290    7.8810 C   0  0  0  0  0  0  0  0  0  0  0  0
   19.6160   16.4950    7.3000 C   0  0  0  0  0  0  0  0  0  0  0  0
   20.8030   16.0920    7.8780 C   0  0  0  0  0  0  0  0  0  0  0  0
   21.4090   15.3420    6.9090 N   0  0  0  0  0  0  0  0  0  0  0  0
   22.9450   14.6690    6.9910 S   0  0  0  0  0  6  0  0  0  0  0  0
   23.8510   15.6800    6.4780 O   0  0  0  0  0  0  0  0  0  0  0  0
   22.8230   13.3560    6.3830 O   0  0  0  0  0  0  0  0  0  0  0  0
   23.2780   14.4460    8.7200 C   0  0  0  0  0  0  0  0  0  0  0  0
   24.0100   15.4170    9.3840 C   0  0  0  0  0  0  0  0  0  0  0  0
   24.1940   15.1170   10.7220 C   0  0  0  0  0  0  0  0  0  0  0  0
   24.8730   15.8910   11.6130 O   0  0  0  0  0  0  0  0  0  0  0  0
   24.8290   15.2510   12.8250 C   0  0  0  0  0  0  0  0  0  0  0  0
   25.4790   15.8510   13.9710 C   0  0  0  0  0  0  0  0  0  0  0  0
   25.7800   15.2270   14.9840 O   0  0  0  0  0  0  0  0  0  0  0  0
   25.7470   17.1940   13.8310 N   0  0  0  0  0  0  0  0  0  0  0  0
   26.5360   17.9330   14.8010 C   0  0  2  0  0  0  0  0  0  0  0  0
   25.9890   17.7890   16.2170 C   0  0  0  0  0  0  0  0  0  0  0  0
   26.8380   18.6110   17.1750 C   0  0  0  0  0  0  0  0  0  0  0  0
   26.9100   20.0560   16.7430 C   0  0  0  0  0  0  0  0  0  0  0  0
   26.9800   20.9820   17.5460 O   0  0  0  0  0  0  0  0  0  0  0  0
   26.9240   20.2940   15.3920 N   0  0  0  0  0  0  0  0  0  0  0  0
   26.5320   19.4150   14.4130 C   0  0  0  0  0  0  0  0  0  0  0  0
   26.2160   19.8110   13.2920 O   0  0  0  0  0  0  0  0  0  0  0  0
   24.1230   14.0700   12.7000 C   0  0  0  0  0  0  0  0  0  0  0  0
   23.7090   13.9750   11.3470 C   0  0  0  0  0  0  0  0  0  0  0  0
   22.9830   13.0620   10.5780 C   0  0  0  0  0  0  0  0  0  0  0  0
   22.7730   13.3060    9.2600 N   0  0  0  0  0  0  0  0  0  0  0  0
   20.6310   15.3430    5.7950 C   0  0  0  0  0  0  0  0  0  0  0  0
   19.5210   16.0220    6.0050 N   0  0  0  0  0  0  0  0  0  0  0  0
   18.8815   19.2845    8.7111 H   0  0  0  0  0  0  0  0  0  0  0  0
   19.7359   18.9616    7.1643 H   0  0  0  0  0  0  0  0  0  0  0  0
   17.9682   19.2812    7.1643 H   0  0  0  0  0  0  0  0  0  0  0  0
   18.4397   17.0995    8.9532 H   0  0  0  0  0  0  0  0  0  0  0  0
   17.5977   17.0932    7.3435 H   0  0  0  0  0  0  0  0  0  0  0  0
   21.1758   16.3217    8.8871 H   0  0  0  0  0  0  0  0  0  0  0  0
   24.4011   16.3248    8.9014 H   0  0  0  0  0  0  0  0  0  0  0  0
   25.3750   17.6921   13.0098 H   0  0  0  0  0  0  0  0  0  0  0  0
   27.5564   17.5222   14.7925 H   0  0  0  0  0  0  0  0  0  0  0  0
   24.9499   18.1488   16.2470 H   0  0  0  0  0  0  0  0  0  0  0  0
   26.0196   16.7308   16.5159 H   0  0  0  0  0  0  0  0  0  0  0  0
   26.3952   18.5593   18.1806 H   0  0  0  0  0  0  0  0  0  0  0  0
   27.8576   18.1981   17.1768 H   0  0  0  0  0  0  0  0  0  0  0  0
   27.2597   21.2177   15.0836 H   0  0  0  0  0  0  0  0  0  0  0  0
   23.9204   13.3413   13.4988 H   0  0  0  0  0  0  0  0  0  0  0  0
   22.5826   12.1475   11.0400 H   0  0  0  0  0  0  0  0  0  0  0  0
   20.8915   14.8460    4.8489 H   0  0  0  0  0  0  0  0  0  0  0  0
  1  2  1  0
  2  3  1  0
  3  4  2  0
  4  5  1  0
  5  6  1  0
  6  7  2  0
  6  8  2  0
  6  9  1  0
  9 10  2  0
 10 11  1  0
 11 12  1  0
 12 13  1  0
 13 14  1  0
 14 15  2  0
 14 16  1  0
 16 17  1  0
 17 18  1  0
 18 19  1  0
 19 20  1  0
 20 21  2  0
 20 22  1  0
 22 23  1  0
 23 24  2  0
 13 25  2  0
 25 26  1  0
 26 27  1  0
 27 28  2  0
  5 29  1  0
 29 30  2  0
 30  3  1  0
 28  9  1  0
 26 11  2  0
 23 17  1  0
  1 31  1  0
  1 32  1  0
  1 33  1  0
  2 34  1  0
  2 35  1  0
  4 36  1  0
 10 37  1  0
 16 38  1  0
 17 39  1  1
 18 40  1  0
 18 41  1  0
 19 42  1  0
 19 43  1  0
 22 44  1  0
 25 45  1  0
 27 46  1  0
 29 47  1  0
M  END
>  <meeko>  (1177) 
{"is_sidechain": [true], "free_energy": -10.21, "intermolecular_energy": 0.0, "internal_energy": -10.21, "cluster_size": 18, "cluster_id": 1, "rank_in_cluster": 1}

>  <_RMSD_MCS_to_ref>  (1177) 
0.9488840228863004

$$$$
ligand
     RDKit          3D

 44 46  0  0  0  0  0  0  0  0999 V2000
   18.9090   19.1540    7.5370 C   0  0  0  0  0  0  0  0  0  0  0  0
   18.7730   17.6460    7.6780 C   0  0  0  0  0  0  0  0  0  0  0  0
   20.0790   16.9490    7.5310 C   0  0  0  0  0  0  0  0  0  0  0  0
   21.0890   16.7900    8.4610 C   0  0  0  0  0  0  0  0  0  0  0  0
   22.0370   16.0590    7.8030 N   0  0  0  0  0  0  0  0  0  0  0  0
   23.5880   15.7320    8.3590 S   0  0  0  0  0  6  0  0  0  0  0  0
   23.8600   14.3550    8.0040 O   0  0  0  0  0  0  0  0  0  0  0  0
   24.4150   16.8320    7.9010 O   0  0  0  0  0  0  0  0  0  0  0  0
   23.4350   15.8420   10.1220 C   0  0  0  0  0  0  0  0  0  0  0  0
   22.3420   15.2420   10.7570 C   0  0  0  0  0  0  0  0  0  0  0  0
   22.2180   15.3280   12.1450 C   0  0  0  0  0  0  0  0  0  0  0  0
   23.1880   15.9950   12.8960 C   0  0  0  0  0  0  0  0  0  0  0  0
   24.2930   16.5600   12.2520 C   0  0  0  0  0  0  0  0  0  0  0  0
   25.5240   17.4300   13.1970 S   0  0  0  0  0  6  0  0  0  0  0  0
   26.2200   16.4190   13.9730 O   0  0  0  0  0  0  0  0  0  0  0  0
   26.2640   18.2800   12.2840 O   0  0  0  0  0  0  0  0  0  0  0  0
   24.6270   18.4610   14.3280 C   0  0  1  0  0  0  0  0  0  0  0  0
   24.8260   18.0730   15.7910 C   0  0  0  0  0  0  0  0  0  0  0  0
   26.2000   18.4630   16.3130 C   0  0  0  0  0  0  0  0  0  0  0  0
   26.4920   19.9200   16.0540 C   0  0  0  0  0  0  0  0  0  0  0  0
   27.2470   20.5790   16.7620 O   0  0  0  0  0  0  0  0  0  0  0  0
   25.8930   20.4750   14.9510 N   0  0  0  0  0  0  0  0  0  0  0  0
   25.0020   19.8930   14.0830 C   0  0  0  0  0  0  0  0  0  0  0  0
   24.5380   20.5360   13.1440 O   0  0  0  0  0  0  0  0  0  0  0  0
   24.4210   16.5010   10.8610 C   0  0  0  0  0  0  0  0  0  0  0  0
   21.6260   15.8410    6.5270 C   0  0  0  0  0  0  0  0  0  0  0  0
   20.4310   16.3580    6.3330 N   0  0  0  0  0  0  0  0  0  0  0  0
   18.9504   19.6134    8.5356 H   0  0  0  0  0  0  0  0  0  0  0  0
   19.8320   19.3891    6.9867 H   0  0  0  0  0  0  0  0  0  0  0  0
   18.0430   19.5504    6.9867 H   0  0  0  0  0  0  0  0  0  0  0  0
   18.3598   17.4187    8.6718 H   0  0  0  0  0  0  0  0  0  0  0  0
   18.1077   17.2901    6.8776 H   0  0  0  0  0  0  0  0  0  0  0  0
   21.1219   17.1659    9.4942 H   0  0  0  0  0  0  0  0  0  0  0  0
   21.5849   14.7057   10.1661 H   0  0  0  0  0  0  0  0  0  0  0  0
   21.3541   14.8692   12.6482 H   0  0  0  0  0  0  0  0  0  0  0  0
   23.0834   16.0755   13.9881 H   0  0  0  0  0  0  0  0  0  0  0  0
   23.5533   18.3167   14.1372 H   0  0  0  0  0  0  0  0  0  0  0  0
   24.0609   18.5793   16.3979 H   0  0  0  0  0  0  0  0  0  0  0  0
   24.7385   16.9788   15.8624 H   0  0  0  0  0  0  0  0  0  0  0  0
   26.2375   18.2772   17.3966 H   0  0  0  0  0  0  0  0  0  0  0  0
   26.9548   17.8592   15.7880 H   0  0  0  0  0  0  0  0  0  0  0  0
   26.1438   21.4532   14.7482 H   0  0  0  0  0  0  0  0  0  0  0  0
   25.2821   16.9648   10.3576 H   0  0  0  0  0  0  0  0  0  0  0  0
   22.2099   15.3072    5.7627 H   0  0  0  0  0  0  0  0  0  0  0  0
  1  2  1  0
  2  3  1  0
  3  4  2  0
  4  5  1  0
  5  6  1  0
  6  7  2  0
  6  8  2  0
  6  9  1  0
  9 10  2  0
 10 11  1  0
 11 12  2  0
 12 13  1  0
 13 14  1  0
 14 15  2  0
 14 16  2  0
 14 17  1  0
 17 18  1  0
 18 19  1  0
 19 20  1  0
 20 21  2  0
 20 22  1  0
 22 23  1  0
 23 24  2  0
 13 25  2  0
  5 26  1  0
 26 27  2  0
 27  3  1  0
 25  9  1  0
 23 17  1  0
  1 28  1  0
  1 29  1  0
  1 30  1  0
  2 31  1  0
  2 32  1  0
  4 33  1  0
 10 34  1  0
 11 35  1  0
 12 36  1  0
 17 37  1  6
 18 38  1  0
 18 39  1  0
 19 40  1  0
 19 41  1  0
 22 42  1  0
 25 43  1  0
 26 44  1  0
M  END
>  <meeko>  (1178) 
{"is_sidechain": [true], "free_energy": -10.21, "intermolecular_energy": 0.0, "internal_energy": -10.21, "cluster_size": 20, "cluster_id": 1, "rank_in_cluster": 1}

>  <_RMSD_MCS_to_ref>  (1178) 
0.5751044470354937

$$$$
ligand
     RDKit          3D

 46 49  0  0  0  0  0  0  0  0999 V2000
   18.9090   19.1540    7.5370 C   0  0  0  0  0  0  0  0  0  0  0  0
   18.7730   17.6460    7.6780 C   0  0  0  0  0  0  0  0  0  0  0  0
   20.0950   16.9700    7.7820 C   0  0  0  0  0  0  0  0  0  0  0  0
   21.1430   16.9680    6.8820 C   0  0  0  0  0  0  0  0  0  0  0  0
   22.1020   16.2080    7.4890 N   0  0  0  0  0  0  0  0  0  0  0  0
   23.5240   15.6730    6.7730 S   0  0  0  0  0  6  0  0  0  0  0  0
   24.0320   16.7900    6.0020 O   0  0  0  0  0  0  0  0  0  0  0  0
   23.2010   14.3950    6.1680 O   0  0  0  0  0  0  0  0  0  0  0  0
   24.5990   15.3900    8.1320 C   0  0  0  0  0  0  0  0  0  0  0  0
   25.3670   14.2420    8.1600 C   0  0  0  0  0  0  0  0  0  0  0  0
   26.2220   13.9650    9.1680 N   0  0  0  0  0  0  0  0  0  0  0  0
   26.2890   14.8610   10.1870 C   0  0  0  0  0  0  0  0  0  0  0  0
   25.5350   16.0320   10.2590 C   0  0  0  0  0  0  0  0  0  0  0  0
   25.6690   16.9180   11.3970 C   0  0  0  0  0  0  0  0  0  0  0  0
   24.7180   17.2130   12.3480 C   0  0  0  0  0  0  0  0  0  0  0  0
   25.3470   18.0930   13.1830 N   0  0  0  0  0  0  0  0  0  0  0  0
   24.8120   18.7270   14.3710 C   0  0  1  0  0  0  0  0  0  0  0  0
   25.2580   18.0900   15.6890 C   0  0  0  0  0  0  0  0  0  0  0  0
   26.6660   18.5010   16.0970 C   0  0  0  0  0  0  0  0  0  0  0  0
   26.8470   19.9980   16.0630 C   0  0  0  0  0  0  0  0  0  0  0  0
   27.6390   20.5810   16.7960 O   0  0  0  0  0  0  0  0  0  0  0  0
   26.0960   20.6880   15.1460 N   0  0  0  0  0  0  0  0  0  0  0  0
   25.0890   20.2140   14.3410 C   0  0  0  0  0  0  0  0  0  0  0  0
   24.4470   20.9830   13.6250 O   0  0  0  0  0  0  0  0  0  0  0  0
   26.6060   18.3260   12.7810 N   0  0  0  0  0  0  0  0  0  0  0  0
   26.8190   17.6050   11.6900 N   0  0  0  0  0  0  0  0  0  0  0  0
   24.6680   16.2940    9.1950 C   0  0  0  0  0  0  0  0  0  0  0  0
   21.6240   15.7460    8.6720 C   0  0  0  0  0  0  0  0  0  0  0  0
   20.4070   16.2020    8.8860 N   0  0  0  0  0  0  0  0  0  0  0  0
   18.9504   19.6134    8.5356 H   0  0  0  0  0  0  0  0  0  0  0  0
   19.8320   19.3891    6.9867 H   0  0  0  0  0  0  0  0  0  0  0  0
   18.0430   19.5504    6.9867 H   0  0  0  0  0  0  0  0  0  0  0  0
   18.1902   17.4260    8.5846 H   0  0  0  0  0  0  0  0  0  0  0  0
   18.2694   17.2664    6.7767 H   0  0  0  0  0  0  0  0  0  0  0  0
   21.1936   17.4644    5.9017 H   0  0  0  0  0  0  0  0  0  0  0  0
   25.2787   13.5261    7.3295 H   0  0  0  0  0  0  0  0  0  0  0  0
   26.9854   14.6484   11.0115 H   0  0  0  0  0  0  0  0  0  0  0  0
   23.6896   16.8290   12.4191 H   0  0  0  0  0  0  0  0  0  0  0  0
   23.7250   18.5607   14.3432 H   0  0  0  0  0  0  0  0  0  0  0  0
   24.5591   18.3962   16.4814 H   0  0  0  0  0  0  0  0  0  0  0  0
   25.2602   16.9994   15.5453 H   0  0  0  0  0  0  0  0  0  0  0  0
   26.8590   18.1426   17.1189 H   0  0  0  0  0  0  0  0  0  0  0  0
   27.3721   18.0559   15.3806 H   0  0  0  0  0  0  0  0  0  0  0  0
   26.3151   21.6897   15.0485 H   0  0  0  0  0  0  0  0  0  0  0  0
   24.0468   17.2018    9.1943 H   0  0  0  0  0  0  0  0  0  0  0  0
   22.1753   15.0839    9.3559 H   0  0  0  0  0  0  0  0  0  0  0  0
  1  2  1  0
  2  3  1  0
  3  4  2  0
  4  5  1  0
  5  6  1  0
  6  7  2  0
  6  8  2  0
  6  9  1  0
  9 10  2  0
 10 11  1  0
 11 12  2  0
 12 13  1  0
 13 14  1  0
 14 15  2  0
 15 16  1  0
 16 17  1  0
 17 18  1  0
 18 19  1  0
 19 20  1  0
 20 21  2  0
 20 22  1  0
 22 23  1  0
 23 24  2  0
 16 25  1  0
 25 26  2  0
 13 27  2  0
  5 28  1  0
 28 29  2  0
 29  3  1  0
 27  9  1  0
 26 14  1  0
 23 17  1  0
  1 30  1  0
  1 31  1  0
  1 32  1  0
  2 33  1  0
  2 34  1  0
  4 35  1  0
 10 36  1  0
 12 37  1  0
 15 38  1  0
 17 39  1  6
 18 40  1  0
 18 41  1  0
 19 42  1  0
 19 43  1  0
 22 44  1  0
 27 45  1  0
 28 46  1  0
M  END
>  <meeko>  (1179) 
{"is_sidechain": [true], "free_energy": -10.21, "intermolecular_energy": 0.0, "internal_energy": -10.21, "cluster_size": 20, "cluster_id": 1, "rank_in_cluster": 1}

>  <_RMSD_MCS_to_ref>  (1179) 
0.6575680784358214

$$$$
ligand
     RDKit          3D

 48 51  0  0  0  0  0  0  0  0999 V2000
   18.9090   19.1540    7.5370 C   0  0  0  0  0  0  0  0  0  0  0  0
   18.7730   17.6460    7.6780 C   0  0  0  0  0  0  0  0  0  0  0  0
   19.8620   16.9160    6.9750 C   0  0  0  0  0  0  0  0  0  0  0  0
   21.0600   16.4470    7.4780 C   0  0  0  0  0  0  0  0  0  0  0  0
   21.6770   15.8800    6.4000 N   0  0  0  0  0  0  0  0  0  0  0  0
   23.1050   15.0110    6.4250 S   0  0  0  0  0  6  0  0  0  0  0  0
   22.7740   13.6480    6.0590 O   0  0  0  0  0  0  0  0  0  0  0  0
   24.0870   15.7930    5.6960 O   0  0  0  0  0  0  0  0  0  0  0  0
   23.7090   14.9390    8.0720 C   0  0  0  0  0  0  0  0  0  0  0  0
   24.2640   13.8950    8.6620 N   0  0  0  0  0  0  0  0  0  0  0  0
   24.5690   14.3140    9.9320 C   0  0  0  0  0  0  0  0  0  0  0  0
   25.1660   13.6120   10.9880 C   0  0  0  0  0  0  0  0  0  0  0  0
   25.3700   14.2710   12.2100 C   0  0  0  0  0  0  0  0  0  0  0  0
   24.9930   15.6130   12.3760 C   0  0  0  0  0  0  0  0  0  0  0  0
   25.1950   16.3330   13.6670 C   0  0  0  0  0  0  0  0  0  0  0  0
   25.1580   15.7210   14.7290 O   0  0  0  0  0  0  0  0  0  0  0  0
   25.3830   17.6960   13.5940 N   0  0  0  0  0  0  0  0  0  0  0  0
   25.4310   18.5100   14.8020 C   0  0  1  0  0  0  0  0  0  0  0  0
   26.3510   17.9160   15.8630 C   0  0  0  0  0  0  0  0  0  0  0  0
   26.3880   18.8350   17.0750 C   0  0  0  0  0  0  0  0  0  0  0  0
   26.8050   20.2350   16.6890 C   0  0  0  0  0  0  0  0  0  0  0  0
   27.4640   20.9540   17.4330 O   0  0  0  0  0  0  0  0  0  0  0  0
   26.3840   20.6860   15.4630 N   0  0  0  0  0  0  0  0  0  0  0  0
   25.9420   19.9050   14.4250 C   0  0  0  0  0  0  0  0  0  0  0  0
   25.9480   20.3200   13.2660 O   0  0  0  0  0  0  0  0  0  0  0  0
   24.3790   16.3220   11.3270 C   0  0  0  0  0  0  0  0  0  0  0  0
   24.1910   15.6390   10.1240 C   0  0  0  0  0  0  0  0  0  0  0  0
   23.6450   16.0130    8.9240 N   0  0  0  0  0  0  0  0  0  0  0  0
   20.8490   15.9500    5.3260 C   0  0  0  0  0  0  0  0  0  0  0  0
   19.7470   16.6030    5.6350 N   0  0  0  0  0  0  0  0  0  0  0  0
   18.9504   19.6134    8.5356 H   0  0  0  0  0  0  0  0  0  0  0  0
   19.8320   19.3891    6.9867 H   0  0  0  0  0  0  0  0  0  0  0  0
   18.0430   19.5504    6.9867 H   0  0  0  0  0  0  0  0  0  0  0  0
   18.8041   17.3857    8.7463 H   0  0  0  0  0  0  0  0  0  0  0  0
   17.8174   17.3487    7.2215 H   0  0  0  0  0  0  0  0  0  0  0  0
   21.4319   16.5148    8.5110 H   0  0  0  0  0  0  0  0  0  0  0  0
   25.4695   12.5623   10.8611 H   0  0  0  0  0  0  0  0  0  0  0  0
   25.8313   13.7290   13.0487 H   0  0  0  0  0  0  0  0  0  0  0  0
   25.4910   18.1456   12.6736 H   0  0  0  0  0  0  0  0  0  0  0  0
   24.4173   18.5525   15.2270 H   0  0  0  0  0  0  0  0  0  0  0  0
   25.9735   16.9276   16.1638 H   0  0  0  0  0  0  0  0  0  0  0  0
   27.3657   17.8115   15.4513 H   0  0  0  0  0  0  0  0  0  0  0  0
   25.3862   18.8714   17.5279 H   0  0  0  0  0  0  0  0  0  0  0  0
   27.1237   18.4379   17.7898 H   0  0  0  0  0  0  0  0  0  0  0  0
   26.4014   21.7041   15.3079 H   0  0  0  0  0  0  0  0  0  0  0  0
   24.0613   17.3680   11.4494 H   0  0  0  0  0  0  0  0  0  0  0  0
   23.2544   16.9394    8.7003 H   0  0  0  0  0  0  0  0  0  0  0  0
   21.0676   15.5216    4.3367 H   0  0  0  0  0  0  0  0  0  0  0  0
  1  2  1  0
  2  3  1  0
  3  4  2  0
  4  5  1  0
  5  6  1  0
  6  7  2  0
  6  8  2  0
  6  9  1  0
  9 10  2  0
 10 11  1  0
 11 12  2  0
 12 13  1  0
 13 14  2  0
 14 15  1  0
 15 16  2  0
 15 17  1  0
 17 18  1  0
 18 19  1  0
 19 20  1  0
 20 21  1  0
 21 22  2  0
 21 23  1  0
 23 24  1  0
 24 25  2  0
 14 26  1  0
 26 27  2  0
 27 28  1  0
  5 29  1  0
 29 30  2  0
 30  3  1  0
 28  9  1  0
 27 11  1  0
 24 18  1  0
  1 31  1  0
  1 32  1  0
  1 33  1  0
  2 34  1  0
  2 35  1  0
  4 36  1  0
 12 37  1  0
 13 38  1  0
 17 39  1  0
 18 40  1  1
 19 41  1  0
 19 42  1  0
 20 43  1  0
 20 44  1  0
 23 45  1  0
 26 46  1  0
 28 47  1  0
 29 48  1  0
M  END
>  <meeko>  (1180) 
{"is_sidechain": [true], "free_energy": -10.21, "intermolecular_energy": 0.0, "internal_energy": -10.21, "cluster_size": 8, "cluster_id": 1, "rank_in_cluster": 1}

>  <_RMSD_MCS_to_ref>  (1180) 
0.6893679875235158

$$$$
ligand
     RDKit          3D

 48 51  0  0  0  0  0  0  0  0999 V2000
   18.9090   19.1540    7.5370 C   0  0  0  0  0  0  0  0  0  0  0  0
   18.7730   17.6460    7.6780 C   0  0  0  0  0  0  0  0  0  0  0  0
   20.0530   16.9400    7.3990 C   0  0  0  0  0  0  0  0  0  0  0  0
   20.8030   16.1370    8.2360 C   0  0  0  0  0  0  0  0  0  0  0  0
   21.8640   15.7510    7.4670 N   0  0  0  0  0  0  0  0  0  0  0  0
   23.1840   14.8610    8.0010 S   0  0  0  0  0  6  0  0  0  0  0  0
   22.6730   13.5100    8.1540 O   0  0  0  0  0  0  0  0  0  0  0  0
   24.2870   15.1720    7.1130 O   0  0  0  0  0  0  0  0  0  0  0  0
   23.5650   15.4830    9.6030 C   0  0  0  0  0  0  0  0  0  0  0  0
   22.6650   15.2930   10.6580 C   0  0  0  0  0  0  0  0  0  0  0  0
   22.9670   15.7960   11.9360 C   0  0  0  0  0  0  0  0  0  0  0  0
   24.1670   16.4860   12.1780 C   0  0  0  0  0  0  0  0  0  0  0  0
   24.4280   16.9980   13.5520 C   0  0  0  0  0  0  0  0  0  0  0  0
   24.0060   16.3870   14.5280 O   0  0  0  0  0  0  0  0  0  0  0  0
   25.1410   18.1670   13.6660 N   0  0  0  0  0  0  0  0  0  0  0  0
   25.3350   18.8350   14.9420 C   0  0  1  0  0  0  0  0  0  0  0  0
   26.3680   18.1230   15.8110 C   0  0  0  0  0  0  0  0  0  0  0  0
   26.5430   18.8840   17.1170 C   0  0  0  0  0  0  0  0  0  0  0  0
   26.9150   20.3260   16.8650 C   0  0  0  0  0  0  0  0  0  0  0  0
   27.6600   20.9540   17.6110 O   0  0  0  0  0  0  0  0  0  0  0  0
   26.3540   20.9220   15.7640 N   0  0  0  0  0  0  0  0  0  0  0  0
   25.8050   20.2700   14.6870 C   0  0  0  0  0  0  0  0  0  0  0  0
   25.6960   20.8290   13.5970 O   0  0  0  0  0  0  0  0  0  0  0  0
   25.0370   16.6480   11.1080 C   0  0  0  0  0  0  0  0  0  0  0  0
   24.7430   16.1570    9.8510 C   0  0  0  0  0  0  0  0  0  0  0  0
   25.7300   16.4190    8.9550 O   0  0  0  0  0  0  0  0  0  0  0  0
   26.6760   17.1460    9.7620 C   0  0  0  0  0  0  0  0  0  0  0  0
   26.2460   17.2830   11.1300 O   0  0  0  0  0  0  0  0  0  0  0  0
   21.7500   16.3110    6.2360 C   0  0  0  0  0  0  0  0  0  0  0  0
   20.6570   17.0440    6.1610 N   0  0  0  0  0  0  0  0  0  0  0  0
   18.9504   19.6134    8.5356 H   0  0  0  0  0  0  0  0  0  0  0  0
   19.8320   19.3891    6.9867 H   0  0  0  0  0  0  0  0  0  0  0  0
   18.0430   19.5504    6.9867 H   0  0  0  0  0  0  0  0  0  0  0  0
   18.4560   17.4130    8.7052 H   0  0  0  0  0  0  0  0  0  0  0  0
   18.0297   17.3027    6.9434 H   0  0  0  0  0  0  0  0  0  0  0  0
   20.5938   15.8696    9.2823 H   0  0  0  0  0  0  0  0  0  0  0  0
   21.7230   14.7511   10.4877 H   0  0  0  0  0  0  0  0  0  0  0  0
   22.2527   15.6470   12.7591 H   0  0  0  0  0  0  0  0  0  0  0  0
   25.5519   18.5839   12.8185 H   0  0  0  0  0  0  0  0  0  0  0  0
   24.3748   18.8227   15.4785 H   0  0  0  0  0  0  0  0  0  0  0  0
   26.0243   17.1004   16.0257 H   0  0  0  0  0  0  0  0  0  0  0  0
   27.3297   18.0823   15.2786 H   0  0  0  0  0  0  0  0  0  0  0  0
   25.5990   18.8505   17.6807 H   0  0  0  0  0  0  0  0  0  0  0  0
   27.3544   18.4105   17.6893 H   0  0  0  0  0  0  0  0  0  0  0  0
   26.3436   21.9517   15.7432 H   0  0  0  0  0  0  0  0  0  0  0  0
   27.6370   16.6110    9.7465 H   0  0  0  0  0  0  0  0  0  0  0  0
   26.7681   18.1570    9.3385 H   0  0  0  0  0  0  0  0  0  0  0  0
   22.4693   16.1725    5.4154 H   0  0  0  0  0  0  0  0  0  0  0  0
  1  2  1  0
  2  3  1  0
  3  4  2  0
  4  5  1  0
  5  6  1  0
  6  7  2  0
  6  8  2  0
  6  9  1  0
  9 10  2  0
 10 11  1  0
 11 12  2  0
 12 13  1  0
 13 14  2  0
 13 15  1  0
 15 16  1  0
 16 17  1  0
 17 18  1  0
 18 19  1  0
 19 20  2  0
 19 21  1  0
 21 22  1  0
 22 23  2  0
 12 24  1  0
 24 25  2  0
 25 26  1  0
 26 27  1  0
 27 28  1  0
  5 29  1  0
 29 30  2  0
 30  3  1  0
 25  9  1  0
 22 16  1  0
 28 24  1  0
  1 31  1  0
  1 32  1  0
  1 33  1  0
  2 34  1  0
  2 35  1  0
  4 36  1  0
 10 37  1  0
 11 38  1  0
 15 39  1  0
 16 40  1  1
 17 41  1  0
 17 42  1  0
 18 43  1  0
 18 44  1  0
 21 45  1  0
 27 46  1  0
 27 47  1  0
 29 48  1  0
M  END
>  <meeko>  (1181) 
{"is_sidechain": [true], "free_energy": -10.21, "intermolecular_energy": 0.0, "internal_energy": -10.21, "cluster_size": 18, "cluster_id": 1, "rank_in_cluster": 1}

>  <_RMSD_MCS_to_ref>  (1181) 
0.7856395837504345

$$$$
ligand
     RDKit          3D

 51 54  0  0  0  0  0  0  0  0999 V2000
   18.9090   19.1540    7.5370 C   0  0  0  0  0  0  0  0  0  0  0  0
   18.7730   17.6460    7.6780 C   0  0  0  0  0  0  0  0  0  0  0  0
   19.9200   16.9190    7.0710 C   0  0  0  0  0  0  0  0  0  0  0  0
   21.1960   16.7380    7.5680 C   0  0  0  0  0  0  0  0  0  0  0  0
   21.8210   15.9800    6.6200 N   0  0  0  0  0  0  0  0  0  0  0  0
   23.4620   15.6230    6.5670 S   0  0  0  0  0  6  0  0  0  0  0  0
   24.1420   16.8990    6.4630 O   0  0  0  0  0  0  0  0  0  0  0  0
   23.6110   14.5760    5.5750 O   0  0  0  0  0  0  0  0  0  0  0  0
   23.7880   14.9320    8.1680 C   0  0  0  0  0  0  0  0  0  0  0  0
   23.9450   13.5480    8.3070 C   0  0  0  0  0  0  0  0  0  0  0  0
   24.1960   13.0060    9.5680 C   0  0  0  0  0  0  0  0  0  0  0  0
   24.2790   13.8510   10.6750 C   0  0  0  0  0  0  0  0  0  0  0  0
   24.5300   13.3160   11.9430 N   0  0  0  0  0  0  0  0  0  0  0  0
   24.6200   14.0720   13.0830 C   0  0  0  0  0  0  0  0  0  0  0  0
   24.8340   13.5400   14.1690 O   0  0  0  0  0  0  0  0  0  0  0  0
   24.4470   15.5490   12.9480 C   0  0  0  0  0  0  0  0  0  0  0  0
   24.5250   16.4980   14.1020 C   0  0  0  0  0  0  0  0  0  0  0  0
   23.8510   16.3390   15.1170 O   0  0  0  0  0  0  0  0  0  0  0  0
   25.3830   17.5540   13.9580 N   0  0  0  0  0  0  0  0  0  0  0  0
   25.5260   18.5840   14.9730 C   0  0  1  0  0  0  0  0  0  0  0  0
   26.0980   18.0180   16.2680 C   0  0  0  0  0  0  0  0  0  0  0  0
   26.2320   19.1310   17.2950 C   0  0  0  0  0  0  0  0  0  0  0  0
   27.0710   20.2700   16.7650 C   0  0  0  0  0  0  0  0  0  0  0  0
   27.7850   20.9550   17.4900 O   0  0  0  0  0  0  0  0  0  0  0  0
   26.9730   20.5300   15.4210 N   0  0  0  0  0  0  0  0  0  0  0  0
   26.4430   19.7010   14.4620 C   0  0  0  0  0  0  0  0  0  0  0  0
   26.6860   19.8860   13.2700 O   0  0  0  0  0  0  0  0  0  0  0  0
   24.2010   16.0780   11.7340 C   0  0  0  0  0  0  0  0  0  0  0  0
   24.1100   15.2350   10.5420 C   0  0  0  0  0  0  0  0  0  0  0  0
   23.8570   15.7790    9.2810 C   0  0  0  0  0  0  0  0  0  0  0  0
   20.9670   15.7670    5.5860 C   0  0  0  0  0  0  0  0  0  0  0  0
   19.7970   16.3190    5.8330 N   0  0  0  0  0  0  0  0  0  0  0  0
   18.9504   19.6134    8.5356 H   0  0  0  0  0  0  0  0  0  0  0  0
   19.8320   19.3891    6.9867 H   0  0  0  0  0  0  0  0  0  0  0  0
   18.0430   19.5504    6.9867 H   0  0  0  0  0  0  0  0  0  0  0  0
   18.7196   17.3936    8.7473 H   0  0  0  0  0  0  0  0  0  0  0  0
   17.8596   17.3384    7.1478 H   0  0  0  0  0  0  0  0  0  0  0  0
   21.6134   17.1179    8.5122 H   0  0  0  0  0  0  0  0  0  0  0  0
   23.8709   12.8916    7.4274 H   0  0  0  0  0  0  0  0  0  0  0  0
   24.3275   11.9205    9.6884 H   0  0  0  0  0  0  0  0  0  0  0  0
   24.6542   12.2968   12.0246 H   0  0  0  0  0  0  0  0  0  0  0  0
   25.9478   17.6213   13.0993 H   0  0  0  0  0  0  0  0  0  0  0  0
   24.5238   18.9864   15.1820 H   0  0  0  0  0  0  0  0  0  0  0  0
   25.4243   17.2402   16.6567 H   0  0  0  0  0  0  0  0  0  0  0  0
   27.0883   17.5818   16.0703 H   0  0  0  0  0  0  0  0  0  0  0  0
   25.2301   19.5102   17.5449 H   0  0  0  0  0  0  0  0  0  0  0  0
   26.7274   18.7214   18.1876 H   0  0  0  0  0  0  0  0  0  0  0  0
   27.3335   21.4393   15.0983 H   0  0  0  0  0  0  0  0  0  0  0  0
   24.0659   17.1653   11.6370 H   0  0  0  0  0  0  0  0  0  0  0  0
   23.7132   16.8632    9.1630 H   0  0  0  0  0  0  0  0  0  0  0  0
   21.2173   15.2112    4.6703 H   0  0  0  0  0  0  0  0  0  0  0  0
  1  2  1  0
  2  3  1  0
  3  4  2  0
  4  5  1  0
  5  6  1  0
  6  7  2  0
  6  8  2  0
  6  9  1  0
  9 10  2  0
 10 11  1  0
 11 12  2  0
 12 13  1  0
 13 14  1  0
 14 15  2  0
 14 16  1  0
 16 17  1  0
 17 18  2  0
 17 19  1  0
 19 20  1  0
 20 21  1  0
 21 22  1  0
 22 23  1  0
 23 24  2  0
 23 25  1  0
 25 26  1  0
 26 27  2  0
 16 28  2  0
 28 29  1  0
 29 30  2  0
  5 31  1  0
 31 32  2  0
 32  3  1  0
 30  9  1  0
 29 12  1  0
 26 20  1  0
  1 33  1  0
  1 34  1  0
  1 35  1  0
  2 36  1  0
  2 37  1  0
  4 38  1  0
 10 39  1  0
 11 40  1  0
 13 41  1  0
 19 42  1  0
 20 43  1  1
 21 44  1  0
 21 45  1  0
 22 46  1  0
 22 47  1  0
 25 48  1  0
 28 49  1  0
 30 50  1  0
 31 51  1  0
M  END
>  <meeko>  (1182) 
{"is_sidechain": [true], "free_energy": -10.21, "intermolecular_energy": 0.0, "internal_energy": -10.21, "cluster_size": 17, "cluster_id": 1, "rank_in_cluster": 1}

>  <_RMSD_MCS_to_ref>  (1182) 
1.0537033632753467

$$$$
ligand
     RDKit          3D

 53 57  0  0  0  0  0  0  0  0999 V2000
   18.8250   19.0170    7.5350 C   0  0  0  0  0  0  0  0  0  0  0  0
   18.5200   17.5420    7.7330 C   0  0  0  0  0  0  0  0  0  0  0  0
   19.7530   16.7350    7.9430 C   0  0  0  0  0  0  0  0  0  0  0  0
   20.6610   16.7960    8.9820 C   0  0  0  0  0  0  0  0  0  0  0  0
   21.6050   15.8660    8.6540 N   0  0  0  0  0  0  0  0  0  0  0  0
   22.8570   15.3410    9.6430 S   0  0  0  0  0  6  0  0  0  0  0  0
   23.9110   16.3360    9.5750 O   0  0  0  0  0  0  0  0  0  0  0  0
   23.1050   13.9820    9.1940 O   0  0  0  0  0  0  0  0  0  0  0  0
   22.2330   15.2800   11.3030 C   0  0  0  0  0  0  0  0  0  0  0  0
   21.1060   14.5000   11.6400 C   0  0  0  0  0  0  0  0  0  0  0  0
   20.4380   13.6200   10.6960 C   0  0  0  0  0  0  0  0  0  0  0  0
   20.7960   12.3040   10.3130 C   0  0  0  0  0  0  0  0  0  0  0  0
   19.8580   11.9320    9.3820 C   0  0  0  0  0  0  0  0  0  0  0  0
   19.0190   12.9980    9.2500 N   0  0  0  0  0  0  0  0  0  0  0  0
   19.3570   14.0380   10.0300 N   0  0  0  0  0  0  0  0  0  0  0  0
   20.6010   14.5220   12.9650 C   0  0  0  0  0  0  0  0  0  0  0  0
   21.1960   15.3040   13.9540 C   0  0  0  0  0  0  0  0  0  0  0  0
   22.2890   16.0620   13.5880 C   0  0  0  0  0  0  0  0  0  0  0  0
   22.8120   16.0760   12.2920 C   0  0  0  0  0  0  0  0  0  0  0  0
   23.9860   17.0070   12.2510 C   0  0  0  0  0  0  0  0  0  0  0  0
   24.0370   17.5330   13.6090 N   0  0  0  0  0  0  0  0  0  0  0  0
   25.1920   18.2470   14.1420 C   0  0  2  0  0  0  0  0  0  0  0  0
   25.5080   17.8600   15.5830 C   0  0  0  0  0  0  0  0  0  0  0  0
   26.7680   18.5850   16.0340 C   0  0  0  0  0  0  0  0  0  0  0  0
   26.6300   20.0800   15.8670 C   0  0  0  0  0  0  0  0  0  0  0  0
   27.1460   20.8780   16.6440 O   0  0  0  0  0  0  0  0  0  0  0  0
   25.9140   20.5140   14.7810 N   0  0  0  0  0  0  0  0  0  0  0  0
   25.0030   19.7730   14.0630 C   0  0  0  0  0  0  0  0  0  0  0  0
   24.1150   20.3290   13.4210 O   0  0  0  0  0  0  0  0  0  0  0  0
   23.0960   16.9470   14.4340 C   0  0  0  0  0  0  0  0  0  0  0  0
   22.9420   17.1020   15.6290 O   0  0  0  0  0  0  0  0  0  0  0  0
   21.2120   15.2160    7.5270 C   0  0  0  0  0  0  0  0  0  0  0  0
   20.1070   15.7460    7.0450 N   0  0  0  0  0  0  0  0  0  0  0  0
   18.9260   19.5054    8.5155 H   0  0  0  0  0  0  0  0  0  0  0  0
   19.7645   19.1250    6.9731 H   0  0  0  0  0  0  0  0  0  0  0  0
   18.0054   19.4887    6.9731 H   0  0  0  0  0  0  0  0  0  0  0  0
   17.8694   17.4300    8.6129 H   0  0  0  0  0  0  0  0  0  0  0  0
   18.0275   17.1741    6.8208 H   0  0  0  0  0  0  0  0  0  0  0  0
   20.6305   17.4448    9.8697 H   0  0  0  0  0  0  0  0  0  0  0  0
   21.6436   11.7080   10.6823 H   0  0  0  0  0  0  0  0  0  0  0  0
   19.7962   10.9705    8.8513 H   0  0  0  0  0  0  0  0  0  0  0  0
   18.2074   13.0054    8.6159 H   0  0  0  0  0  0  0  0  0  0  0  0
   19.7225   13.9100   13.2174 H   0  0  0  0  0  0  0  0  0  0  0  0
   20.8098   15.3161   14.9839 H   0  0  0  0  0  0  0  0  0  0  0  0
   24.9108   16.4659   12.0019 H   0  0  0  0  0  0  0  0  0  0  0  0
   23.8895   17.7918   11.4863 H   0  0  0  0  0  0  0  0  0  0  0  0
   26.0406   17.9496   13.5084 H   0  0  0  0  0  0  0  0  0  0  0  0
   24.6675   18.1452   16.2328 H   0  0  0  0  0  0  0  0  0  0  0  0
   25.6656   16.7732   15.6465 H   0  0  0  0  0  0  0  0  0  0  0  0
   26.9518   18.3583   17.0946 H   0  0  0  0  0  0  0  0  0  0  0  0
   27.6077   18.2420   15.4118 H   0  0  0  0  0  0  0  0  0  0  0  0
   26.0726   21.4844   14.4742 H   0  0  0  0  0  0  0  0  0  0  0  0
   21.7440   14.3639    7.0788 H   0  0  0  0  0  0  0  0  0  0  0  0
  1  2  1  0
  2  3  1  0
  3  4  2  0
  4  5  1  0
  5  6  1  0
  6  7  2  0
  6  8  2  0
  6  9  1  0
  9 10  1  0
 10 11  1  0
 11 12  1  0
 12 13  2  0
 13 14  1  0
 14 15  1  0
 10 16  2  0
 16 17  1  0
 17 18  2  0
 18 19  1  0
 19 20  1  0
 20 21  1  0
 21 22  1  0
 22 23  1  0
 23 24  1  0
 24 25  1  0
 25 26  2  0
 25 27  1  0
 27 28  1  0
 28 29  2  0
 21 30  1  0
 30 31  2  0
  5 32  1  0
 32 33  2  0
 33  3  1  0
 19  9  2  0
 28 22  1  0
 15 11  2  0
 30 18  1  0
  1 34  1  0
  1 35  1  0
  1 36  1  0
  2 37  1  0
  2 38  1  0
  4 39  1  0
 12 40  1  0
 13 41  1  0
 14 42  1  0
 16 43  1  0
 17 44  1  0
 20 45  1  0
 20 46  1  0
 22 47  1  6
 23 48  1  0
 23 49  1  0
 24 50  1  0
 24 51  1  0
 27 52  1  0
 32 53  1  0
M  END
>  <meeko>  (1183) 
{"is_sidechain": [true], "free_energy": -10.2, "intermolecular_energy": 0.0, "internal_energy": -10.2, "cluster_size": 17, "cluster_id": 1, "rank_in_cluster": 1}

>  <_RMSD_MCS_to_ref>  (1183) 
1.5428827455988567

$$$$
ligand
     RDKit          3D

 48 51  0  0  0  0  0  0  0  0999 V2000
   18.7970   18.8170    7.7190 C   0  0  0  0  0  0  0  0  0  0  0  0
   18.5280   17.3290    7.8810 C   0  0  0  0  0  0  0  0  0  0  0  0
   19.6140   16.4950    7.2970 C   0  0  0  0  0  0  0  0  0  0  0  0
   20.9290   16.3720    7.7020 C   0  0  0  0  0  0  0  0  0  0  0  0
   21.4750   15.4990    6.8060 N   0  0  0  0  0  0  0  0  0  0  0  0
   22.9980   14.7970    6.9190 S   0  0  0  0  0  6  0  0  0  0  0  0
   23.9360   15.8130    6.4840 O   0  0  0  0  0  0  0  0  0  0  0  0
   22.8890   13.5070    6.2660 O   0  0  0  0  0  0  0  0  0  0  0  0
   23.2060   14.5400    8.6620 C   0  0  0  0  0  0  0  0  0  0  0  0
   22.5430   13.4710    9.2800 C   0  0  0  0  0  0  0  0  0  0  0  0
   22.6870   13.2460   10.6560 C   0  0  0  0  0  0  0  0  0  0  0  0
   23.4990   14.1190   11.4030 C   0  0  0  0  0  0  0  0  0  0  0  0
   23.8860   14.2280   12.7630 C   0  0  0  0  0  0  0  0  0  0  0  0
   24.7140   15.3310   12.8610 C   0  0  0  0  0  0  0  0  0  0  0  0
   25.3940   15.9080   14.0000 C   0  0  0  0  0  0  0  0  0  0  0  0
   25.7080   15.2700   15.0010 O   0  0  0  0  0  0  0  0  0  0  0  0
   25.6790   17.2480   13.8690 N   0  0  0  0  0  0  0  0  0  0  0  0
   26.4970   17.9660   14.8290 C   0  0  2  0  0  0  0  0  0  0  0  0
   25.9840   17.8060   16.2560 C   0  0  0  0  0  0  0  0  0  0  0  0
   26.8650   18.6040   17.2050 C   0  0  0  0  0  0  0  0  0  0  0  0
   26.9410   20.0560   16.7940 C   0  0  0  0  0  0  0  0  0  0  0  0
   27.0420   20.9670   17.6090 O   0  0  0  0  0  0  0  0  0  0  0  0
   26.9230   20.3140   15.4460 N   0  0  0  0  0  0  0  0  0  0  0  0
   26.5000   19.4530   14.4630 C   0  0  0  0  0  0  0  0  0  0  0  0
   26.1610   19.8720   13.3570 O   0  0  0  0  0  0  0  0  0  0  0  0
   24.8590   15.9080   11.6250 O   0  0  0  0  0  0  0  0  0  0  0  0
   24.1250   15.1730   10.7480 C   0  0  0  0  0  0  0  0  0  0  0  0
   24.0090   15.4330    9.3850 C   0  0  0  0  0  0  0  0  0  0  0  0
   20.5130   15.0880    5.9410 C   0  0  0  0  0  0  0  0  0  0  0  0
   19.3690   15.6850    6.2060 N   0  0  0  0  0  0  0  0  0  0  0  0
   18.8815   19.2845    8.7111 H   0  0  0  0  0  0  0  0  0  0  0  0
   19.7359   18.9616    7.1643 H   0  0  0  0  0  0  0  0  0  0  0  0
   17.9682   19.2812    7.1643 H   0  0  0  0  0  0  0  0  0  0  0  0
   18.4423   17.0991    8.9533 H   0  0  0  0  0  0  0  0  0  0  0  0
   17.5963   17.0938    7.3457 H   0  0  0  0  0  0  0  0  0  0  0  0
   21.4231   16.8649    8.5522 H   0  0  0  0  0  0  0  0  0  0  0  0
   21.9053   12.8041    8.6812 H   0  0  0  0  0  0  0  0  0  0  0  0
   22.1748   12.4028   11.1426 H   0  0  0  0  0  0  0  0  0  0  0  0
   23.5845   13.5613   13.5844 H   0  0  0  0  0  0  0  0  0  0  0  0
   25.2980   17.7598   13.0604 H   0  0  0  0  0  0  0  0  0  0  0  0
   27.5129   17.5460   14.7890 H   0  0  0  0  0  0  0  0  0  0  0  0
   24.9499   18.1761   16.3174 H   0  0  0  0  0  0  0  0  0  0  0  0
   26.0109   16.7431   16.5378 H   0  0  0  0  0  0  0  0  0  0  0  0
   26.4471   18.5405   18.2205 H   0  0  0  0  0  0  0  0  0  0  0  0
   27.8800   18.1811   17.1745 H   0  0  0  0  0  0  0  0  0  0  0  0
   27.2580   21.2398   15.1433 H   0  0  0  0  0  0  0  0  0  0  0  0
   24.5150   16.2844    8.9064 H   0  0  0  0  0  0  0  0  0  0  0  0
   20.6671   14.3586    5.1321 H   0  0  0  0  0  0  0  0  0  0  0  0
  1  2  1  0
  2  3  1  0
  3  4  2  0
  4  5  1  0
  5  6  1  0
  6  7  2  0
  6  8  2  0
  6  9  1  0
  9 10  2  0
 10 11  1  0
 11 12  2  0
 12 13  1  0
 13 14  2  0
 14 15  1  0
 15 16  2  0
 15 17  1  0
 17 18  1  0
 18 19  1  0
 19 20  1  0
 20 21  1  0
 21 22  2  0
 21 23  1  0
 23 24  1  0
 24 25  2  0
 14 26  1  0
 26 27  1  0
 27 28  2  0
  5 29  1  0
 29 30  2  0
 30  3  1  0
 28  9  1  0
 27 12  1  0
 24 18  1  0
  1 31  1  0
  1 32  1  0
  1 33  1  0
  2 34  1  0
  2 35  1  0
  4 36  1  0
 10 37  1  0
 11 38  1  0
 13 39  1  0
 17 40  1  0
 18 41  1  1
 19 42  1  0
 19 43  1  0
 20 44  1  0
 20 45  1  0
 23 46  1  0
 28 47  1  0
 29 48  1  0
M  END
>  <meeko>  (1184) 
{"is_sidechain": [true], "free_energy": -10.2, "intermolecular_energy": 0.0, "internal_energy": -10.2, "cluster_size": 19, "cluster_id": 1, "rank_in_cluster": 1}

>  <_RMSD_MCS_to_ref>  (1184) 
0.9161909674783351

$$$$
ligand
     RDKit          3D

 60 64  0  0  0  0  0  0  0  0999 V2000
   18.9090   19.1540    7.5370 C   0  0  0  0  0  0  0  0  0  0  0  0
   18.7730   17.6460    7.6780 C   0  0  0  0  0  0  0  0  0  0  0  0
   19.9830   16.9260    7.1960 C   0  0  0  0  0  0  0  0  0  0  0  0
   21.1750   16.6920    7.8530 C   0  0  0  0  0  0  0  0  0  0  0  0
   21.9150   15.9720    6.9610 N   0  0  0  0  0  0  0  0  0  0  0  0
   23.5430   15.5830    7.1140 S   0  0  0  0  0  6  0  0  0  0  0  0
   24.2670   16.7510    6.6490 O   0  0  0  0  0  0  0  0  0  0  0  0
   23.7010   14.2770    6.5070 O   0  0  0  0  0  0  0  0  0  0  0  0
   23.7700   15.4290    8.8610 C   0  0  0  0  0  0  0  0  0  0  0  0
   24.4350   16.4240    9.5690 C   0  0  0  0  0  0  0  0  0  0  0  0
   24.5980   16.2750   10.9450 C   0  0  0  0  0  0  0  0  0  0  0  0
   24.1050   15.1280   11.6220 C   0  0  0  0  0  0  0  0  0  0  0  0
   24.2150   14.8990   13.0150 C   0  0  0  0  0  0  0  0  0  0  0  0
   24.8560   15.9310   13.8580 C   0  0  0  0  0  0  0  0  0  0  0  0
   25.9550   15.7360   14.3600 O   0  0  0  0  0  0  0  0  0  0  0  0
   24.1290   17.0870   14.0070 N   0  0  0  0  0  0  0  0  0  0  0  0
   24.5520   18.1410   14.9140 C   0  0  1  0  0  0  0  0  0  0  0  0
   25.4930   17.6220   15.9960 C   0  0  0  0  0  0  0  0  0  0  0  0
   25.9250   18.7760   16.8860 C   0  0  0  0  0  0  0  0  0  0  0  0
   26.5530   19.8880   16.0780 C   0  0  0  0  0  0  0  0  0  0  0  0
   27.4650   20.5840   16.5120 O   0  0  0  0  0  0  0  0  0  0  0  0
   26.0300   20.1100   14.8290 N   0  0  0  0  0  0  0  0  0  0  0  0
   25.2670   19.2270   14.1060 C   0  0  0  0  0  0  0  0  0  0  0  0
   25.1660   19.3250   12.8830 O   0  0  0  0  0  0  0  0  0  0  0  0
   23.7290   13.7240   13.6150 C   0  0  0  0  0  0  0  0  0  0  0  0
   23.0880   12.8180   12.7760 C   0  0  0  0  0  0  0  0  0  0  0  0
   22.9530   13.0190   11.4420 N   0  0  0  0  0  0  0  0  0  0  0  0
   23.4500   14.1290   10.8830 C   0  0  0  0  0  0  0  0  0  0  0  0
   23.2960   14.2890    9.5150 C   0  0  0  0  0  0  0  0  0  0  0  0
   22.5500   11.5050   13.2870 C   0  0  0  0  0  0  0  0  0  0  0  0
   22.3630   11.4750   14.7990 C   0  0  0  0  0  0  0  0  0  0  0  0
   23.6130   12.0080   15.4870 C   0  0  0  0  0  0  0  0  0  0  0  0
   23.8550   13.4650   15.0950 C   0  0  0  0  0  0  0  0  0  0  0  0
   21.2080   15.8310    5.8090 C   0  0  0  0  0  0  0  0  0  0  0  0
   20.0240   16.3930    5.9220 N   0  0  0  0  0  0  0  0  0  0  0  0
   18.9504   19.6134    8.5356 H   0  0  0  0  0  0  0  0  0  0  0  0
   19.8320   19.3891    6.9867 H   0  0  0  0  0  0  0  0  0  0  0  0
   18.0430   19.5504    6.9867 H   0  0  0  0  0  0  0  0  0  0  0  0
   18.6145   17.4021    8.7388 H   0  0  0  0  0  0  0  0  0  0  0  0
   17.9203   17.3243    7.0621 H   0  0  0  0  0  0  0  0  0  0  0  0
   21.4624   17.0130    8.8651 H   0  0  0  0  0  0  0  0  0  0  0  0
   24.8255   17.3130    9.0521 H   0  0  0  0  0  0  0  0  0  0  0  0
   25.1171   17.0588   11.5162 H   0  0  0  0  0  0  0  0  0  0  0  0
   23.2632   17.2098   13.4628 H   0  0  0  0  0  0  0  0  0  0  0  0
   23.6576   18.5426   15.4128 H   0  0  0  0  0  0  0  0  0  0  0  0
   24.9732   16.8656   16.6024 H   0  0  0  0  0  0  0  0  0  0  0  0
   26.3785   17.1691   15.5262 H   0  0  0  0  0  0  0  0  0  0  0  0
   25.0443   19.1703   17.4141 H   0  0  0  0  0  0  0  0  0  0  0  0
   26.6725   18.4018   17.6009 H   0  0  0  0  0  0  0  0  0  0  0  0
   26.2280   21.0225   14.3942 H   0  0  0  0  0  0  0  0  0  0  0  0
   22.7911   13.5037    8.9332 H   0  0  0  0  0  0  0  0  0  0  0  0
   21.5758   11.3186   12.8114 H   0  0  0  0  0  0  0  0  0  0  0  0
   23.2902   10.7310   13.0359 H   0  0  0  0  0  0  0  0  0  0  0  0
   21.5011   12.1014   15.0723 H   0  0  0  0  0  0  0  0  0  0  0  0
   22.1865   10.4382   15.1214 H   0  0  0  0  0  0  0  0  0  0  0  0
   23.4827   11.9426   16.5773 H   0  0  0  0  0  0  0  0  0  0  0  0
   24.4781   11.4052   15.1735 H   0  0  0  0  0  0  0  0  0  0  0  0
   23.1206   14.0926   15.6210 H   0  0  0  0  0  0  0  0  0  0  0  0
   24.8909   13.7055   15.3761 H   0  0  0  0  0  0  0  0  0  0  0  0
   21.5747   15.3183    4.9075 H   0  0  0  0  0  0  0  0  0  0  0  0
  1  2  1  0
  2  3  1  0
  3  4  2  0
  4  5  1  0
  5  6  1  0
  6  7  2  0
  6  8  2  0
  6  9  1  0
  9 10  2  0
 10 11  1  0
 11 12  2  0
 12 13  1  0
 13 14  1  0
 14 15  2  0
 14 16  1  0
 16 17  1  0
 17 18  1  0
 18 19  1  0
 19 20  1  0
 20 21  2  0
 20 22  1  0
 22 23  1  0
 23 24  2  0
 13 25  2  0
 25 26  1  0
 26 27  2  0
 27 28  1  0
 28 29  2  0
 26 30  1  0
 30 31  1  0
 31 32  1  0
 32 33  1  0
  5 34  1  0
 34 35  2  0
 35  3  1  0
 29  9  1  0
 28 12  1  0
 23 17  1  0
 33 25  1  0
  1 36  1  0
  1 37  1  0
  1 38  1  0
  2 39  1  0
  2 40  1  0
  4 41  1  0
 10 42  1  0
 11 43  1  0
 16 44  1  0
 17 45  1  1
 18 46  1  0
 18 47  1  0
 19 48  1  0
 19 49  1  0
 22 50  1  0
 29 51  1  0
 30 52  1  0
 30 53  1  0
 31 54  1  0
 31 55  1  0
 32 56  1  0
 32 57  1  0
 33 58  1  0
 33 59  1  0
 34 60  1  0
M  END
>  <meeko>  (1185) 
{"is_sidechain": [true], "free_energy": -10.2, "intermolecular_energy": 0.0, "internal_energy": -10.2, "cluster_size": 11, "cluster_id": 1, "rank_in_cluster": 1}

>  <_RMSD_MCS_to_ref>  (1185) 
0.6554369195853674

$$$$
ligand
     RDKit          3D

 45 48  0  0  0  0  0  0  0  0999 V2000
   18.9090   19.1540    7.5370 C   0  0  0  0  0  0  0  0  0  0  0  0
   18.7730   17.6460    7.6780 C   0  0  0  0  0  0  0  0  0  0  0  0
   20.0700   16.9440    7.4760 C   0  0  0  0  0  0  0  0  0  0  0  0
   20.9870   16.5230    8.4190 C   0  0  0  0  0  0  0  0  0  0  0  0
   21.9890   15.9580    7.6830 N   0  0  0  0  0  0  0  0  0  0  0  0
   23.2870   15.0980    8.3030 S   0  0  0  0  0  6  0  0  0  0  0  0
   24.4730   15.8040    7.8590 O   0  0  0  0  0  0  0  0  0  0  0  0
   23.0480   13.7020    7.9980 O   0  0  0  0  0  0  0  0  0  0  0  0
   23.3060   15.2300   10.0700 C   0  0  0  0  0  0  0  0  0  0  0  0
   22.6560   14.5120   11.0510 C   0  0  0  0  0  0  0  0  0  0  0  0
   22.9660   14.9600   12.3770 C   0  0  0  0  0  0  0  0  0  0  0  0
   22.5170   14.4890   13.6230 C   0  0  0  0  0  0  0  0  0  0  0  0
   22.9960   15.1250   14.7510 C   0  0  0  0  0  0  0  0  0  0  0  0
   23.8580   16.1580   14.7310 N   0  0  0  0  0  0  0  0  0  0  0  0
   24.3170   16.6460   13.5510 C   0  0  0  0  0  0  0  0  0  0  0  0
   25.2230   17.7050   13.5370 N   0  0  0  0  0  0  0  0  0  0  0  0
   25.2730   18.5260   14.7520 C   0  0  1  0  0  0  0  0  0  0  0  0
   26.2600   17.9240   15.7490 C   0  0  0  0  0  0  0  0  0  0  0  0
   26.3610   18.8180   16.9730 C   0  0  0  0  0  0  0  0  0  0  0  0
   26.7700   20.2210   16.5930 C   0  0  0  0  0  0  0  0  0  0  0  0
   27.4080   20.9470   17.3490 O   0  0  0  0  0  0  0  0  0  0  0  0
   26.3480   20.6720   15.3690 N   0  0  0  0  0  0  0  0  0  0  0  0
   25.7450   19.9400   14.3750 C   0  0  0  0  0  0  0  0  0  0  0  0
   25.5780   20.4190   13.2520 O   0  0  0  0  0  0  0  0  0  0  0  0
   23.8610   16.0340   12.3600 C   0  0  0  0  0  0  0  0  0  0  0  0
   24.2810   16.4550   10.7350 S   0  0  0  0  0  0  0  0  0  0  0  0
   21.6540   16.0000    6.3680 C   0  0  0  0  0  0  0  0  0  0  0  0
   20.4960   16.6080    6.2060 N   0  0  0  0  0  0  0  0  0  0  0  0
   18.9504   19.6134    8.5356 H   0  0  0  0  0  0  0  0  0  0  0  0
   19.8320   19.3891    6.9867 H   0  0  0  0  0  0  0  0  0  0  0  0
   18.0430   19.5504    6.9867 H   0  0  0  0  0  0  0  0  0  0  0  0
   18.3992   17.4166    8.6868 H   0  0  0  0  0  0  0  0  0  0  0  0
   18.0748   17.2956    6.9036 H   0  0  0  0  0  0  0  0  0  0  0  0
   20.9245   16.6205    9.5129 H   0  0  0  0  0  0  0  0  0  0  0  0
   21.9691   13.6797   10.8379 H   0  0  0  0  0  0  0  0  0  0  0  0
   21.8123   13.6475   13.6964 H   0  0  0  0  0  0  0  0  0  0  0  0
   22.6501   14.7634   15.7306 H   0  0  0  0  0  0  0  0  0  0  0  0
   25.8220   17.8997   12.7220 H   0  0  0  0  0  0  0  0  0  0  0  0
   24.2731   18.5633   15.2090 H   0  0  0  0  0  0  0  0  0  0  0  0
   25.9102   16.9263   16.0528 H   0  0  0  0  0  0  0  0  0  0  0  0
   27.2498   17.8404   15.2764 H   0  0  0  0  0  0  0  0  0  0  0  0
   25.3821   18.8529   17.4735 H   0  0  0  0  0  0  0  0  0  0  0  0
   27.1261   18.4025   17.6453 H   0  0  0  0  0  0  0  0  0  0  0  0
   26.5001   21.6716   15.1727 H   0  0  0  0  0  0  0  0  0  0  0  0
   22.2637   15.5847    5.5520 H   0  0  0  0  0  0  0  0  0  0  0  0
  1  2  1  0
  2  3  1  0
  3  4  2  0
  4  5  1  0
  5  6  1  0
  6  7  2  0
  6  8  2  0
  6  9  1  0
  9 10  2  0
 10 11  1  0
 11 12  2  0
 12 13  1  0
 13 14  2  0
 14 15  1  0
 15 16  1  0
 16 17  1  0
 17 18  1  0
 18 19  1  0
 19 20  1  0
 20 21  2  0
 20 22  1  0
 22 23  1  0
 23 24  2  0
 15 25  2  0
 25 26  1  0
  5 27  1  0
 27 28  2  0
 28  3  1  0
 26  9  1  0
 25 11  1  0
 23 17  1  0
  1 29  1  0
  1 30  1  0
  1 31  1  0
  2 32  1  0
  2 33  1  0
  4 34  1  0
 10 35  1  0
 12 36  1  0
 13 37  1  0
 16 38  1  0
 17 39  1  1
 18 40  1  0
 18 41  1  0
 19 42  1  0
 19 43  1  0
 22 44  1  0
 27 45  1  0
M  END
>  <meeko>  (1186) 
{"is_sidechain": [true], "free_energy": -10.2, "intermolecular_energy": 0.0, "internal_energy": -10.2, "cluster_size": 20, "cluster_id": 1, "rank_in_cluster": 1}

>  <_RMSD_MCS_to_ref>  (1186) 
0.5314865943746838

$$$$
ligand
     RDKit          3D

 47 50  0  0  0  0  0  0  0  0999 V2000
   18.9090   19.1540    7.5370 C   0  0  0  0  0  0  0  0  0  0  0  0
   18.7730   17.6460    7.6780 C   0  0  0  0  0  0  0  0  0  0  0  0
   20.0620   16.9420    7.4460 C   0  0  0  0  0  0  0  0  0  0  0  0
   21.1480   16.8160    8.2900 C   0  0  0  0  0  0  0  0  0  0  0  0
   22.0520   16.0900    7.5700 N   0  0  0  0  0  0  0  0  0  0  0  0
   23.5270   15.5100    8.1260 S   0  0  0  0  0  6  0  0  0  0  0  0
   24.2300   16.6800    8.6210 O   0  0  0  0  0  0  0  0  0  0  0  0
   24.0600   14.6860    7.0570 O   0  0  0  0  0  0  0  0  0  0  0  0
   23.1380   14.4760    9.4920 C   0  0  0  0  0  0  0  0  0  0  0  0
   22.5260   13.3000    9.1950 N   0  0  0  0  0  0  0  0  0  0  0  0
   22.2200   12.4890   10.2240 C   0  0  0  0  0  0  0  0  0  0  0  0
   22.4430   12.7050   11.5300 N   0  0  0  0  0  0  0  0  0  0  0  0
   23.0460   13.8800   11.7550 C   0  0  0  0  0  0  0  0  0  0  0  0
   23.3970   14.3580   12.9850 N   0  0  0  0  0  0  0  0  0  0  0  0
   23.9930   15.5990   12.8700 C   0  0  0  0  0  0  0  0  0  0  0  0
   24.4550   16.3140   14.0380 C   0  0  0  0  0  0  0  0  0  0  0  0
   24.5970   15.7640   15.1250 O   0  0  0  0  0  0  0  0  0  0  0  0
   24.7110   17.6480   13.8530 N   0  0  0  0  0  0  0  0  0  0  0  0
   25.0450   18.5230   14.9670 C   0  0  1  0  0  0  0  0  0  0  0  0
   26.1130   17.9210   15.8740 C   0  0  0  0  0  0  0  0  0  0  0  0
   26.4390   18.9020   16.9900 C   0  0  0  0  0  0  0  0  0  0  0  0
   26.8600   20.2430   16.4370 C   0  0  0  0  0  0  0  0  0  0  0  0
   27.6920   20.9530   16.9940 O   0  0  0  0  0  0  0  0  0  0  0  0
   26.2400   20.6550   15.2860 N   0  0  0  0  0  0  0  0  0  0  0  0
   25.5610   19.8510   14.4040 C   0  0  0  0  0  0  0  0  0  0  0  0
   25.3750   20.1960   13.2380 O   0  0  0  0  0  0  0  0  0  0  0  0
   24.0190   15.8980   11.5140 C   0  0  0  0  0  0  0  0  0  0  0  0
   23.4220   14.8170   10.8090 C   0  0  0  0  0  0  0  0  0  0  0  0
   21.5050   15.7640    6.3690 C   0  0  0  0  0  0  0  0  0  0  0  0
   20.2990   16.2820    6.2550 N   0  0  0  0  0  0  0  0  0  0  0  0
   18.9504   19.6134    8.5356 H   0  0  0  0  0  0  0  0  0  0  0  0
   19.8320   19.3891    6.9867 H   0  0  0  0  0  0  0  0  0  0  0  0
   18.0430   19.5504    6.9867 H   0  0  0  0  0  0  0  0  0  0  0  0
   18.4213   17.4155    8.6945 H   0  0  0  0  0  0  0  0  0  0  0  0
   18.0570   17.2989    6.9185 H   0  0  0  0  0  0  0  0  0  0  0  0
   21.2591   17.2110    9.3106 H   0  0  0  0  0  0  0  0  0  0  0  0
   21.7303   11.5387    9.9651 H   0  0  0  0  0  0  0  0  0  0  0  0
   23.2394   13.8626   13.8742 H   0  0  0  0  0  0  0  0  0  0  0  0
   24.6658   18.0408   12.9019 H   0  0  0  0  0  0  0  0  0  0  0  0
   24.1376   18.6680   15.5717 H   0  0  0  0  0  0  0  0  0  0  0  0
   25.7391   16.9820   16.3082 H   0  0  0  0  0  0  0  0  0  0  0  0
   27.0208   17.7165   15.2874 H   0  0  0  0  0  0  0  0  0  0  0  0
   25.5471   19.0380   17.6193 H   0  0  0  0  0  0  0  0  0  0  0  0
   27.2726   18.4925   17.5794 H   0  0  0  0  0  0  0  0  0  0  0  0
   26.2878   21.6593   15.0623 H   0  0  0  0  0  0  0  0  0  0  0  0
   24.4304   16.8131   11.0632 H   0  0  0  0  0  0  0  0  0  0  0  0
   22.0001   15.1531    5.5998 H   0  0  0  0  0  0  0  0  0  0  0  0
  1  2  1  0
  2  3  1  0
  3  4  2  0
  4  5  1  0
  5  6  1  0
  6  7  2  0
  6  8  2  0
  6  9  1  0
  9 10  2  0
 10 11  1  0
 11 12  2  0
 12 13  1  0
 13 14  1  0
 14 15  1  0
 15 16  1  0
 16 17  2  0
 16 18  1  0
 18 19  1  0
 19 20  1  0
 20 21  1  0
 21 22  1  0
 22 23  2  0
 22 24  1  0
 24 25  1  0
 25 26  2  0
 15 27  2  0
 27 28  1  0
  5 29  1  0
 29 30  2  0
 30  3  1  0
 28  9  1  0
 28 13  2  0
 25 19  1  0
  1 31  1  0
  1 32  1  0
  1 33  1  0
  2 34  1  0
  2 35  1  0
  4 36  1  0
 11 37  1  0
 14 38  1  0
 18 39  1  0
 19 40  1  1
 20 41  1  0
 20 42  1  0
 21 43  1  0
 21 44  1  0
 24 45  1  0
 27 46  1  0
 29 47  1  0
M  END
>  <meeko>  (1187) 
{"is_sidechain": [true], "free_energy": -10.2, "intermolecular_energy": 0.0, "internal_energy": -10.2, "cluster_size": 20, "cluster_id": 1, "rank_in_cluster": 1}

>  <_RMSD_MCS_to_ref>  (1187) 
0.43769751097203063

$$$$
ligand
     RDKit          3D

 50 53  0  0  0  0  0  0  0  0999 V2000
   18.9090   19.1540    7.5370 C   0  0  0  0  0  0  0  0  0  0  0  0
   18.7730   17.6460    7.6780 C   0  0  0  0  0  0  0  0  0  0  0  0
   20.0940   16.9610    7.6720 C   0  0  0  0  0  0  0  0  0  0  0  0
   21.0090   16.8310    8.6980 C   0  0  0  0  0  0  0  0  0  0  0  0
   22.0350   16.1210    8.1450 N   0  0  0  0  0  0  0  0  0  0  0  0
   23.3390   15.4560    8.9720 S   0  0  0  0  0  6  0  0  0  0  0  0
   23.5740   14.1730    8.3390 O   0  0  0  0  0  0  0  0  0  0  0  0
   24.3540   16.4890    9.0230 O   0  0  0  0  0  0  0  0  0  0  0  0
   22.7170   15.2100   10.6110 C   0  0  0  0  0  0  0  0  0  0  0  0
   23.4020   15.8070   11.6820 C   0  0  0  0  0  0  0  0  0  0  0  0
   22.9230   15.6780   13.0010 C   0  0  0  0  0  0  0  0  0  0  0  0
   23.6760   16.3660   14.0860 C   0  0  0  0  0  0  0  0  0  0  0  0
   23.9810   15.7530   15.1030 O   0  0  0  0  0  0  0  0  0  0  0  0
   23.9690   17.6970   13.8940 N   0  0  0  0  0  0  0  0  0  0  0  0
   24.5680   18.4950   14.9570 C   0  0  1  0  0  0  0  0  0  0  0  0
   25.7230   17.7710   15.6410 C   0  0  0  0  0  0  0  0  0  0  0  0
   26.3260   18.6730   16.7070 C   0  0  0  0  0  0  0  0  0  0  0  0
   26.7570   19.9980   16.1250 C   0  0  0  0  0  0  0  0  0  0  0  0
   27.7340   20.6140   16.5410 O   0  0  0  0  0  0  0  0  0  0  0  0
   25.9810   20.5090   15.1150 N   0  0  0  0  0  0  0  0  0  0  0  0
   25.0890   19.8010   14.3490 C   0  0  0  0  0  0  0  0  0  0  0  0
   24.7250   20.2130   13.2480 O   0  0  0  0  0  0  0  0  0  0  0  0
   21.7540   14.9550   13.2540 C   0  0  0  0  0  0  0  0  0  0  0  0
   21.1230   14.3510   12.1820 C   0  0  0  0  0  0  0  0  0  0  0  0
   21.5850   14.4560   10.8760 C   0  0  0  0  0  0  0  0  0  0  0  0
   20.6410   13.7390    9.9850 C   0  0  0  0  0  0  0  0  0  0  0  0
   19.8240   12.9740   11.0270 C   0  0  0  0  0  0  0  0  0  0  0  0
   19.9680   13.6250   12.3080 O   0  0  0  0  0  0  0  0  0  0  0  0
   21.7230   15.8140    6.8600 C   0  0  0  0  0  0  0  0  0  0  0  0
   20.5510   16.3200    6.5360 N   0  0  0  0  0  0  0  0  0  0  0  0
   18.9504   19.6134    8.5356 H   0  0  0  0  0  0  0  0  0  0  0  0
   19.8320   19.3891    6.9867 H   0  0  0  0  0  0  0  0  0  0  0  0
   18.0430   19.5504    6.9867 H   0  0  0  0  0  0  0  0  0  0  0  0
   18.2624   17.4232    8.6265 H   0  0  0  0  0  0  0  0  0  0  0  0
   18.1963   17.2763    6.8174 H   0  0  0  0  0  0  0  0  0  0  0  0
   20.9291   17.2127    9.7266 H   0  0  0  0  0  0  0  0  0  0  0  0
   24.3207   16.3805   11.4895 H   0  0  0  0  0  0  0  0  0  0  0  0
   23.7619   18.1360   12.9855 H   0  0  0  0  0  0  0  0  0  0  0  0
   23.7969   18.6854   15.7180 H   0  0  0  0  0  0  0  0  0  0  0  0
   25.3512   16.8477   16.1093 H   0  0  0  0  0  0  0  0  0  0  0  0
   26.4916   17.5198   14.8953 H   0  0  0  0  0  0  0  0  0  0  0  0
   25.5753   18.8530   17.4906 H   0  0  0  0  0  0  0  0  0  0  0  0
   27.2121   18.1725   17.1246 H   0  0  0  0  0  0  0  0  0  0  0  0
   26.0766   21.5146   14.9137 H   0  0  0  0  0  0  0  0  0  0  0  0
   21.3489   14.8692   14.2731 H   0  0  0  0  0  0  0  0  0  0  0  0
   20.0160   14.4355    9.4068 H   0  0  0  0  0  0  0  0  0  0  0  0
   21.1149   13.1120    9.2154 H   0  0  0  0  0  0  0  0  0  0  0  0
   18.7640   12.9686   10.7331 H   0  0  0  0  0  0  0  0  0  0  0  0
   20.1852   11.9372   11.0944 H   0  0  0  0  0  0  0  0  0  0  0  0
   22.3600   15.2249    6.1838 H   0  0  0  0  0  0  0  0  0  0  0  0
  1  2  1  0
  2  3  1  0
  3  4  2  0
  4  5  1  0
  5  6  1  0
  6  7  2  0
  6  8  2  0
  6  9  1  0
  9 10  2  0
 10 11  1  0
 11 12  1  0
 12 13  2  0
 12 14  1  0
 14 15  1  0
 15 16  1  0
 16 17  1  0
 17 18  1  0
 18 19  2  0
 18 20  1  0
 20 21  1  0
 21 22  2  0
 11 23  2  0
 23 24  1  0
 24 25  2  0
 25 26  1  0
 26 27  1  0
 27 28  1  0
  5 29  1  0
 29 30  2  0
 30  3  1  0
 25  9  1  0
 21 15  1  0
 28 24  1  0
  1 31  1  0
  1 32  1  0
  1 33  1  0
  2 34  1  0
  2 35  1  0
  4 36  1  0
 10 37  1  0
 14 38  1  0
 15 39  1  1
 16 40  1  0
 16 41  1  0
 17 42  1  0
 17 43  1  0
 20 44  1  0
 23 45  1  0
 26 46  1  0
 26 47  1  0
 27 48  1  0
 27 49  1  0
 29 50  1  0
M  END
>  <meeko>  (1188) 
{"is_sidechain": [true], "free_energy": -10.2, "intermolecular_energy": 0.0, "internal_energy": -10.2, "cluster_size": 20, "cluster_id": 1, "rank_in_cluster": 1}

>  <_RMSD_MCS_to_ref>  (1188) 
0.4201667658336523

$$$$
ligand
     RDKit          3D

 51 54  0  0  0  0  0  0  0  0999 V2000
   18.9090   19.1540    7.5370 C   0  0  0  0  0  0  0  0  0  0  0  0
   18.7730   17.6460    7.6780 C   0  0  0  0  0  0  0  0  0  0  0  0
   19.9400   16.9200    7.1060 C   0  0  0  0  0  0  0  0  0  0  0  0
   21.2870   17.1720    7.2740 C   0  0  0  0  0  0  0  0  0  0  0  0
   21.9030   16.2230    6.5100 N   0  0  0  0  0  0  0  0  0  0  0  0
   23.5520   15.8970    6.4820 S   0  0  0  0  0  6  0  0  0  0  0  0
   24.2120   17.1870    6.5020 O   0  0  0  0  0  0  0  0  0  0  0  0
   23.7450   14.9410    5.4090 O   0  0  0  0  0  0  0  0  0  0  0  0
   23.8400   15.0870    8.0300 C   0  0  0  0  0  0  0  0  0  0  0  0
   23.9220   13.6950    8.0780 C   0  0  0  0  0  0  0  0  0  0  0  0
   24.1480   13.0650    9.3030 C   0  0  0  0  0  0  0  0  0  0  0  0
   24.3020   13.8150   10.4800 C   0  0  0  0  0  0  0  0  0  0  0  0
   24.5220   13.1900   11.7180 C   0  0  0  0  0  0  0  0  0  0  0  0
   24.6790   13.9440   12.8840 C   0  0  0  0  0  0  0  0  0  0  0  0
   24.6260   15.3410   12.8260 C   0  0  0  0  0  0  0  0  0  0  0  0
   24.7820   16.1920   14.0390 C   0  0  0  0  0  0  0  0  0  0  0  0
   24.3580   15.8090   15.1230 O   0  0  0  0  0  0  0  0  0  0  0  0
   25.3830   17.4170   13.8620 N   0  0  0  0  0  0  0  0  0  0  0  0
   25.4380   18.3890   14.9470 C   0  0  1  0  0  0  0  0  0  0  0  0
   26.1950   17.8600   16.1600 C   0  0  0  0  0  0  0  0  0  0  0  0
   26.2490   18.9370   17.2330 C   0  0  0  0  0  0  0  0  0  0  0  0
   26.8590   20.2120   16.7000 C   0  0  0  0  0  0  0  0  0  0  0  0
   27.5460   20.9550   17.3960 O   0  0  0  0  0  0  0  0  0  0  0  0
   26.5860   20.5240   15.3930 N   0  0  0  0  0  0  0  0  0  0  0  0
   26.1390   19.6500   14.4340 C   0  0  0  0  0  0  0  0  0  0  0  0
   26.2880   19.8870   13.2350 O   0  0  0  0  0  0  0  0  0  0  0  0
   24.3940   15.9740   11.5980 C   0  0  0  0  0  0  0  0  0  0  0  0
   24.2330   15.2270   10.4210 C   0  0  0  0  0  0  0  0  0  0  0  0
   24.0040   15.8550    9.1870 C   0  0  0  0  0  0  0  0  0  0  0  0
   20.9610   15.4150    5.9580 C   0  0  0  0  0  0  0  0  0  0  0  0
   19.7530   15.8200    6.2920 N   0  0  0  0  0  0  0  0  0  0  0  0
   18.9504   19.6134    8.5356 H   0  0  0  0  0  0  0  0  0  0  0  0
   19.8320   19.3891    6.9867 H   0  0  0  0  0  0  0  0  0  0  0  0
   18.0430   19.5504    6.9867 H   0  0  0  0  0  0  0  0  0  0  0  0
   18.6892   17.3962    8.7460 H   0  0  0  0  0  0  0  0  0  0  0  0
   17.8762   17.3345    7.1224 H   0  0  0  0  0  0  0  0  0  0  0  0
   21.7565   17.9578    7.8840 H   0  0  0  0  0  0  0  0  0  0  0  0
   23.8097   13.0999    7.1597 H   0  0  0  0  0  0  0  0  0  0  0  0
   24.2062   11.9674    9.3468 H   0  0  0  0  0  0  0  0  0  0  0  0
   24.5714   12.0924   11.7707 H   0  0  0  0  0  0  0  0  0  0  0  0
   24.8442   13.4393   13.8473 H   0  0  0  0  0  0  0  0  0  0  0  0
   25.8001   17.6506   12.9497 H   0  0  0  0  0  0  0  0  0  0  0  0
   24.4072   18.6029   15.2660 H   0  0  0  0  0  0  0  0  0  0  0  0
   25.6788   16.9731   16.5563 H   0  0  0  0  0  0  0  0  0  0  0  0
   27.2182   17.5864   15.8631 H   0  0  0  0  0  0  0  0  0  0  0  0
   25.2271   19.1471   17.5817 H   0  0  0  0  0  0  0  0  0  0  0  0
   26.8750   18.5719   18.0605 H   0  0  0  0  0  0  0  0  0  0  0  0
   26.7293   21.5025   15.1050 H   0  0  0  0  0  0  0  0  0  0  0  0
   24.3373   17.0717   11.5558 H   0  0  0  0  0  0  0  0  0  0  0  0
   23.9535   16.9524    9.1299 H   0  0  0  0  0  0  0  0  0  0  0  0
   21.1768   14.5444    5.3212 H   0  0  0  0  0  0  0  0  0  0  0  0
  1  2  1  0
  2  3  1  0
  3  4  2  0
  4  5  1  0
  5  6  1  0
  6  7  2  0
  6  8  2  0
  6  9  1  0
  9 10  2  0
 10 11  1  0
 11 12  2  0
 12 13  1  0
 13 14  2  0
 14 15  1  0
 15 16  1  0
 16 17  2  0
 16 18  1  0
 18 19  1  0
 19 20  1  0
 20 21  1  0
 21 22  1  0
 22 23  2  0
 22 24  1  0
 24 25  1  0
 25 26  2  0
 15 27  2  0
 27 28  1  0
 28 29  2  0
  5 30  1  0
 30 31  2  0
 31  3  1  0
 29  9  1  0
 28 12  1  0
 25 19  1  0
  1 32  1  0
  1 33  1  0
  1 34  1  0
  2 35  1  0
  2 36  1  0
  4 37  1  0
 10 38  1  0
 11 39  1  0
 13 40  1  0
 14 41  1  0
 18 42  1  0
 19 43  1  1
 20 44  1  0
 20 45  1  0
 21 46  1  0
 21 47  1  0
 24 48  1  0
 27 49  1  0
 29 50  1  0
 30 51  1  0
M  END
>  <meeko>  (1189) 
{"is_sidechain": [true], "free_energy": -10.2, "intermolecular_energy": 0.0, "internal_energy": -10.2, "cluster_size": 20, "cluster_id": 1, "rank_in_cluster": 1}

>  <_RMSD_MCS_to_ref>  (1189) 
0.8272478467787022

$$$$
ligand
     RDKit          3D

 50 53  0  0  0  0  0  0  0  0999 V2000
   18.9090   19.1540    7.5370 C   0  0  0  0  0  0  0  0  0  0  0  0
   18.7730   17.6460    7.6780 C   0  0  0  0  0  0  0  0  0  0  0  0
   20.0160   16.9300    7.2790 C   0  0  0  0  0  0  0  0  0  0  0  0
   21.2160   16.8300    7.9540 C   0  0  0  0  0  0  0  0  0  0  0  0
   22.0050   16.0850    7.1260 N   0  0  0  0  0  0  0  0  0  0  0  0
   23.5080   15.4410    7.5140 S   0  0  0  0  0  6  0  0  0  0  0  0
   24.4870   16.3620    6.9740 O   0  0  0  0  0  0  0  0  0  0  0  0
   23.4510   14.0470    7.1200 O   0  0  0  0  0  0  0  0  0  0  0  0
   23.5620   15.5300    9.2640 C   0  0  0  0  0  0  0  0  0  0  0  0
   24.4070   16.4280    9.8710 C   0  0  0  0  0  0  0  0  0  0  0  0
   24.4950   16.5570   11.2170 N   0  0  0  0  0  0  0  0  0  0  0  0
   23.7380   15.7670   12.0240 C   0  0  0  0  0  0  0  0  0  0  0  0
   23.7760   15.8600   13.4280 C   0  0  0  0  0  0  0  0  0  0  0  0
   24.6450   16.8410   14.1550 C   0  0  0  0  0  0  0  0  0  0  0  0
   25.8660   16.7050   14.1580 O   0  0  0  0  0  0  0  0  0  0  0  0
   24.0300   17.8790   14.8110 N   0  0  0  0  0  0  0  0  0  0  0  0
   24.7510   18.8030   15.6670 C   0  0  1  0  0  0  0  0  0  0  0  0
   25.7860   18.0890   16.5320 C   0  0  0  0  0  0  0  0  0  0  0  0
   26.5140   19.1050   17.3960 C   0  0  0  0  0  0  0  0  0  0  0  0
   27.1420   20.1900   16.5530 C   0  0  0  0  0  0  0  0  0  0  0  0
   28.1960   20.7390   16.8630 O   0  0  0  0  0  0  0  0  0  0  0  0
   26.4570   20.5660   15.4250 N   0  0  0  0  0  0  0  0  0  0  0  0
   25.4630   19.8510   14.8020 C   0  0  0  0  0  0  0  0  0  0  0  0
   25.1700   20.0780   13.6280 O   0  0  0  0  0  0  0  0  0  0  0  0
   22.9760   15.0230   14.2300 C   0  0  0  0  0  0  0  0  0  0  0  0
   22.1320   14.0830   13.6530 C   0  0  0  0  0  0  0  0  0  0  0  0
   22.0760   13.9750   12.2690 C   0  0  0  0  0  0  0  0  0  0  0  0
   22.8630   14.8060   11.4560 C   0  0  0  0  0  0  0  0  0  0  0  0
   22.7880   14.6940   10.0610 C   0  0  0  0  0  0  0  0  0  0  0  0
   21.2850   15.7200    6.0340 C   0  0  0  0  0  0  0  0  0  0  0  0
   20.0720   16.2270    6.0910 N   0  0  0  0  0  0  0  0  0  0  0  0
   18.9504   19.6134    8.5356 H   0  0  0  0  0  0  0  0  0  0  0  0
   19.8320   19.3891    6.9867 H   0  0  0  0  0  0  0  0  0  0  0  0
   18.0430   19.5504    6.9867 H   0  0  0  0  0  0  0  0  0  0  0  0
   18.5480   17.4071    8.7279 H   0  0  0  0  0  0  0  0  0  0  0  0
   17.9636   17.3158    7.0103 H   0  0  0  0  0  0  0  0  0  0  0  0
   21.4768   17.2539    8.9350 H   0  0  0  0  0  0  0  0  0  0  0  0
   25.0382   17.0687    9.2377 H   0  0  0  0  0  0  0  0  0  0  0  0
   23.0151   18.0070   14.6905 H   0  0  0  0  0  0  0  0  0  0  0  0
   24.0181   19.2814   16.3333 H   0  0  0  0  0  0  0  0  0  0  0  0
   25.2809   17.3547   17.1767 H   0  0  0  0  0  0  0  0  0  0  0  0
   26.5105   17.5729   15.8849 H   0  0  0  0  0  0  0  0  0  0  0  0
   25.7966   19.5625   18.0932 H   0  0  0  0  0  0  0  0  0  0  0  0
   27.3126   18.5856   17.9460 H   0  0  0  0  0  0  0  0  0  0  0  0
   26.7126   21.4711   15.0051 H   0  0  0  0  0  0  0  0  0  0  0  0
   23.0202   15.1148   15.3253 H   0  0  0  0  0  0  0  0  0  0  0  0
   21.5134   13.4299   14.2861 H   0  0  0  0  0  0  0  0  0  0  0  0
   21.4095   13.2322   11.8064 H   0  0  0  0  0  0  0  0  0  0  0  0
   22.1216   13.9501    9.6000 H   0  0  0  0  0  0  0  0  0  0  0  0
   21.6629   15.0888    5.2162 H   0  0  0  0  0  0  0  0  0  0  0  0
  1  2  1  0
  2  3  1  0
  3  4  2  0
  4  5  1  0
  5  6  1  0
  6  7  2  0
  6  8  2  0
  6  9  1  0
  9 10  2  0
 10 11  1  0
 11 12  2  0
 12 13  1  0
 13 14  1  0
 14 15  2  0
 14 16  1  0
 16 17  1  0
 17 18  1  0
 18 19  1  0
 19 20  1  0
 20 21  2  0
 20 22  1  0
 22 23  1  0
 23 24  2  0
 13 25  2  0
 25 26  1  0
 26 27  2  0
 27 28  1  0
 28 29  2  0
  5 30  1  0
 30 31  2  0
 31  3  1  0
 29  9  1  0
 28 12  1  0
 23 17  1  0
  1 32  1  0
  1 33  1  0
  1 34  1  0
  2 35  1  0
  2 36  1  0
  4 37  1  0
 10 38  1  0
 16 39  1  0
 17 40  1  1
 18 41  1  0
 18 42  1  0
 19 43  1  0
 19 44  1  0
 22 45  1  0
 25 46  1  0
 26 47  1  0
 27 48  1  0
 29 49  1  0
 30 50  1  0
M  END
>  <meeko>  (1190) 
{"is_sidechain": [true], "free_energy": -10.2, "intermolecular_energy": 0.0, "internal_energy": -10.2, "cluster_size": 20, "cluster_id": 1, "rank_in_cluster": 1}

>  <_RMSD_MCS_to_ref>  (1190) 
0.8695497557804145

$$$$
ligand
     RDKit          3D

 53 56  0  0  0  0  0  0  0  0999 V2000
   18.9090   19.1540    7.5370 C   0  0  0  0  0  0  0  0  0  0  0  0
   18.7730   17.6460    7.6780 C   0  0  0  0  0  0  0  0  0  0  0  0
   20.0540   16.9390    7.4060 C   0  0  0  0  0  0  0  0  0  0  0  0
   20.9950   16.4690    8.3010 C   0  0  0  0  0  0  0  0  0  0  0  0
   21.9690   15.9280    7.5110 N   0  0  0  0  0  0  0  0  0  0  0  0
   23.2880   15.0360    8.0460 S   0  0  0  0  0  6  0  0  0  0  0  0
   24.3760   15.4290    7.1720 O   0  0  0  0  0  0  0  0  0  0  0  0
   22.8150   13.6690    8.1450 O   0  0  0  0  0  0  0  0  0  0  0  0
   23.6880   15.5880    9.6970 C   0  0  0  0  0  0  0  0  0  0  0  0
   24.8160   16.3860    9.9170 C   0  0  0  0  0  0  0  0  0  0  0  0
   25.1300   16.8040   11.2100 C   0  0  0  0  0  0  0  0  0  0  0  0
   24.3360   16.4340   12.3060 C   0  0  0  0  0  0  0  0  0  0  0  0
   24.7840   16.9370   13.6470 C   0  0  0  0  0  0  0  0  0  0  0  0
   24.9080   16.1610   14.5900 O   0  0  0  0  0  0  0  0  0  0  0  0
   25.0480   18.2790   13.7740 N   0  0  0  0  0  0  0  0  0  0  0  0
   25.3390   18.8980   15.0560 C   0  0  1  0  0  0  0  0  0  0  0  0
   26.4330   18.1520   15.8140 C   0  0  0  0  0  0  0  0  0  0  0  0
   26.7080   18.8590   17.1320 C   0  0  0  0  0  0  0  0  0  0  0  0
   27.0660   20.3090   16.9120 C   0  0  0  0  0  0  0  0  0  0  0  0
   27.8580   20.9090   17.6320 O   0  0  0  0  0  0  0  0  0  0  0  0
   26.4320   20.9490   15.8770 N   0  0  0  0  0  0  0  0  0  0  0  0
   25.7880   20.3440   14.8230 C   0  0  0  0  0  0  0  0  0  0  0  0
   25.5830   20.9560   13.7760 O   0  0  0  0  0  0  0  0  0  0  0  0
   23.2050   15.6210   12.0850 C   0  0  0  0  0  0  0  0  0  0  0  0
   22.8540   15.2120   10.7780 C   0  0  0  0  0  0  0  0  0  0  0  0
   21.6190   14.3640   10.5640 C   0  0  0  0  0  0  0  0  0  0  0  0
   20.7100   14.3620   11.7810 C   0  0  0  0  0  0  0  0  0  0  0  0
   21.5660   14.1680   13.0110 C   0  0  0  0  0  0  0  0  0  0  0  0
   22.4540   15.2730   13.1820 O   0  0  0  0  0  0  0  0  0  0  0  0
   21.6060   16.0510    6.2080 C   0  0  0  0  0  0  0  0  0  0  0  0
   20.4400   16.6560    6.1100 N   0  0  0  0  0  0  0  0  0  0  0  0
   18.9504   19.6134    8.5356 H   0  0  0  0  0  0  0  0  0  0  0  0
   19.8320   19.3891    6.9867 H   0  0  0  0  0  0  0  0  0  0  0  0
   18.0430   19.5504    6.9867 H   0  0  0  0  0  0  0  0  0  0  0  0
   18.4508   17.4136    8.7038 H   0  0  0  0  0  0  0  0  0  0  0  0
   18.0339   17.3027    6.9392 H   0  0  0  0  0  0  0  0  0  0  0  0
   20.9665   16.5190    9.3995 H   0  0  0  0  0  0  0  0  0  0  0  0
   25.4540   16.6832    9.0717 H   0  0  0  0  0  0  0  0  0  0  0  0
   26.0160   17.4351   11.3735 H   0  0  0  0  0  0  0  0  0  0  0  0
   25.0394   18.8683   12.9293 H   0  0  0  0  0  0  0  0  0  0  0  0
   24.4229   18.8652   15.6641 H   0  0  0  0  0  0  0  0  0  0  0  0
   26.1042   17.1212   16.0124 H   0  0  0  0  0  0  0  0  0  0  0  0
   27.3514   18.1336   15.2089 H   0  0  0  0  0  0  0  0  0  0  0  0
   25.8086   18.8037   17.7629 H   0  0  0  0  0  0  0  0  0  0  0  0
   27.5581   18.3618   17.6221 H   0  0  0  0  0  0  0  0  0  0  0  0
   26.4390   21.9789   15.8907 H   0  0  0  0  0  0  0  0  0  0  0  0
   21.0600   14.7619    9.7043 H   0  0  0  0  0  0  0  0  0  0  0  0
   21.9455   13.3293   10.3831 H   0  0  0  0  0  0  0  0  0  0  0  0
   20.1750   15.3208   11.8474 H   0  0  0  0  0  0  0  0  0  0  0  0
   19.9710   13.5511   11.7013 H   0  0  0  0  0  0  0  0  0  0  0  0
   20.9163   14.0857   13.8948 H   0  0  0  0  0  0  0  0  0  0  0  0
   22.1598   13.2500   12.8898 H   0  0  0  0  0  0  0  0  0  0  0  0
   22.2019   15.6954    5.3545 H   0  0  0  0  0  0  0  0  0  0  0  0
  1  2  1  0
  2  3  1  0
  3  4  2  0
  4  5  1  0
  5  6  1  0
  6  7  2  0
  6  8  2  0
  6  9  1  0
  9 10  2  0
 10 11  1  0
 11 12  2  0
 12 13  1  0
 13 14  2  0
 13 15  1  0
 15 16  1  0
 16 17  1  0
 17 18  1  0
 18 19  1  0
 19 20  2  0
 19 21  1  0
 21 22  1  0
 22 23  2  0
 12 24  1  0
 24 25  2  0
 25 26  1  0
 26 27  1  0
 27 28  1  0
 28 29  1  0
  5 30  1  0
 30 31  2  0
 31  3  1  0
 25  9  1  0
 22 16  1  0
 29 24  1  0
  1 32  1  0
  1 33  1  0
  1 34  1  0
  2 35  1  0
  2 36  1  0
  4 37  1  0
 10 38  1  0
 11 39  1  0
 15 40  1  0
 16 41  1  1
 17 42  1  0
 17 43  1  0
 18 44  1  0
 18 45  1  0
 21 46  1  0
 26 47  1  0
 26 48  1  0
 27 49  1  0
 27 50  1  0
 28 51  1  0
 28 52  1  0
 30 53  1  0
M  END
>  <meeko>  (1191) 
{"is_sidechain": [true], "free_energy": -10.2, "intermolecular_energy": 0.0, "internal_energy": -10.2, "cluster_size": 11, "cluster_id": 1, "rank_in_cluster": 1}

>  <_RMSD_MCS_to_ref>  (1191) 
0.8656748812342888

$$$$
ligand
     RDKit          3D

 44 46  0  0  0  0  0  0  0  0999 V2000
   18.9090   19.1540    7.5370 C   0  0  0  0  0  0  0  0  0  0  0  0
   18.7730   17.6460    7.6780 C   0  0  0  0  0  0  0  0  0  0  0  0
   20.0840   16.9510    7.5630 C   0  0  0  0  0  0  0  0  0  0  0  0
   21.0890   16.8310    8.5030 C   0  0  0  0  0  0  0  0  0  0  0  0
   22.0590   16.1120    7.8660 N   0  0  0  0  0  0  0  0  0  0  0  0
   23.4260   15.4500    8.5840 S   0  0  0  0  0  6  0  0  0  0  0  0
   24.4940   16.4090    8.3880 O   0  0  0  0  0  0  0  0  0  0  0  0
   23.5000   14.0860    8.0950 O   0  0  0  0  0  0  0  0  0  0  0  0
   23.0290   15.4100   10.3060 C   0  0  0  0  0  0  0  0  0  0  0  0
   21.7990   14.9020   10.7240 C   0  0  0  0  0  0  0  0  0  0  0  0
   21.5400   14.8830   12.0810 C   0  0  0  0  0  0  0  0  0  0  0  0
   22.4110   15.3250   13.0140 N   0  0  0  0  0  0  0  0  0  0  0  0
   23.6070   15.8000   12.5690 C   0  0  0  0  0  0  0  0  0  0  0  0
   24.5590   16.2880   13.6180 C   0  0  0  0  0  0  0  0  0  0  0  0
   25.0760   15.5180   14.4200 O   0  0  0  0  0  0  0  0  0  0  0  0
   24.8050   17.6400   13.5870 N   0  0  0  0  0  0  0  0  0  0  0  0
   25.8180   18.2700   14.4120 C   0  0  2  0  0  0  0  0  0  0  0  0
   25.6320   17.9480   15.8910 C   0  0  0  0  0  0  0  0  0  0  0  0
   26.7080   18.6500   16.7040 C   0  0  0  0  0  0  0  0  0  0  0  0
   26.7040   20.1390   16.4510 C   0  0  0  0  0  0  0  0  0  0  0  0
   26.9970   20.9560   17.3180 O   0  0  0  0  0  0  0  0  0  0  0  0
   26.3860   20.5440   15.1790 N   0  0  0  0  0  0  0  0  0  0  0  0
   25.7560   19.7900   14.2190 C   0  0  0  0  0  0  0  0  0  0  0  0
   25.1980   20.3260   13.2620 O   0  0  0  0  0  0  0  0  0  0  0  0
   23.9640   15.8590   11.2340 C   0  0  0  0  0  0  0  0  0  0  0  0
   21.6280   15.7870    6.6200 C   0  0  0  0  0  0  0  0  0  0  0  0
   20.4310   16.2900    6.4010 N   0  0  0  0  0  0  0  0  0  0  0  0
   18.9504   19.6134    8.5356 H   0  0  0  0  0  0  0  0  0  0  0  0
   19.8320   19.3891    6.9867 H   0  0  0  0  0  0  0  0  0  0  0  0
   18.0430   19.5504    6.9867 H   0  0  0  0  0  0  0  0  0  0  0  0
   18.3372   17.4200    8.6624 H   0  0  0  0  0  0  0  0  0  0  0  0
   18.1274   17.2871    6.8629 H   0  0  0  0  0  0  0  0  0  0  0  0
   21.1042   17.2248    9.5300 H   0  0  0  0  0  0  0  0  0  0  0  0
   21.0609   14.5295    9.9985 H   0  0  0  0  0  0  0  0  0  0  0  0
   20.5717   14.4863   12.4201 H   0  0  0  0  0  0  0  0  0  0  0  0
   24.2475   18.2294   12.9524 H   0  0  0  0  0  0  0  0  0  0  0  0
   26.7966   17.8770   14.0992 H   0  0  0  0  0  0  0  0  0  0  0  0
   24.6407   18.2939   16.2193 H   0  0  0  0  0  0  0  0  0  0  0  0
   25.7107   16.8612   16.0414 H   0  0  0  0  0  0  0  0  0  0  0  0
   26.5251   18.4679   17.7733 H   0  0  0  0  0  0  0  0  0  0  0  0
   27.6872   18.2495   16.4026 H   0  0  0  0  0  0  0  0  0  0  0  0
   26.6447   21.5065   14.9189 H   0  0  0  0  0  0  0  0  0  0  0  0
   24.9450   16.2443   10.9192 H   0  0  0  0  0  0  0  0  0  0  0  0
   22.1987   15.1877    5.8954 H   0  0  0  0  0  0  0  0  0  0  0  0
  1  2  1  0
  2  3  1  0
  3  4  2  0
  4  5  1  0
  5  6  1  0
  6  7  2  0
  6  8  2  0
  6  9  1  0
  9 10  2  0
 10 11  1  0
 11 12  2  0
 12 13  1  0
 13 14  1  0
 14 15  2  0
 14 16  1  0
 16 17  1  0
 17 18  1  0
 18 19  1  0
 19 20  1  0
 20 21  2  0
 20 22  1  0
 22 23  1  0
 23 24  2  0
 13 25  2  0
  5 26  1  0
 26 27  2  0
 27  3  1  0
 25  9  1  0
 23 17  1  0
  1 28  1  0
  1 29  1  0
  1 30  1  0
  2 31  1  0
  2 32  1  0
  4 33  1  0
 10 34  1  0
 11 35  1  0
 16 36  1  0
 17 37  1  6
 18 38  1  0
 18 39  1  0
 19 40  1  0
 19 41  1  0
 22 42  1  0
 25 43  1  0
 26 44  1  0
M  END
>  <meeko>  (1192) 
{"is_sidechain": [true], "free_energy": -10.2, "intermolecular_energy": 0.0, "internal_energy": -10.2, "cluster_size": 20, "cluster_id": 1, "rank_in_cluster": 1}

>  <_RMSD_MCS_to_ref>  (1192) 
0.5505933163415626

$$$$
ligand
     RDKit          3D

 40 42  0  0  0  0  0  0  0  0999 V2000
   18.9090   19.1540    7.5370 C   0  0  0  0  0  0  0  0  0  0  0  0
   18.7730   17.6460    7.6780 C   0  0  0  0  0  0  0  0  0  0  0  0
   20.0870   16.9540    7.5930 C   0  0  0  0  0  0  0  0  0  0  0  0
   21.0350   16.7630    8.5790 C   0  0  0  0  0  0  0  0  0  0  0  0
   22.0270   16.0580    7.9590 N   0  0  0  0  0  0  0  0  0  0  0  0
   23.5210   15.6750    8.6110 S   0  0  0  0  0  6  0  0  0  0  0  0
   23.7790   14.2920    8.2520 O   0  0  0  0  0  0  0  0  0  0  0  0
   24.4090   16.7680    8.2580 O   0  0  0  0  0  0  0  0  0  0  0  0
   23.4100   15.7010   10.3620 C   0  0  0  0  0  0  0  0  0  0  0  0
   22.2960   15.2890   10.9870 N   0  0  0  0  0  0  0  0  0  0  0  0
   22.5710   15.4690   12.6260 S   0  0  0  0  0  0  0  0  0  0  0  0
   24.1470   16.0850   12.4030 C   0  0  0  0  0  0  0  0  0  0  0  0
   24.9910   16.4710   13.5200 C   0  0  0  0  0  0  0  0  0  0  0  0
   25.5280   15.6850   14.2970 O   0  0  0  0  0  0  0  0  0  0  0  0
   25.1580   17.8360   13.6450 N   0  0  0  0  0  0  0  0  0  0  0  0
   26.0750   18.4240   14.6070 C   0  0  2  0  0  0  0  0  0  0  0  0
   25.7340   18.0260   16.0400 C   0  0  0  0  0  0  0  0  0  0  0  0
   26.7080   18.6940   16.9980 C   0  0  0  0  0  0  0  0  0  0  0  0
   26.7170   20.1940   16.8180 C   0  0  0  0  0  0  0  0  0  0  0  0
   26.9040   20.9680   17.7510 O   0  0  0  0  0  0  0  0  0  0  0  0
   26.5330   20.6600   15.5400 N   0  0  0  0  0  0  0  0  0  0  0  0
   26.0160   19.9490   14.4850 C   0  0  0  0  0  0  0  0  0  0  0  0
   25.5530   20.5220   13.5000 O   0  0  0  0  0  0  0  0  0  0  0  0
   24.4920   16.1650   11.1320 N   0  0  0  0  0  0  0  0  0  0  0  0
   21.7020   15.8890    6.6520 C   0  0  0  0  0  0  0  0  0  0  0  0
   20.5170   16.4040    6.4000 N   0  0  0  0  0  0  0  0  0  0  0  0
   18.9504   19.6134    8.5356 H   0  0  0  0  0  0  0  0  0  0  0  0
   19.8320   19.3891    6.9867 H   0  0  0  0  0  0  0  0  0  0  0  0
   18.0430   19.5504    6.9867 H   0  0  0  0  0  0  0  0  0  0  0  0
   18.3163   17.4209    8.6531 H   0  0  0  0  0  0  0  0  0  0  0  0
   18.1460   17.2841    6.8498 H   0  0  0  0  0  0  0  0  0  0  0  0
   20.9993   17.1014    9.6250 H   0  0  0  0  0  0  0  0  0  0  0  0
   24.6126   18.4605   13.0339 H   0  0  0  0  0  0  0  0  0  0  0  0
   27.0851   18.0500   14.3836 H   0  0  0  0  0  0  0  0  0  0  0  0
   24.7090   18.3481   16.2758 H   0  0  0  0  0  0  0  0  0  0  0  0
   25.8087   16.9335   16.1444 H   0  0  0  0  0  0  0  0  0  0  0  0
   26.4117   18.4593   18.0310 H   0  0  0  0  0  0  0  0  0  0  0  0
   27.7181   18.3138   16.7857 H   0  0  0  0  0  0  0  0  0  0  0  0
   26.8087   21.6350   15.3549 H   0  0  0  0  0  0  0  0  0  0  0  0
   22.3400   15.3910    5.9071 H   0  0  0  0  0  0  0  0  0  0  0  0
  1  2  1  0
  2  3  1  0
  3  4  2  0
  4  5  1  0
  5  6  1  0
  6  7  2  0
  6  8  2  0
  6  9  1  0
  9 10  2  0
 10 11  1  0
 11 12  1  0
 12 13  1  0
 13 14  2  0
 13 15  1  0
 15 16  1  0
 16 17  1  0
 17 18  1  0
 18 19  1  0
 19 20  2  0
 19 21  1  0
 21 22  1  0
 22 23  2  0
 12 24  2  0
  5 25  1  0
 25 26  2  0
 26  3  1  0
 24  9  1  0
 22 16  1  0
  1 27  1  0
  1 28  1  0
  1 29  1  0
  2 30  1  0
  2 31  1  0
  4 32  1  0
 15 33  1  0
 16 34  1  6
 17 35  1  0
 17 36  1  0
 18 37  1  0
 18 38  1  0
 21 39  1  0
 25 40  1  0
M  END
>  <meeko>  (1193) 
{"is_sidechain": [true], "free_energy": -10.2, "intermolecular_energy": 0.0, "internal_energy": -10.2, "cluster_size": 20, "cluster_id": 1, "rank_in_cluster": 1}

>  <_RMSD_MCS_to_ref>  (1193) 
0.7752529336359268

$$$$
ligand
     RDKit          3D

 54 57  0  0  0  0  0  0  0  0999 V2000
   18.9090   19.1540    7.5370 C   0  0  0  0  0  0  0  0  0  0  0  0
   18.7730   17.6460    7.6780 C   0  0  0  0  0  0  0  0  0  0  0  0
   20.0820   16.9520    7.5460 C   0  0  0  0  0  0  0  0  0  0  0  0
   21.0960   16.8260    8.4760 C   0  0  0  0  0  0  0  0  0  0  0  0
   22.0470   16.0860    7.8340 N   0  0  0  0  0  0  0  0  0  0  0  0
   23.4760   15.5280    8.5140 S   0  0  0  0  0  6  0  0  0  0  0  0
   23.7720   14.2470    7.9010 O   0  0  0  0  0  0  0  0  0  0  0  0
   24.3840   16.6550    8.4070 O   0  0  0  0  0  0  0  0  0  0  0  0
   23.1460   15.2630   10.2360 C   0  0  0  0  0  0  0  0  0  0  0  0
   24.0620   15.7920   11.1620 C   0  0  0  0  0  0  0  0  0  0  0  0
   23.8320   15.6400   12.5310 C   0  0  0  0  0  0  0  0  0  0  0  0
   24.7500   16.2060   13.5560 C   0  0  0  0  0  0  0  0  0  0  0  0
   25.3590   15.4630   14.3170 O   0  0  0  0  0  0  0  0  0  0  0  0
   24.8870   17.5760   13.5740 N   0  0  0  0  0  0  0  0  0  0  0  0
   25.8700   18.2180   14.4370 C   0  0  2  0  0  0  0  0  0  0  0  0
   25.6620   17.8680   15.9070 C   0  0  0  0  0  0  0  0  0  0  0  0
   26.6920   18.6010   16.7520 C   0  0  0  0  0  0  0  0  0  0  0  0
   26.6360   20.0920   16.5160 C   0  0  0  0  0  0  0  0  0  0  0  0
   26.8740   20.9080   17.4010 O   0  0  0  0  0  0  0  0  0  0  0  0
   26.3330   20.5010   15.2420 N   0  0  0  0  0  0  0  0  0  0  0  0
   25.7520   19.7350   14.2630 C   0  0  0  0  0  0  0  0  0  0  0  0
   25.1860   20.2500   13.3000 O   0  0  0  0  0  0  0  0  0  0  0  0
   22.6950   14.9530   12.9640 C   0  0  0  0  0  0  0  0  0  0  0  0
   21.8080   14.3890   12.0420 C   0  0  0  0  0  0  0  0  0  0  0  0
   22.0040   14.5740   10.6630 C   0  0  0  0  0  0  0  0  0  0  0  0
   21.1580   14.0950    9.7010 O   0  0  0  0  0  0  0  0  0  0  0  0
   19.8040   14.5470    9.8220 C   0  0  0  0  0  0  0  0  0  0  0  0
   19.0670   13.7600   10.8890 C   0  0  0  0  0  0  0  0  0  0  0  0
   19.4780   14.1970   12.2840 C   0  0  0  0  0  0  0  0  0  0  0  0
   20.7730   13.6900   12.6110 O   0  0  0  0  0  0  0  0  0  0  0  0
   21.6220   15.8060    6.5750 C   0  0  0  0  0  0  0  0  0  0  0  0
   20.4210   16.3080    6.3720 N   0  0  0  0  0  0  0  0  0  0  0  0
   18.9504   19.6134    8.5356 H   0  0  0  0  0  0  0  0  0  0  0  0
   19.8320   19.3891    6.9867 H   0  0  0  0  0  0  0  0  0  0  0  0
   18.0430   19.5504    6.9867 H   0  0  0  0  0  0  0  0  0  0  0  0
   18.3492   17.4189    8.6674 H   0  0  0  0  0  0  0  0  0  0  0  0
   18.1166   17.2879    6.8712 H   0  0  0  0  0  0  0  0  0  0  0  0
   21.1294   17.2293    9.4989 H   0  0  0  0  0  0  0  0  0  0  0  0
   24.9576   16.3243   10.8091 H   0  0  0  0  0  0  0  0  0  0  0  0
   24.2866   18.1547   12.9694 H   0  0  0  0  0  0  0  0  0  0  0  0
   26.8681   17.8578   14.1472 H   0  0  0  0  0  0  0  0  0  0  0  0
   24.6508   18.1708   16.2167 H   0  0  0  0  0  0  0  0  0  0  0  0
   25.7780   16.7830   16.0461 H   0  0  0  0  0  0  0  0  0  0  0  0
   26.4928   18.3989   17.8148 H   0  0  0  0  0  0  0  0  0  0  0  0
   27.6923   18.2422   16.4681 H   0  0  0  0  0  0  0  0  0  0  0  0
   26.5633   21.4747   14.9974 H   0  0  0  0  0  0  0  0  0  0  0  0
   22.4956   14.8548   14.0413 H   0  0  0  0  0  0  0  0  0  0  0  0
   19.8025   15.6128   10.0943 H   0  0  0  0  0  0  0  0  0  0  0  0
   19.2948   14.3974    8.8585 H   0  0  0  0  0  0  0  0  0  0  0  0
   17.9854   13.9196   10.7682 H   0  0  0  0  0  0  0  0  0  0  0  0
   19.3205   12.6961   10.7711 H   0  0  0  0  0  0  0  0  0  0  0  0
   19.4992   15.2960   12.3266 H   0  0  0  0  0  0  0  0  0  0  0  0
   18.7501   13.8010   13.0075 H   0  0  0  0  0  0  0  0  0  0  0  0
   22.1994   15.2396    5.8294 H   0  0  0  0  0  0  0  0  0  0  0  0
  1  2  1  0
  2  3  1  0
  3  4  2  0
  4  5  1  0
  5  6  1  0
  6  7  2  0
  6  8  2  0
  6  9  1  0
  9 10  2  0
 10 11  1  0
 11 12  1  0
 12 13  2  0
 12 14  1  0
 14 15  1  0
 15 16  1  0
 16 17  1  0
 17 18  1  0
 18 19  2  0
 18 20  1  0
 20 21  1  0
 21 22  2  0
 11 23  2  0
 23 24  1  0
 24 25  2  0
 25 26  1  0
 26 27  1  0
 27 28  1  0
 28 29  1  0
 29 30  1  0
  5 31  1  0
 31 32  2  0
 32  3  1  0
 25  9  1  0
 21 15  1  0
 30 24  1  0
  1 33  1  0
  1 34  1  0
  1 35  1  0
  2 36  1  0
  2 37  1  0
  4 38  1  0
 10 39  1  0
 14 40  1  0
 15 41  1  6
 16 42  1  0
 16 43  1  0
 17 44  1  0
 17 45  1  0
 20 46  1  0
 23 47  1  0
 27 48  1  0
 27 49  1  0
 28 50  1  0
 28 51  1  0
 29 52  1  0
 29 53  1  0
 31 54  1  0
M  END
>  <meeko>  (1194) 
{"is_sidechain": [true], "free_energy": -10.2, "intermolecular_energy": 0.17, "internal_energy": -10.38, "cluster_size": 19, "cluster_id": 1, "rank_in_cluster": 1}

>  <_RMSD_MCS_to_ref>  (1194) 
0.5533070274871509

$$$$
ligand
     RDKit          3D

 53 57  0  0  0  0  0  0  0  0999 V2000
   18.9090   19.1540    7.5370 C   0  0  0  0  0  0  0  0  0  0  0  0
   18.7730   17.6460    7.6780 C   0  0  0  0  0  0  0  0  0  0  0  0
   19.9900   16.9290    7.2100 C   0  0  0  0  0  0  0  0  0  0  0  0
   21.0380   16.4170    7.9500 C   0  0  0  0  0  0  0  0  0  0  0  0
   21.8720   15.8720    7.0170 N   0  0  0  0  0  0  0  0  0  0  0  0
   23.2150   14.9300    7.3510 S   0  0  0  0  0  6  0  0  0  0  0  0
   22.9300   14.1940    8.5650 O   0  0  0  0  0  0  0  0  0  0  0  0
   23.5720   14.2890    6.1010 O   0  0  0  0  0  0  0  0  0  0  0  0
   24.5420   15.9330    7.7380 C   0  0  0  0  0  0  0  0  0  0  0  0
   25.0160   16.9890    6.9470 C   0  0  0  0  0  0  0  0  0  0  0  0
   26.0590   17.6040    7.5090 N   0  0  0  0  0  0  0  0  0  0  0  0
   26.2560   16.9290    8.6540 N   0  0  0  0  0  0  0  0  0  0  0  0
   25.3650   15.9010    8.8480 C   0  0  0  0  0  0  0  0  0  0  0  0
   25.4070   15.0450   10.0150 C   0  0  0  0  0  0  0  0  0  0  0  0
   25.3570   13.6480    9.8710 C   0  0  0  0  0  0  0  0  0  0  0  0
   25.4020   12.7990   10.9920 C   0  0  0  0  0  0  0  0  0  0  0  0
   25.4850   13.3280   12.2790 C   0  0  0  0  0  0  0  0  0  0  0  0
   25.5300   14.7040   12.3980 C   0  0  0  0  0  0  0  0  0  0  0  0
   25.4960   15.5630   11.2980 C   0  0  0  0  0  0  0  0  0  0  0  0
   25.5430   16.9820   11.7690 C   0  0  0  0  0  0  0  0  0  0  0  0
   25.6810   16.8380   13.2120 N   0  0  0  0  0  0  0  0  0  0  0  0
   25.5190   17.9440   14.1470 C   0  0  1  0  0  0  0  0  0  0  0  0
   26.0190   17.6040   15.5480 C   0  0  0  0  0  0  0  0  0  0  0  0
   25.7370   18.7720   16.4810 C   0  0  0  0  0  0  0  0  0  0  0  0
   26.3460   20.0510   15.9560 C   0  0  0  0  0  0  0  0  0  0  0  0
   26.8130   20.9100   16.6980 O   0  0  0  0  0  0  0  0  0  0  0  0
   26.3360   20.2230   14.5950 N   0  0  0  0  0  0  0  0  0  0  0  0
   26.2280   19.2200   13.6600 C   0  0  0  0  0  0  0  0  0  0  0  0
   26.6890   19.3700   12.5300 O   0  0  0  0  0  0  0  0  0  0  0  0
   25.6010   15.5160   13.6170 C   0  0  0  0  0  0  0  0  0  0  0  0
   25.5810   15.0780   14.7500 O   0  0  0  0  0  0  0  0  0  0  0  0
   21.3250   16.0250    5.7850 C   0  0  0  0  0  0  0  0  0  0  0  0
   20.1810   16.6730    5.8660 N   0  0  0  0  0  0  0  0  0  0  0  0
   18.9504   19.6134    8.5356 H   0  0  0  0  0  0  0  0  0  0  0  0
   19.8320   19.3891    6.9867 H   0  0  0  0  0  0  0  0  0  0  0  0
   18.0430   19.5504    6.9867 H   0  0  0  0  0  0  0  0  0  0  0  0
   18.6029   17.4025    8.7371 H   0  0  0  0  0  0  0  0  0  0  0  0
   17.9273   17.3219    7.0537 H   0  0  0  0  0  0  0  0  0  0  0  0
   21.1702   16.4426    9.0417 H   0  0  0  0  0  0  0  0  0  0  0  0
   24.5804   17.2765    5.9787 H   0  0  0  0  0  0  0  0  0  0  0  0
   27.0042   17.1603    9.3231 H   0  0  0  0  0  0  0  0  0  0  0  0
   25.2814   13.2107    8.8645 H   0  0  0  0  0  0  0  0  0  0  0  0
   25.3714   11.7084   10.8516 H   0  0  0  0  0  0  0  0  0  0  0  0
   25.5135   12.6761   13.1646 H   0  0  0  0  0  0  0  0  0  0  0  0
   26.4048   17.5138   11.3395 H   0  0  0  0  0  0  0  0  0  0  0  0
   24.6615   17.5691   11.4720 H   0  0  0  0  0  0  0  0  0  0  0  0
   24.4355   18.1278   14.1951 H   0  0  0  0  0  0  0  0  0  0  0  0
   25.4996   16.7067   15.9156 H   0  0  0  0  0  0  0  0  0  0  0  0
   27.1016   17.4118   15.5158 H   0  0  0  0  0  0  0  0  0  0  0  0
   24.6487   18.9038   16.5718 H   0  0  0  0  0  0  0  0  0  0  0  0
   26.1844   18.5503   17.4612 H   0  0  0  0  0  0  0  0  0  0  0  0
   26.4164   21.1875   14.2425 H   0  0  0  0  0  0  0  0  0  0  0  0
   21.7738   15.6593    4.8497 H   0  0  0  0  0  0  0  0  0  0  0  0
  1  2  1  0
  2  3  1  0
  3  4  2  0
  4  5  1  0
  5  6  1  0
  6  7  2  0
  6  8  2  0
  6  9  1  0
  9 10  1  0
 10 11  2  0
 11 12  1  0
 12 13  1  0
 13 14  1  0
 14 15  2  0
 15 16  1  0
 16 17  2  0
 17 18  1  0
 18 19  2  0
 19 20  1  0
 20 21  1  0
 21 22  1  0
 22 23  1  0
 23 24  1  0
 24 25  1  0
 25 26  2  0
 25 27  1  0
 27 28  1  0
 28 29  2  0
 21 30  1  0
 30 31  2  0
  5 32  1  0
 32 33  2  0
 33  3  1  0
 13  9  2  0
 19 14  1  0
 28 22  1  0
 30 18  1  0
  1 34  1  0
  1 35  1  0
  1 36  1  0
  2 37  1  0
  2 38  1  0
  4 39  1  0
 10 40  1  0
 12 41  1  0
 15 42  1  0
 16 43  1  0
 17 44  1  0
 20 45  1  0
 20 46  1  0
 22 47  1  1
 23 48  1  0
 23 49  1  0
 24 50  1  0
 24 51  1  0
 27 52  1  0
 32 53  1  0
M  END
>  <meeko>  (1195) 
{"is_sidechain": [true], "free_energy": -10.2, "intermolecular_energy": 0.0, "internal_energy": -10.2, "cluster_size": 17, "cluster_id": 1, "rank_in_cluster": 1}

>  <_RMSD_MCS_to_ref>  (1195) 
1.75822814851265

$$$$
ligand
     RDKit          3D

 45 47  0  0  0  0  0  0  0  0999 V2000
   18.9090   19.1540    7.5370 C   0  0  0  0  0  0  0  0  0  0  0  0
   18.7730   17.6460    7.6780 C   0  0  0  0  0  0  0  0  0  0  0  0
   20.0780   16.9870    7.9540 C   0  0  0  0  0  0  0  0  0  0  0  0
   20.4630   16.2470    9.0540 C   0  0  0  0  0  0  0  0  0  0  0  0
   21.7590   15.9060    8.7900 N   0  0  0  0  0  0  0  0  0  0  0  0
   22.7290   14.9350    9.7700 S   0  0  0  0  0  6  0  0  0  0  0  0
   22.9260   13.7400    8.9620 O   0  0  0  0  0  0  0  0  0  0  0  0
   22.0260   14.8360   11.0370 O   0  0  0  0  0  0  0  0  0  0  0  0
   24.2500   15.7050   10.0020 C   0  0  0  0  0  0  0  0  0  0  0  0
   24.4660   16.4540   11.1000 C   0  0  0  0  0  0  0  0  0  0  0  0
   25.7350   17.1340   11.2990 C   0  0  0  0  0  0  0  0  0  0  0  0
   26.0380   17.9840   12.4910 C   0  0  0  0  0  0  0  0  0  0  0  0
   27.1340   18.5090   12.6510 O   0  0  0  0  0  0  0  0  0  0  0  0
   25.0170   18.0820   13.4030 N   0  0  0  0  0  0  0  0  0  0  0  0
   25.2130   18.7410   14.6880 C   0  0  1  0  0  0  0  0  0  0  0  0
   26.2290   18.0150   15.5610 C   0  0  0  0  0  0  0  0  0  0  0  0
   26.4180   18.7790   16.8620 C   0  0  0  0  0  0  0  0  0  0  0  0
   26.8180   20.2130   16.6050 C   0  0  0  0  0  0  0  0  0  0  0  0
   27.5630   20.8340   17.3570 O   0  0  0  0  0  0  0  0  0  0  0  0
   26.2780   20.8130   15.4950 N   0  0  0  0  0  0  0  0  0  0  0  0
   25.7060   20.1680   14.4280 C   0  0  0  0  0  0  0  0  0  0  0  0
   25.5890   20.7190   13.3340 O   0  0  0  0  0  0  0  0  0  0  0  0
   26.6760   17.0450   10.3460 C   0  0  0  0  0  0  0  0  0  0  0  0
   26.4600   16.2890    9.2180 N   0  0  0  0  0  0  0  0  0  0  0  0
   25.2970   15.5940    8.9660 C   0  0  0  0  0  0  0  0  0  0  0  0
   25.1520   14.9290    7.9510 O   0  0  0  0  0  0  0  0  0  0  0  0
   22.1080   16.3860    7.5700 C   0  0  0  0  0  0  0  0  0  0  0  0
   21.1110   17.0670    7.0410 N   0  0  0  0  0  0  0  0  0  0  0  0
   18.9504   19.6134    8.5356 H   0  0  0  0  0  0  0  0  0  0  0  0
   19.8320   19.3891    6.9867 H   0  0  0  0  0  0  0  0  0  0  0  0
   18.0430   19.5504    6.9867 H   0  0  0  0  0  0  0  0  0  0  0  0
   18.0840   17.4285    8.5074 H   0  0  0  0  0  0  0  0  0  0  0  0
   18.3903   17.2511    6.7253 H   0  0  0  0  0  0  0  0  0  0  0  0
   19.8635   15.9907    9.9400 H   0  0  0  0  0  0  0  0  0  0  0  0
   23.6725   16.5524   11.8554 H   0  0  0  0  0  0  0  0  0  0  0  0
   24.0954   17.6825   13.1751 H   0  0  0  0  0  0  0  0  0  0  0  0
   24.2533   18.7379   15.2256 H   0  0  0  0  0  0  0  0  0  0  0  0
   25.8647   17.0007   15.7812 H   0  0  0  0  0  0  0  0  0  0  0  0
   27.1902   17.9525   15.0298 H   0  0  0  0  0  0  0  0  0  0  0  0
   25.4732   18.7663   17.4252 H   0  0  0  0  0  0  0  0  0  0  0  0
   27.2206   18.2928   17.4359 H   0  0  0  0  0  0  0  0  0  0  0  0
   26.3047   21.8421   15.4599 H   0  0  0  0  0  0  0  0  0  0  0  0
   27.6284   17.5816   10.4685 H   0  0  0  0  0  0  0  0  0  0  0  0
   27.2140   16.2390    8.5181 H   0  0  0  0  0  0  0  0  0  0  0  0
   23.0852   16.2290    7.0899 H   0  0  0  0  0  0  0  0  0  0  0  0
  1  2  1  0
  2  3  1  0
  3  4  2  0
  4  5  1  0
  5  6  1  0
  6  7  2  0
  6  8  2  0
  6  9  1  0
  9 10  2  0
 10 11  1  0
 11 12  1  0
 12 13  2  0
 12 14  1  0
 14 15  1  0
 15 16  1  0
 16 17  1  0
 17 18  1  0
 18 19  2  0
 18 20  1  0
 20 21  1  0
 21 22  2  0
 11 23  2  0
 23 24  1  0
 24 25  1  0
 25 26  2  0
  5 27  1  0
 27 28  2  0
 28  3  1  0
 25  9  1  0
 21 15  1  0
  1 29  1  0
  1 30  1  0
  1 31  1  0
  2 32  1  0
  2 33  1  0
  4 34  1  0
 10 35  1  0
 14 36  1  0
 15 37  1  1
 16 38  1  0
 16 39  1  0
 17 40  1  0
 17 41  1  0
 20 42  1  0
 23 43  1  0
 24 44  1  0
 27 45  1  0
M  END
>  <meeko>  (1196) 
{"is_sidechain": [true], "free_energy": -10.2, "intermolecular_energy": 0.0, "internal_energy": -10.2, "cluster_size": 19, "cluster_id": 1, "rank_in_cluster": 1}

>  <_RMSD_MCS_to_ref>  (1196) 
0.5975445125214055

$$$$
ligand
     RDKit          3D

 54 58  0  0  0  0  0  0  0  0999 V2000
   18.7970   18.8170    7.7190 C   0  0  0  0  0  0  0  0  0  0  0  0
   18.5280   17.3290    7.8810 C   0  0  0  0  0  0  0  0  0  0  0  0
   19.7610   16.5710    8.2280 C   0  0  0  0  0  0  0  0  0  0  0  0
   20.9350   16.4500    7.5130 C   0  0  0  0  0  0  0  0  0  0  0  0
   21.7270   15.6610    8.2990 N   0  0  0  0  0  0  0  0  0  0  0  0
   23.2590   15.0890    7.9120 S   0  0  0  0  0  6  0  0  0  0  0  0
   24.1670   15.7850    8.8060 O   0  0  0  0  0  0  0  0  0  0  0  0
   23.3510   15.2070    6.4660 O   0  0  0  0  0  0  0  0  0  0  0  0
   23.2520   13.3670    8.3470 C   0  0  0  0  0  0  0  0  0  0  0  0
   23.1240   12.5310    7.2780 N   0  0  0  0  0  0  0  0  0  0  0  0
   23.1230   11.2110    7.5450 C   0  0  0  0  0  0  0  0  0  0  0  0
   23.2450   10.6910    8.8210 C   0  0  0  0  0  0  0  0  0  0  0  0
   23.3730   11.5760    9.8930 C   0  0  0  0  0  0  0  0  0  0  0  0
   23.3770   12.9610    9.6770 C   0  0  0  0  0  0  0  0  0  0  0  0
   23.5120   13.8780   10.8130 C   0  0  0  0  0  0  0  0  0  0  0  0
   22.4620   14.0120   11.7600 C   0  0  0  0  0  0  0  0  0  0  0  0
   22.5620   14.8880   12.8490 C   0  0  0  0  0  0  0  0  0  0  0  0
   23.7280   15.6160   12.9660 C   0  0  0  0  0  0  0  0  0  0  0  0
   24.7600   15.4910   12.0580 C   0  0  0  0  0  0  0  0  0  0  0  0
   24.6890   14.6310   10.9770 C   0  0  0  0  0  0  0  0  0  0  0  0
   25.8360   16.3810   12.4870 C   0  0  0  0  0  0  0  0  0  0  0  0
   26.9190   16.4520   11.9380 O   0  0  0  0  0  0  0  0  0  0  0  0
   25.3820   17.0380   13.5980 N   0  0  0  0  0  0  0  0  0  0  0  0
   26.1890   17.9100   14.4370 C   0  0  2  0  0  0  0  0  0  0  0  0
   25.9840   17.7050   15.9350 C   0  0  0  0  0  0  0  0  0  0  0  0
   26.9050   18.6450   16.7000 C   0  0  0  0  0  0  0  0  0  0  0  0
   26.6770   20.0840   16.2990 C   0  0  0  0  0  0  0  0  0  0  0  0
   26.8870   21.0190   17.0650 O   0  0  0  0  0  0  0  0  0  0  0  0
   26.2730   20.3060   15.0060 N   0  0  0  0  0  0  0  0  0  0  0  0
   25.9140   19.3700   14.0620 C   0  0  0  0  0  0  0  0  0  0  0  0
   25.4550   19.7250   12.9760 O   0  0  0  0  0  0  0  0  0  0  0  0
   24.1430   16.5910   13.9710 C   0  0  0  0  0  0  0  0  0  0  0  0
   23.4780   16.9050   14.9390 O   0  0  0  0  0  0  0  0  0  0  0  0
   21.0310   15.2990    9.4090 C   0  0  0  0  0  0  0  0  0  0  0  0
   19.8340   15.8500    9.4050 N   0  0  0  0  0  0  0  0  0  0  0  0
   18.8815   19.2845    8.7111 H   0  0  0  0  0  0  0  0  0  0  0  0
   19.7359   18.9616    7.1643 H   0  0  0  0  0  0  0  0  0  0  0  0
   17.9682   19.2812    7.1643 H   0  0  0  0  0  0  0  0  0  0  0  0
   17.7876   17.1877    8.6822 H   0  0  0  0  0  0  0  0  0  0  0  0
   18.1545   16.9460    6.9199 H   0  0  0  0  0  0  0  0  0  0  0  0
   21.1779   16.8885    6.5339 H   0  0  0  0  0  0  0  0  0  0  0  0
   23.0197   10.5094    6.7041 H   0  0  0  0  0  0  0  0  0  0  0  0
   23.2412    9.6037    8.9874 H   0  0  0  0  0  0  0  0  0  0  0  0
   23.4715   11.1832   10.9157 H   0  0  0  0  0  0  0  0  0  0  0  0
   21.5477   13.4133   11.6354 H   0  0  0  0  0  0  0  0  0  0  0  0
   21.7458   14.9908   13.5793 H   0  0  0  0  0  0  0  0  0  0  0  0
   25.5255   14.5388   10.2687 H   0  0  0  0  0  0  0  0  0  0  0  0
   27.2390   17.6453   14.2433 H   0  0  0  0  0  0  0  0  0  0  0  0
   24.9377   17.9220   16.1962 H   0  0  0  0  0  0  0  0  0  0  0  0
   26.2165   16.6631   16.2004 H   0  0  0  0  0  0  0  0  0  0  0  0
   26.7111   18.5383   17.7775 H   0  0  0  0  0  0  0  0  0  0  0  0
   27.9460   18.3795   16.4637 H   0  0  0  0  0  0  0  0  0  0  0  0
   26.2337   21.2906   14.7060 H   0  0  0  0  0  0  0  0  0  0  0  0
   21.4137   14.6380   10.2006 H   0  0  0  0  0  0  0  0  0  0  0  0
  1  2  1  0
  2  3  1  0
  3  4  2  0
  4  5  1  0
  5  6  1  0
  6  7  2  0
  6  8  2  0
  6  9  1  0
  9 10  2  0
 10 11  1  0
 11 12  2  0
 12 13  1  0
 13 14  2  0
 14 15  1  0
 15 16  2  0
 16 17  1  0
 17 18  2  0
 18 19  1  0
 19 20  2  0
 19 21  1  0
 21 22  2  0
 21 23  1  0
 23 24  1  0
 24 25  1  0
 25 26  1  0
 26 27  1  0
 27 28  2  0
 27 29  1  0
 29 30  1  0
 30 31  2  0
 23 32  1  0
 32 33  2  0
  5 34  1  0
 34 35  2  0
 35  3  1  0
 14  9  1  0
 20 15  1  0
 30 24  1  0
 32 18  1  0
  1 36  1  0
  1 37  1  0
  1 38  1  0
  2 39  1  0
  2 40  1  0
  4 41  1  0
 11 42  1  0
 12 43  1  0
 13 44  1  0
 16 45  1  0
 17 46  1  0
 20 47  1  0
 24 48  1  1
 25 49  1  0
 25 50  1  0
 26 51  1  0
 26 52  1  0
 29 53  1  0
 34 54  1  0
M  END
>  <meeko>  (1197) 
{"is_sidechain": [true], "free_energy": -10.19, "intermolecular_energy": 0.0, "internal_energy": -10.19, "cluster_size": 19, "cluster_id": 1, "rank_in_cluster": 1}

>  <_RMSD_MCS_to_ref>  (1197) 
1.987638017569821

$$$$
ligand
     RDKit          3D

 48 51  0  0  0  0  0  0  0  0999 V2000
   18.7970   18.8170    7.7190 C   0  0  0  0  0  0  0  0  0  0  0  0
   18.5280   17.3290    7.8810 C   0  0  0  0  0  0  0  0  0  0  0  0
   19.7850   16.5360    7.9520 C   0  0  0  0  0  0  0  0  0  0  0  0
   20.2670   15.7620    8.9890 C   0  0  0  0  0  0  0  0  0  0  0  0
   21.4360   15.2480    8.5080 N   0  0  0  0  0  0  0  0  0  0  0  0
   22.5400   14.3280    9.3660 S   0  0  0  0  0  6  0  0  0  0  0  0
   22.7640   13.1200    8.5930 O   0  0  0  0  0  0  0  0  0  0  0  0
   23.6160   15.2220    9.7500 O   0  0  0  0  0  0  0  0  0  0  0  0
   21.8310   13.7970   10.8550 C   0  0  0  0  0  0  0  0  0  0  0  0
   20.7110   13.0570   10.9250 N   0  0  0  0  0  0  0  0  0  0  0  0
   20.5230   12.8960   12.2480 N   0  0  0  0  0  0  0  0  0  0  0  0
   21.4780   13.4980   13.0260 C   0  0  0  0  0  0  0  0  0  0  0  0
   21.6270   13.5660   14.4140 C   0  0  0  0  0  0  0  0  0  0  0  0
   22.7280   14.2780   14.9020 C   0  0  0  0  0  0  0  0  0  0  0  0
   23.6470   14.8870   14.0360 C   0  0  0  0  0  0  0  0  0  0  0  0
   24.7890   15.6300   14.6380 C   0  0  0  0  0  0  0  0  0  0  0  0
   25.7990   15.0340   14.9930 O   0  0  0  0  0  0  0  0  0  0  0  0
   24.6540   16.9980   14.7350 N   0  0  0  0  0  0  0  0  0  0  0  0
   25.7650   17.8290   15.1770 C   0  0  2  0  0  0  0  0  0  0  0  0
   25.9790   17.7490   16.6850 C   0  0  0  0  0  0  0  0  0  0  0  0
   27.1270   18.6630   17.0840 C   0  0  0  0  0  0  0  0  0  0  0  0
   26.8840   20.0820   16.6250 C   0  0  0  0  0  0  0  0  0  0  0  0
   27.2830   21.0560   17.2580 O   0  0  0  0  0  0  0  0  0  0  0  0
   26.2190   20.2390   15.4360 N   0  0  0  0  0  0  0  0  0  0  0  0
   25.4750   19.2820   14.7890 C   0  0  0  0  0  0  0  0  0  0  0  0
   24.6440   19.5910   13.9370 O   0  0  0  0  0  0  0  0  0  0  0  0
   23.4660   14.8160   12.6440 C   0  0  0  0  0  0  0  0  0  0  0  0
   22.3610   14.1020   12.1360 C   0  0  0  0  0  0  0  0  0  0  0  0
   21.6640   15.7480    7.2670 C   0  0  0  0  0  0  0  0  0  0  0  0
   20.6650   16.5170    6.8880 N   0  0  0  0  0  0  0  0  0  0  0  0
   18.8815   19.2845    8.7111 H   0  0  0  0  0  0  0  0  0  0  0  0
   19.7359   18.9616    7.1643 H   0  0  0  0  0  0  0  0  0  0  0  0
   17.9682   19.2812    7.1643 H   0  0  0  0  0  0  0  0  0  0  0  0
   17.9564   17.1710    8.8075 H   0  0  0  0  0  0  0  0  0  0  0  0
   17.9634   16.9896    7.0001 H   0  0  0  0  0  0  0  0  0  0  0  0
   19.8125   15.5974    9.9771 H   0  0  0  0  0  0  0  0  0  0  0  0
   19.7315   12.3672   12.6413 H   0  0  0  0  0  0  0  0  0  0  0  0
   20.9101   13.0810   15.0929 H   0  0  0  0  0  0  0  0  0  0  0  0
   22.8758   14.3618   15.9888 H   0  0  0  0  0  0  0  0  0  0  0  0
   23.7553   17.4385   14.4916 H   0  0  0  0  0  0  0  0  0  0  0  0
   26.6805   17.4620   14.6901 H   0  0  0  0  0  0  0  0  0  0  0  0
   25.0615   18.0655   17.2027 H   0  0  0  0  0  0  0  0  0  0  0  0
   26.2205   16.7134   16.9663 H   0  0  0  0  0  0  0  0  0  0  0  0
   27.2288   18.6531   18.1792 H   0  0  0  0  0  0  0  0  0  0  0  0
   28.0462   18.2955   16.6044 H   0  0  0  0  0  0  0  0  0  0  0  0
   26.2834   21.1627   14.9848 H   0  0  0  0  0  0  0  0  0  0  0  0
   24.1744   15.3091   11.9622 H   0  0  0  0  0  0  0  0  0  0  0  0
   22.5589   15.5397    6.6622 H   0  0  0  0  0  0  0  0  0  0  0  0
  1  2  1  0
  2  3  1  0
  3  4  2  0
  4  5  1  0
  5  6  1  0
  6  7  2  0
  6  8  2  0
  6  9  1  0
  9 10  2  0
 10 11  1  0
 11 12  1  0
 12 13  2  0
 13 14  1  0
 14 15  2  0
 15 16  1  0
 16 17  2  0
 16 18  1  0
 18 19  1  0
 19 20  1  0
 20 21  1  0
 21 22  1  0
 22 23  2  0
 22 24  1  0
 24 25  1  0
 25 26  2  0
 15 27  1  0
 27 28  2  0
  5 29  1  0
 29 30  2  0
 30  3  1  0
 28  9  1  0
 28 12  1  0
 25 19  1  0
  1 31  1  0
  1 32  1  0
  1 33  1  0
  2 34  1  0
  2 35  1  0
  4 36  1  0
 11 37  1  0
 13 38  1  0
 14 39  1  0
 18 40  1  0
 19 41  1  6
 20 42  1  0
 20 43  1  0
 21 44  1  0
 21 45  1  0
 24 46  1  0
 27 47  1  0
 29 48  1  0
M  END
>  <meeko>  (1198) 
{"is_sidechain": [true], "free_energy": -10.19, "intermolecular_energy": 0.0, "internal_energy": -10.19, "cluster_size": 12, "cluster_id": 1, "rank_in_cluster": 1}

>  <_RMSD_MCS_to_ref>  (1198) 
0.6416781817148595

$$$$
ligand
     RDKit          3D

 44 47  0  0  0  0  0  0  0  0999 V2000
   18.7970   18.8170    7.7190 C   0  0  0  0  0  0  0  0  0  0  0  0
   18.5280   17.3290    7.8810 C   0  0  0  0  0  0  0  0  0  0  0  0
   19.7820   16.5270    7.8680 C   0  0  0  0  0  0  0  0  0  0  0  0
   20.6220   16.2100    8.9180 C   0  0  0  0  0  0  0  0  0  0  0  0
   21.6160   15.4750    8.3400 N   0  0  0  0  0  0  0  0  0  0  0  0
   22.8420   14.6740    9.1480 S   0  0  0  0  0  6  0  0  0  0  0  0
   23.8790   15.6540    9.4050 O   0  0  0  0  0  0  0  0  0  0  0  0
   23.0980   13.4520    8.4100 O   0  0  0  0  0  0  0  0  0  0  0  0
   22.2810   14.1700   10.7060 C   0  0  0  0  0  0  0  0  0  0  0  0
   21.2170   13.4190   10.9620 N   0  0  0  0  0  0  0  0  0  0  0  0
   21.1230   13.2500   12.3400 N   0  0  0  0  0  0  0  0  0  0  0  0
   22.1320   13.9020   12.8450 C   0  0  0  0  0  0  0  0  0  0  0  0
   22.7580   14.2080   14.4290 S   0  0  0  0  0  0  0  0  0  0  0  0
   24.0530   15.1510   13.6780 C   0  0  0  0  0  0  0  0  0  0  0  0
   25.1190   15.8170   14.4670 C   0  0  0  0  0  0  0  0  0  0  0  0
   26.0060   15.1660   15.0090 O   0  0  0  0  0  0  0  0  0  0  0  0
   25.0460   17.1820   14.5290 N   0  0  0  0  0  0  0  0  0  0  0  0
   26.0930   17.9840   15.1460 C   0  0  2  0  0  0  0  0  0  0  0  0
   26.1490   17.7940   16.6580 C   0  0  0  0  0  0  0  0  0  0  0  0
   27.2360   18.6840   17.2410 C   0  0  0  0  0  0  0  0  0  0  0  0
   27.0250   20.1300   16.8620 C   0  0  0  0  0  0  0  0  0  0  0  0
   27.3220   21.0580   17.6090 O   0  0  0  0  0  0  0  0  0  0  0  0
   26.5030   20.3680   15.6150 N   0  0  0  0  0  0  0  0  0  0  0  0
   25.8250   19.4610   14.8400 C   0  0  0  0  0  0  0  0  0  0  0  0
   25.0580   19.8290   13.9500 O   0  0  0  0  0  0  0  0  0  0  0  0
   23.9730   15.2010   12.3350 C   0  0  0  0  0  0  0  0  0  0  0  0
   22.8860   14.4930   11.8800 N   0  0  0  0  0  0  0  0  0  0  0  0
   21.3410   15.3120    7.0200 C   0  0  0  0  0  0  0  0  0  0  0  0
   20.2450   15.9650    6.6950 N   0  0  0  0  0  0  0  0  0  0  0  0
   18.8815   19.2845    8.7111 H   0  0  0  0  0  0  0  0  0  0  0  0
   19.7359   18.9616    7.1643 H   0  0  0  0  0  0  0  0  0  0  0  0
   17.9682   19.2812    7.1643 H   0  0  0  0  0  0  0  0  0  0  0  0
   18.0119   17.1643    8.8384 H   0  0  0  0  0  0  0  0  0  0  0  0
   17.9094   17.0029    7.0319 H   0  0  0  0  0  0  0  0  0  0  0  0
   20.5143   16.4866    9.9772 H   0  0  0  0  0  0  0  0  0  0  0  0
   24.2252   17.6568   14.1268 H   0  0  0  0  0  0  0  0  0  0  0  0
   27.0586   17.6588   14.7315 H   0  0  0  0  0  0  0  0  0  0  0  0
   25.1779   18.0653   17.0978 H   0  0  0  0  0  0  0  0  0  0  0  0
   26.3744   16.7420   16.8872 H   0  0  0  0  0  0  0  0  0  0  0  0
   27.2215   18.5954   18.3373 H   0  0  0  0  0  0  0  0  0  0  0  0
   28.2053   18.3575   16.8362 H   0  0  0  0  0  0  0  0  0  0  0  0
   26.6319   21.3129   15.2258 H   0  0  0  0  0  0  0  0  0  0  0  0
   24.6829   15.7370   11.6879 H   0  0  0  0  0  0  0  0  0  0  0  0
   21.9483   14.7182    6.3211 H   0  0  0  0  0  0  0  0  0  0  0  0
  1  2  1  0
  2  3  1  0
  3  4  2  0
  4  5  1  0
  5  6  1  0
  6  7  2  0
  6  8  2  0
  6  9  1  0
  9 10  2  0
 10 11  1  0
 11 12  2  0
 12 13  1  0
 13 14  1  0
 14 15  1  0
 15 16  2  0
 15 17  1  0
 17 18  1  0
 18 19  1  0
 19 20  1  0
 20 21  1  0
 21 22  2  0
 21 23  1  0
 23 24  1  0
 24 25  2  0
 14 26  2  0
 26 27  1  0
  5 28  1  0
 28 29  2  0
 29  3  1  0
 27  9  1  0
 27 12  1  0
 24 18  1  0
  1 30  1  0
  1 31  1  0
  1 32  1  0
  2 33  1  0
  2 34  1  0
  4 35  1  0
 17 36  1  0
 18 37  1  6
 19 38  1  0
 19 39  1  0
 20 40  1  0
 20 41  1  0
 23 42  1  0
 26 43  1  0
 28 44  1  0
M  END
>  <meeko>  (1199) 
{"is_sidechain": [true], "free_energy": -10.19, "intermolecular_energy": 0.0, "internal_energy": -10.19, "cluster_size": 16, "cluster_id": 1, "rank_in_cluster": 1}

>  <_RMSD_MCS_to_ref>  (1199) 
0.6851603218712147

$$$$
ligand
     RDKit          3D

 46 49  0  0  0  0  0  0  0  0999 V2000
   18.7970   18.8170    7.7190 C   0  0  0  0  0  0  0  0  0  0  0  0
   18.5280   17.3290    7.8810 C   0  0  0  0  0  0  0  0  0  0  0  0
   19.7710   16.5590    8.1540 C   0  0  0  0  0  0  0  0  0  0  0  0
   20.3220   16.1960    9.3660 C   0  0  0  0  0  0  0  0  0  0  0  0
   21.4680   15.5330    9.0310 N   0  0  0  0  0  0  0  0  0  0  0  0
   22.4500   14.6750   10.0930 S   0  0  0  0  0  6  0  0  0  0  0  0
   22.5470   13.3360    9.5440 O   0  0  0  0  0  0  0  0  0  0  0  0
   21.9130   14.9220   11.4100 O   0  0  0  0  0  0  0  0  0  0  0  0
   24.0370   15.4310    9.9230 C   0  0  0  0  0  0  0  0  0  0  0  0
   24.6790   15.3680    8.6740 C   0  0  0  0  0  0  0  0  0  0  0  0
   25.9360   15.9670    8.4820 C   0  0  0  0  0  0  0  0  0  0  0  0
   26.5700   16.6330    9.5300 C   0  0  0  0  0  0  0  0  0  0  0  0
   25.9350   16.6680   10.7650 C   0  0  0  0  0  0  0  0  0  0  0  0
   24.6970   16.0610   10.9600 C   0  0  0  0  0  0  0  0  0  0  0  0
   24.1760   16.2950   12.6000 S   0  0  0  0  0  6  0  0  0  0  0  0
   24.2560   15.0430   13.3110 O   0  0  0  0  0  0  0  0  0  0  0  0
   23.0310   17.1700   12.5940 O   0  0  0  0  0  0  0  0  0  0  0  0
   25.5400   17.1840   13.0220 N   0  0  0  0  0  0  0  0  0  0  0  0
   25.4730   17.9900   14.2480 C   0  0  1  0  0  0  0  0  0  0  0  0
   26.5320   17.5330   15.2450 C   0  0  0  0  0  0  0  0  0  0  0  0
   26.4720   18.4100   16.4860 C   0  0  0  0  0  0  0  0  0  0  0  0
   26.6390   19.8700   16.1330 C   0  0  0  0  0  0  0  0  0  0  0  0
   27.1350   20.6810   16.9080 O   0  0  0  0  0  0  0  0  0  0  0  0
   26.1500   20.2640   14.9130 N   0  0  0  0  0  0  0  0  0  0  0  0
   25.6600   19.4660   13.9050 C   0  0  0  0  0  0  0  0  0  0  0  0
   25.3720   19.9480   12.8090 O   0  0  0  0  0  0  0  0  0  0  0  0
   26.4500   17.3600   11.9600 C   0  0  0  0  0  0  0  0  0  0  0  0
   27.4860   17.9930   12.0160 O   0  0  0  0  0  0  0  0  0  0  0  0
   21.5660   15.4700    7.6790 C   0  0  0  0  0  0  0  0  0  0  0  0
   20.5490   16.0890    7.1150 N   0  0  0  0  0  0  0  0  0  0  0  0
   18.8815   19.2845    8.7111 H   0  0  0  0  0  0  0  0  0  0  0  0
   19.7359   18.9616    7.1643 H   0  0  0  0  0  0  0  0  0  0  0  0
   17.9682   19.2812    7.1643 H   0  0  0  0  0  0  0  0  0  0  0  0
   17.8306   17.1844    8.7193 H   0  0  0  0  0  0  0  0  0  0  0  0
   18.1021   16.9584    6.9369 H   0  0  0  0  0  0  0  0  0  0  0  0
   19.9277   16.3954   10.3733 H   0  0  0  0  0  0  0  0  0  0  0  0
   24.1924   14.8443    7.8379 H   0  0  0  0  0  0  0  0  0  0  0  0
   26.4232   15.9099    7.4974 H   0  0  0  0  0  0  0  0  0  0  0  0
   27.5465   17.1176    9.3829 H   0  0  0  0  0  0  0  0  0  0  0  0
   24.4850   17.8547   14.7123 H   0  0  0  0  0  0  0  0  0  0  0  0
   26.3435   16.4864   15.5262 H   0  0  0  0  0  0  0  0  0  0  0  0
   27.5280   17.6155   14.7855 H   0  0  0  0  0  0  0  0  0  0  0  0
   25.4983   18.2691   16.9780 H   0  0  0  0  0  0  0  0  0  0  0  0
   27.2925   18.1184   17.1582 H   0  0  0  0  0  0  0  0  0  0  0  0
   26.1497   21.2776   14.7301 H   0  0  0  0  0  0  0  0  0  0  0  0
   22.3798   14.9723    7.1313 H   0  0  0  0  0  0  0  0  0  0  0  0
  1  2  1  0
  2  3  1  0
  3  4  2  0
  4  5  1  0
  5  6  1  0
  6  7  2  0
  6  8  2  0
  6  9  1  0
  9 10  2  0
 10 11  1  0
 11 12  2  0
 12 13  1  0
 13 14  2  0
 14 15  1  0
 15 16  2  0
 15 17  2  0
 15 18  1  0
 18 19  1  0
 19 20  1  0
 20 21  1  0
 21 22  1  0
 22 23  2  0
 22 24  1  0
 24 25  1  0
 25 26  2  0
 18 27  1  0
 27 28  2  0
  5 29  1  0
 29 30  2  0
 30  3  1  0
 14  9  1  0
 25 19  1  0
 27 13  1  0
  1 31  1  0
  1 32  1  0
  1 33  1  0
  2 34  1  0
  2 35  1  0
  4 36  1  0
 10 37  1  0
 11 38  1  0
 12 39  1  0
 19 40  1  1
 20 41  1  0
 20 42  1  0
 21 43  1  0
 21 44  1  0
 24 45  1  0
 29 46  1  0
M  END
>  <meeko>  (1200) 
{"is_sidechain": [true], "free_energy": -10.19, "intermolecular_energy": 0.0, "internal_energy": -10.19, "cluster_size": 20, "cluster_id": 1, "rank_in_cluster": 1}

>  <_RMSD_MCS_to_ref>  (1200) 
0.7834965078274297

$$$$
ligand
     RDKit          3D

 53 57  0  0  0  0  0  0  0  0999 V2000
   18.7970   18.8160    7.7190 C   0  0  0  0  0  0  0  0  0  0  0  0
   18.5280   17.3300    7.8810 C   0  0  0  0  0  0  0  0  0  0  0  0
   19.7300   16.5000    7.5950 C   0  0  0  0  0  0  0  0  0  0  0  0
   20.3910   15.6230    8.4330 C   0  0  0  0  0  0  0  0  0  0  0  0
   21.4240   15.1540    7.6770 N   0  0  0  0  0  0  0  0  0  0  0  0
   22.6950   14.1980    8.1990 S   0  0  0  0  0  6  0  0  0  0  0  0
   23.5110   15.0580    9.0350 O   0  0  0  0  0  0  0  0  0  0  0  0
   23.2100   13.5000    7.0390 O   0  0  0  0  0  0  0  0  0  0  0  0
   22.1380   12.9650    9.2440 C   0  0  0  0  0  0  0  0  0  0  0  0
   21.2050   12.0110    8.9030 C   0  0  0  0  0  0  0  0  0  0  0  0
   20.9960   11.1660    9.9450 O   0  0  0  0  0  0  0  0  0  0  0  0
   21.7900   11.5890   10.9630 C   0  0  0  0  0  0  0  0  0  0  0  0
   22.5160   12.7010   10.5870 C   0  0  0  0  0  0  0  0  0  0  0  0
   23.4410   13.3700   11.4730 C   0  0  0  0  0  0  0  0  0  0  0  0
   24.8000   12.9800   11.4880 C   0  0  0  0  0  0  0  0  0  0  0  0
   25.7340   13.6390   12.2980 C   0  0  0  0  0  0  0  0  0  0  0  0
   25.2870   14.6830   13.0880 C   0  0  0  0  0  0  0  0  0  0  0  0
   23.9430   15.0510   13.0710 C   0  0  0  0  0  0  0  0  0  0  0  0
   22.9980   14.4200   12.2820 C   0  0  0  0  0  0  0  0  0  0  0  0
   23.7720   16.1910   13.9750 C   0  0  0  0  0  0  0  0  0  0  0  0
   22.7340   16.7990   14.1420 O   0  0  0  0  0  0  0  0  0  0  0  0
   25.0060   16.4270   14.5640 N   0  0  0  0  0  0  0  0  0  0  0  0
   25.2770   17.6460   15.3160 C   0  0  1  0  0  0  0  0  0  0  0  0
   26.2100   17.4090   16.4980 C   0  0  0  0  0  0  0  0  0  0  0  0
   26.3730   18.7050   17.2800 C   0  0  0  0  0  0  0  0  0  0  0  0
   26.8630   19.8220   16.3880 C   0  0  0  0  0  0  0  0  0  0  0  0
   27.6440   20.6820   16.7810 O   0  0  0  0  0  0  0  0  0  0  0  0
   26.3770   19.8390   15.1050 N   0  0  0  0  0  0  0  0  0  0  0  0
   25.8670   18.7550   14.4270 C   0  0  0  0  0  0  0  0  0  0  0  0
   25.9120   18.7140   13.2000 O   0  0  0  0  0  0  0  0  0  0  0  0
   26.0510   15.5790   14.0040 C   0  0  0  0  0  0  0  0  0  0  0  0
   21.3700   15.7220    6.4440 C   0  0  0  0  0  0  0  0  0  0  0  0
   20.3530   16.5540    6.3640 N   0  0  0  0  0  0  0  0  0  0  0  0
   18.8816   19.2836    8.7111 H   0  0  0  0  0  0  0  0  0  0  0  0
   19.7359   18.9603    7.1643 H   0  0  0  0  0  0  0  0  0  0  0  0
   17.9683   19.2803    7.1643 H   0  0  0  0  0  0  0  0  0  0  0  0
   18.2060   17.1403    8.9156 H   0  0  0  0  0  0  0  0  0  0  0  0
   17.7480   17.0501    7.1576 H   0  0  0  0  0  0  0  0  0  0  0  0
   20.1411   15.3627    9.4721 H   0  0  0  0  0  0  0  0  0  0  0  0
   20.7017   11.9434    7.9272 H   0  0  0  0  0  0  0  0  0  0  0  0
   21.8466   11.1106   11.9519 H   0  0  0  0  0  0  0  0  0  0  0  0
   25.1296   12.1447   10.8527 H   0  0  0  0  0  0  0  0  0  0  0  0
   26.7912   13.3354   12.3056 H   0  0  0  0  0  0  0  0  0  0  0  0
   21.9430   14.7314   12.2910 H   0  0  0  0  0  0  0  0  0  0  0  0
   24.2996   17.9733   15.7001 H   0  0  0  0  0  0  0  0  0  0  0  0
   25.7830   16.6358   17.1536 H   0  0  0  0  0  0  0  0  0  0  0  0
   27.1916   17.0751   16.1306 H   0  0  0  0  0  0  0  0  0  0  0  0
   25.4014   18.9892   17.7105 H   0  0  0  0  0  0  0  0  0  0  0  0
   27.1158   18.5418   18.0748 H   0  0  0  0  0  0  0  0  0  0  0  0
   26.3953   20.7401   14.6064 H   0  0  0  0  0  0  0  0  0  0  0  0
   26.7916   16.1747   13.4503 H   0  0  0  0  0  0  0  0  0  0  0  0
   26.6287   15.0356   14.7662 H   0  0  0  0  0  0  0  0  0  0  0  0
   22.0770   15.5156    5.6270 H   0  0  0  0  0  0  0  0  0  0  0  0
  1  2  1  0
  2  3  1  0
  3  4  2  0
  4  5  1  0
  5  6  1  0
  6  7  2  0
  6  8  2  0
  6  9  1  0
  9 10  2  0
 10 11  1  0
 11 12  1  0
 12 13  2  0
 13 14  1  0
 14 15  2  0
 15 16  1  0
 16 17  2  0
 17 18  1  0
 18 19  2  0
 18 20  1  0
 20 21  2  0
 20 22  1  0
 22 23  1  0
 23 24  1  0
 24 25  1  0
 25 26  1  0
 26 27  2  0
 26 28  1  0
 28 29  1  0
 29 30  2  0
 22 31  1  0
  5 32  1  0
 32 33  2  0
 33  3  1  0
 13  9  1  0
 19 14  1  0
 29 23  1  0
 31 17  1  0
  1 34  1  0
  1 35  1  0
  1 36  1  0
  2 37  1  0
  2 38  1  0
  4 39  1  0
 10 40  1  0
 12 41  1  0
 15 42  1  0
 16 43  1  0
 19 44  1  0
 23 45  1  1
 24 46  1  0
 24 47  1  0
 25 48  1  0
 25 49  1  0
 28 50  1  0
 31 51  1  0
 31 52  1  0
 32 53  1  0
M  END
>  <meeko>  (1201) 
{"is_sidechain": [true], "free_energy": -10.19, "intermolecular_energy": 0.0, "internal_energy": -10.19, "cluster_size": 20, "cluster_id": 1, "rank_in_cluster": 1}

>  <_RMSD_MCS_to_ref>  (1201) 
1.3769390771643542

$$$$
ligand
     RDKit          3D

 49 52  0  0  0  0  0  0  0  0999 V2000
   18.9090   19.1540    7.5370 C   0  0  0  0  0  0  0  0  0  0  0  0
   18.7730   17.6460    7.6780 C   0  0  0  0  0  0  0  0  0  0  0  0
   20.0630   16.9430    7.4450 C   0  0  0  0  0  0  0  0  0  0  0  0
   21.1600   16.8400    8.2770 C   0  0  0  0  0  0  0  0  0  0  0  0
   22.0510   16.0880    7.5670 N   0  0  0  0  0  0  0  0  0  0  0  0
   23.5210   15.5090    8.1370 S   0  0  0  0  0  6  0  0  0  0  0  0
   24.1770   16.6730    8.7070 O   0  0  0  0  0  0  0  0  0  0  0  0
   24.1100   14.7430    7.0580 O   0  0  0  0  0  0  0  0  0  0  0  0
   23.0660   14.4050    9.4460 C   0  0  0  0  0  0  0  0  0  0  0  0
   22.4470   13.1880    9.1110 C   0  0  0  0  0  0  0  0  0  0  0  0
   22.1010   12.2730   10.1020 C   0  0  0  0  0  0  0  0  0  0  0  0
   22.3580   12.5430   11.4470 C   0  0  0  0  0  0  0  0  0  0  0  0
   22.9600   13.7650   11.7650 C   0  0  0  0  0  0  0  0  0  0  0  0
   23.3130   14.2770   12.9910 N   0  0  0  0  0  0  0  0  0  0  0  0
   23.8670   15.5300   12.8670 C   0  0  0  0  0  0  0  0  0  0  0  0
   24.3130   16.2680   14.0260 C   0  0  0  0  0  0  0  0  0  0  0  0
   24.4460   15.7390   15.1250 O   0  0  0  0  0  0  0  0  0  0  0  0
   24.5730   17.5980   13.8180 N   0  0  0  0  0  0  0  0  0  0  0  0
   24.9030   18.4960   14.9130 C   0  0  1  0  0  0  0  0  0  0  0  0
   25.9550   17.9060   15.8480 C   0  0  0  0  0  0  0  0  0  0  0  0
   26.2770   18.9090   16.9460 C   0  0  0  0  0  0  0  0  0  0  0  0
   26.7150   20.2340   16.3680 C   0  0  0  0  0  0  0  0  0  0  0  0
   27.5420   20.9530   16.9220 O   0  0  0  0  0  0  0  0  0  0  0  0
   26.1170   20.6220   15.1950 N   0  0  0  0  0  0  0  0  0  0  0  0
   25.4400   19.8050   14.3260 C   0  0  0  0  0  0  0  0  0  0  0  0
   25.2720   20.1240   13.1500 O   0  0  0  0  0  0  0  0  0  0  0  0
   23.8690   15.8200   11.5120 C   0  0  0  0  0  0  0  0  0  0  0  0
   23.3150   14.7120   10.8020 C   0  0  0  0  0  0  0  0  0  0  0  0
   21.5030   15.7620    6.3680 C   0  0  0  0  0  0  0  0  0  0  0  0
   20.2890   16.2610    6.2640 N   0  0  0  0  0  0  0  0  0  0  0  0
   18.9504   19.6134    8.5356 H   0  0  0  0  0  0  0  0  0  0  0  0
   19.8320   19.3891    6.9867 H   0  0  0  0  0  0  0  0  0  0  0  0
   18.0430   19.5504    6.9867 H   0  0  0  0  0  0  0  0  0  0  0  0
   18.4220   17.4152    8.6946 H   0  0  0  0  0  0  0  0  0  0  0  0
   18.0563   17.2984    6.9194 H   0  0  0  0  0  0  0  0  0  0  0  0
   21.2871   17.2667    9.2829 H   0  0  0  0  0  0  0  0  0  0  0  0
   22.2342   12.9566    8.0569 H   0  0  0  0  0  0  0  0  0  0  0  0
   21.6188   11.3250    9.8211 H   0  0  0  0  0  0  0  0  0  0  0  0
   22.0956   11.8182   12.2317 H   0  0  0  0  0  0  0  0  0  0  0  0
   23.1799   13.7859   13.8866 H   0  0  0  0  0  0  0  0  0  0  0  0
   24.5334   17.9716   12.8590 H   0  0  0  0  0  0  0  0  0  0  0  0
   23.9891   18.6642   15.5016 H   0  0  0  0  0  0  0  0  0  0  0  0
   25.5673   16.9806   16.2989 H   0  0  0  0  0  0  0  0  0  0  0  0
   26.8681   17.6811   15.2774 H   0  0  0  0  0  0  0  0  0  0  0  0
   25.3795   19.0661   17.5622 H   0  0  0  0  0  0  0  0  0  0  0  0
   27.1007   18.5060   17.5536 H   0  0  0  0  0  0  0  0  0  0  0  0
   26.1828   21.6188   14.9442 H   0  0  0  0  0  0  0  0  0  0  0  0
   24.2372   16.7516   11.0576 H   0  0  0  0  0  0  0  0  0  0  0  0
   22.0035   15.1644    5.5919 H   0  0  0  0  0  0  0  0  0  0  0  0
  1  2  1  0
  2  3  1  0
  3  4  2  0
  4  5  1  0
  5  6  1  0
  6  7  2  0
  6  8  2  0
  6  9  1  0
  9 10  2  0
 10 11  1  0
 11 12  2  0
 12 13  1  0
 13 14  1  0
 14 15  1  0
 15 16  1  0
 16 17  2  0
 16 18  1  0
 18 19  1  0
 19 20  1  0
 20 21  1  0
 21 22  1  0
 22 23  2  0
 22 24  1  0
 24 25  1  0
 25 26  2  0
 15 27  2  0
 27 28  1  0
  5 29  1  0
 29 30  2  0
 30  3  1  0
 28  9  1  0
 28 13  2  0
 25 19  1  0
  1 31  1  0
  1 32  1  0
  1 33  1  0
  2 34  1  0
  2 35  1  0
  4 36  1  0
 10 37  1  0
 11 38  1  0
 12 39  1  0
 14 40  1  0
 18 41  1  0
 19 42  1  1
 20 43  1  0
 20 44  1  0
 21 45  1  0
 21 46  1  0
 24 47  1  0
 27 48  1  0
 29 49  1  0
M  END
>  <meeko>  (1202) 
{"is_sidechain": [true], "free_energy": -10.19, "intermolecular_energy": 0.0, "internal_energy": -10.19, "cluster_size": 20, "cluster_id": 1, "rank_in_cluster": 1}

>  <_RMSD_MCS_to_ref>  (1202) 
0.37306768822828895

$$$$
ligand
     RDKit          3D

 47 50  0  0  0  0  0  0  0  0999 V2000
   18.9090   19.1540    7.5370 C   0  0  0  0  0  0  0  0  0  0  0  0
   18.7730   17.6460    7.6780 C   0  0  0  0  0  0  0  0  0  0  0  0
   20.0580   16.9900    8.0470 C   0  0  0  0  0  0  0  0  0  0  0  0
   20.3290   16.1730    9.1270 C   0  0  0  0  0  0  0  0  0  0  0  0
   21.6540   15.8680    8.9950 N   0  0  0  0  0  0  0  0  0  0  0  0
   22.4800   14.7050    9.8850 S   0  0  0  0  0  6  0  0  0  0  0  0
   22.3490   15.1020   11.2720 O   0  0  0  0  0  0  0  0  0  0  0  0
   21.9820   13.4350    9.3900 O   0  0  0  0  0  0  0  0  0  0  0  0
   24.1590   14.8270    9.4420 C   0  0  0  0  0  0  0  0  0  0  0  0
   24.6490   13.9810    8.4630 C   0  0  0  0  0  0  0  0  0  0  0  0
   25.9360   13.9620    8.0310 N   0  0  0  0  0  0  0  0  0  0  0  0
   26.8440   14.8100    8.5840 C   0  0  0  0  0  0  0  0  0  0  0  0
   26.4410   15.7030    9.5780 C   0  0  0  0  0  0  0  0  0  0  0  0
   27.0710   16.6940   10.3780 C   0  0  0  0  0  0  0  0  0  0  0  0
   26.0960   17.2320   11.1960 C   0  0  0  0  0  0  0  0  0  0  0  0
   26.1650   18.2360   12.2370 C   0  0  0  0  0  0  0  0  0  0  0  0
   27.0860   19.0430   12.3340 O   0  0  0  0  0  0  0  0  0  0  0  0
   25.1060   18.2150   13.1240 N   0  0  0  0  0  0  0  0  0  0  0  0
   25.2410   18.7780   14.4560 C   0  0  1  0  0  0  0  0  0  0  0  0
   26.2650   18.0070   15.2770 C   0  0  0  0  0  0  0  0  0  0  0  0
   26.3990   18.6470   16.6500 C   0  0  0  0  0  0  0  0  0  0  0  0
   26.7600   20.1100   16.5390 C   0  0  0  0  0  0  0  0  0  0  0  0
   27.4580   20.6780   17.3740 O   0  0  0  0  0  0  0  0  0  0  0  0
   26.2360   20.7940   15.4720 N   0  0  0  0  0  0  0  0  0  0  0  0
   25.6960   20.2420   14.3340 C   0  0  0  0  0  0  0  0  0  0  0  0
   25.5800   20.9110   13.3070 O   0  0  0  0  0  0  0  0  0  0  0  0
   24.9000   16.6240   10.9320 O   0  0  0  0  0  0  0  0  0  0  0  0
   25.1070   15.6880    9.9680 C   0  0  0  0  0  0  0  0  0  0  0  0
   22.1440   16.4820    7.8870 C   0  0  0  0  0  0  0  0  0  0  0  0
   21.1870   17.1410    7.2620 N   0  0  0  0  0  0  0  0  0  0  0  0
   18.9504   19.6134    8.5356 H   0  0  0  0  0  0  0  0  0  0  0  0
   19.8320   19.3891    6.9867 H   0  0  0  0  0  0  0  0  0  0  0  0
   18.0430   19.5504    6.9867 H   0  0  0  0  0  0  0  0  0  0  0  0
   18.0295   17.4303    8.4595 H   0  0  0  0  0  0  0  0  0  0  0  0
   18.4613   17.2456    6.7020 H   0  0  0  0  0  0  0  0  0  0  0  0
   19.6355   15.8429    9.9145 H   0  0  0  0  0  0  0  0  0  0  0  0
   23.9452   13.2728    8.0014 H   0  0  0  0  0  0  0  0  0  0  0  0
   27.8917   14.7922    8.2493 H   0  0  0  0  0  0  0  0  0  0  0  0
   28.1332   16.9788   10.3512 H   0  0  0  0  0  0  0  0  0  0  0  0
   24.2102   17.7951   12.8373 H   0  0  0  0  0  0  0  0  0  0  0  0
   24.2675   18.7138   14.9642 H   0  0  0  0  0  0  0  0  0  0  0  0
   25.9347   16.9638   15.3893 H   0  0  0  0  0  0  0  0  0  0  0  0
   27.2383   18.0301   14.7649 H   0  0  0  0  0  0  0  0  0  0  0  0
   25.4421   18.5533   17.1843 H   0  0  0  0  0  0  0  0  0  0  0  0
   27.2016   18.1312   17.1975 H   0  0  0  0  0  0  0  0  0  0  0  0
   26.2481   21.8224   15.5285 H   0  0  0  0  0  0  0  0  0  0  0  0
   23.1923   16.4362    7.5568 H   0  0  0  0  0  0  0  0  0  0  0  0
  1  2  1  0
  2  3  1  0
  3  4  2  0
  4  5  1  0
  5  6  1  0
  6  7  2  0
  6  8  2  0
  6  9  1  0
  9 10  2  0
 10 11  1  0
 11 12  2  0
 12 13  1  0
 13 14  1  0
 14 15  2  0
 15 16  1  0
 16 17  2  0
 16 18  1  0
 18 19  1  0
 19 20  1  0
 20 21  1  0
 21 22  1  0
 22 23  2  0
 22 24  1  0
 24 25  1  0
 25 26  2  0
 15 27  1  0
 27 28  1  0
  5 29  1  0
 29 30  2  0
 30  3  1  0
 28  9  1  0
 28 13  2  0
 25 19  1  0
  1 31  1  0
  1 32  1  0
  1 33  1  0
  2 34  1  0
  2 35  1  0
  4 36  1  0
 10 37  1  0
 12 38  1  0
 14 39  1  0
 18 40  1  0
 19 41  1  1
 20 42  1  0
 20 43  1  0
 21 44  1  0
 21 45  1  0
 24 46  1  0
 29 47  1  0
M  END
>  <meeko>  (1203) 
{"is_sidechain": [true], "free_energy": -10.19, "intermolecular_energy": 0.0, "internal_energy": -10.19, "cluster_size": 6, "cluster_id": 1, "rank_in_cluster": 1}

>  <_RMSD_MCS_to_ref>  (1203) 
0.6672784692731784

$$$$
ligand
     RDKit          3D

 47 50  0  0  0  0  0  0  0  0999 V2000
   18.9090   19.1540    7.5370 C   0  0  0  0  0  0  0  0  0  0  0  0
   18.7730   17.6460    7.6780 C   0  0  0  0  0  0  0  0  0  0  0  0
   19.9950   16.9270    7.2260 C   0  0  0  0  0  0  0  0  0  0  0  0
   21.0930   16.5300    7.9630 C   0  0  0  0  0  0  0  0  0  0  0  0
   21.9180   15.9430    7.0480 N   0  0  0  0  0  0  0  0  0  0  0  0
   23.3130   15.0740    7.3930 S   0  0  0  0  0  6  0  0  0  0  0  0
   22.9700   13.6800    7.1930 O   0  0  0  0  0  0  0  0  0  0  0  0
   24.3810   15.7240    6.6580 O   0  0  0  0  0  0  0  0  0  0  0  0
   23.5650   15.3620    9.1310 C   0  0  0  0  0  0  0  0  0  0  0  0
   24.4410   16.4160    9.5260 C   0  0  0  0  0  0  0  0  0  0  0  0
   24.7130   16.7300   10.8720 C   0  0  0  0  0  0  0  0  0  0  0  0
   24.0310   15.9100   11.7840 C   0  0  0  0  0  0  0  0  0  0  0  0
   24.1440   16.0350   13.1580 C   0  0  0  0  0  0  0  0  0  0  0  0
   24.9190   16.9500   13.9790 C   0  0  0  0  0  0  0  0  0  0  0  0
   26.1300   16.8440   14.1590 O   0  0  0  0  0  0  0  0  0  0  0  0
   24.2230   17.9780   14.5830 N   0  0  0  0  0  0  0  0  0  0  0  0
   24.8490   18.8750   15.5440 C   0  0  1  0  0  0  0  0  0  0  0  0
   25.8550   18.1580   16.4370 C   0  0  0  0  0  0  0  0  0  0  0  0
   26.4980   19.1620   17.3820 C   0  0  0  0  0  0  0  0  0  0  0  0
   27.1310   20.3050   16.6240 C   0  0  0  0  0  0  0  0  0  0  0  0
   28.1530   20.8640   17.0080 O   0  0  0  0  0  0  0  0  0  0  0  0
   26.4880   20.7150   15.4830 N   0  0  0  0  0  0  0  0  0  0  0  0
   25.5720   19.9830   14.7710 C   0  0  0  0  0  0  0  0  0  0  0  0
   25.3500   20.2170   13.5830 O   0  0  0  0  0  0  0  0  0  0  0  0
   23.1350   14.8370   13.8510 S   0  0  0  0  0  0  0  0  0  0  0  0
   22.5790   14.1860   12.4450 N   0  0  0  0  0  0  0  0  0  0  0  0
   23.1100   14.8240   11.3990 C   0  0  0  0  0  0  0  0  0  0  0  0
   22.8640   14.5430   10.0400 C   0  0  0  0  0  0  0  0  0  0  0  0
   21.3090   15.9470    5.8340 C   0  0  0  0  0  0  0  0  0  0  0  0
   20.1410   16.5490    5.9050 N   0  0  0  0  0  0  0  0  0  0  0  0
   18.9504   19.6134    8.5356 H   0  0  0  0  0  0  0  0  0  0  0  0
   19.8320   19.3891    6.9867 H   0  0  0  0  0  0  0  0  0  0  0  0
   18.0430   19.5504    6.9867 H   0  0  0  0  0  0  0  0  0  0  0  0
   18.5903   17.4041    8.7354 H   0  0  0  0  0  0  0  0  0  0  0  0
   17.9357   17.3214    7.0428 H   0  0  0  0  0  0  0  0  0  0  0  0
   21.2639   16.6578    9.0421 H   0  0  0  0  0  0  0  0  0  0  0  0
   24.9281   17.0130    8.7410 H   0  0  0  0  0  0  0  0  0  0  0  0
   25.3932   17.5385   11.1781 H   0  0  0  0  0  0  0  0  0  0  0  0
   23.2299   18.1147   14.3464 H   0  0  0  0  0  0  0  0  0  0  0  0
   24.0608   19.2830   16.1938 H   0  0  0  0  0  0  0  0  0  0  0  0
   25.3390   17.3822   17.0217 H   0  0  0  0  0  0  0  0  0  0  0  0
   26.6317   17.6907   15.8138 H   0  0  0  0  0  0  0  0  0  0  0  0
   25.7272   19.5632   18.0565 H   0  0  0  0  0  0  0  0  0  0  0  0
   27.2851   18.6463   17.9517 H   0  0  0  0  0  0  0  0  0  0  0  0
   26.7132   21.6560   15.1299 H   0  0  0  0  0  0  0  0  0  0  0  0
   22.1786   13.7469    9.7138 H   0  0  0  0  0  0  0  0  0  0  0  0
   21.7331   15.5081    4.9188 H   0  0  0  0  0  0  0  0  0  0  0  0
  1  2  1  0
  2  3  1  0
  3  4  2  0
  4  5  1  0
  5  6  1  0
  6  7  2  0
  6  8  2  0
  6  9  1  0
  9 10  1  0
 10 11  2  0
 11 12  1  0
 12 13  2  0
 13 14  1  0
 14 15  2  0
 14 16  1  0
 16 17  1  0
 17 18  1  0
 18 19  1  0
 19 20  1  0
 20 21  2  0
 20 22  1  0
 22 23  1  0
 23 24  2  0
 13 25  1  0
 25 26  1  0
 26 27  2  0
 27 28  1  0
  5 29  1  0
 29 30  2  0
 30  3  1  0
 28  9  2  0
 27 12  1  0
 23 17  1  0
  1 31  1  0
  1 32  1  0
  1 33  1  0
  2 34  1  0
  2 35  1  0
  4 36  1  0
 10 37  1  0
 11 38  1  0
 16 39  1  0
 17 40  1  1
 18 41  1  0
 18 42  1  0
 19 43  1  0
 19 44  1  0
 22 45  1  0
 28 46  1  0
 29 47  1  0
M  END
>  <meeko>  (1204) 
{"is_sidechain": [true], "free_energy": -10.19, "intermolecular_energy": 0.0, "internal_energy": -10.19, "cluster_size": 19, "cluster_id": 1, "rank_in_cluster": 1}

>  <_RMSD_MCS_to_ref>  (1204) 
0.837574673287901

$$$$
ligand
     RDKit          3D

 42 44  0  0  0  0  0  0  0  0999 V2000
   18.9090   19.1540    7.5370 C   0  0  0  0  0  0  0  0  0  0  0  0
   18.7730   17.6460    7.6780 C   0  0  0  0  0  0  0  0  0  0  0  0
   20.0880   16.9540    7.5980 C   0  0  0  0  0  0  0  0  0  0  0  0
   20.9340   16.5760    8.6220 C   0  0  0  0  0  0  0  0  0  0  0  0
   21.9770   15.9660    7.9870 N   0  0  0  0  0  0  0  0  0  0  0  0
   23.4180   15.4750    8.6910 S   0  0  0  0  0  6  0  0  0  0  0  0
   23.5680   14.0640    8.3950 O   0  0  0  0  0  0  0  0  0  0  0  0
   24.4020   16.4660    8.3020 O   0  0  0  0  0  0  0  0  0  0  0  0
   23.3010   15.6110   10.4560 C   0  0  0  0  0  0  0  0  0  0  0  0
   24.0090   16.3700   11.3710 C   0  0  0  0  0  0  0  0  0  0  0  0
   23.5810   16.1680   12.7290 C   0  0  0  0  0  0  0  0  0  0  0  0
   24.0930   16.7880   13.9540 C   0  0  0  0  0  0  0  0  0  0  0  0
   24.0860   16.2060   15.0350 O   0  0  0  0  0  0  0  0  0  0  0  0
   24.5670   18.0710   13.8150 N   0  0  0  0  0  0  0  0  0  0  0  0
   24.9660   18.8580   14.9730 C   0  0  1  0  0  0  0  0  0  0  0  0
   25.9710   18.1250   15.8550 C   0  0  0  0  0  0  0  0  0  0  0  0
   26.3770   19.0210   17.0150 C   0  0  0  0  0  0  0  0  0  0  0  0
   26.9160   20.3450   16.5240 C   0  0  0  0  0  0  0  0  0  0  0  0
   27.8060   20.9520   17.1110 O   0  0  0  0  0  0  0  0  0  0  0  0
   26.3380   20.8620   15.3920 N   0  0  0  0  0  0  0  0  0  0  0  0
   25.5970   20.1600   14.4740 C   0  0  0  0  0  0  0  0  0  0  0  0
   25.4480   20.5710   13.3240 O   0  0  0  0  0  0  0  0  0  0  0  0
   22.5580   15.2350   12.7650 C   0  0  0  0  0  0  0  0  0  0  0  0
   22.1280   14.6410   11.2230 S   0  0  0  0  0  0  0  0  0  0  0  0
   21.7790   16.0280    6.6450 C   0  0  0  0  0  0  0  0  0  0  0  0
   20.6310   16.6130    6.3750 N   0  0  0  0  0  0  0  0  0  0  0  0
   18.9504   19.6134    8.5356 H   0  0  0  0  0  0  0  0  0  0  0  0
   19.8320   19.3891    6.9867 H   0  0  0  0  0  0  0  0  0  0  0  0
   18.0430   19.5504    6.9867 H   0  0  0  0  0  0  0  0  0  0  0  0
   18.3128   17.4211    8.6515 H   0  0  0  0  0  0  0  0  0  0  0  0
   18.1492   17.2837    6.8476 H   0  0  0  0  0  0  0  0  0  0  0  0
   20.7983   16.7311    9.7025 H   0  0  0  0  0  0  0  0  0  0  0  0
   24.8184   17.0591   11.0880 H   0  0  0  0  0  0  0  0  0  0  0  0
   24.6412   18.4831   12.8740 H   0  0  0  0  0  0  0  0  0  0  0  0
   24.0707   19.0495   15.5828 H   0  0  0  0  0  0  0  0  0  0  0  0
   25.5128   17.2045   16.2458 H   0  0  0  0  0  0  0  0  0  0  0  0
   26.8608   17.8686   15.2613 H   0  0  0  0  0  0  0  0  0  0  0  0
   25.4979   19.2053   17.6500 H   0  0  0  0  0  0  0  0  0  0  0  0
   27.1693   18.5135   17.5848 H   0  0  0  0  0  0  0  0  0  0  0  0
   26.4722   21.8678   15.2150 H   0  0  0  0  0  0  0  0  0  0  0  0
   22.0705   14.9087   13.6955 H   0  0  0  0  0  0  0  0  0  0  0  0
   22.4797   15.6433    5.8894 H   0  0  0  0  0  0  0  0  0  0  0  0
  1  2  1  0
  2  3  1  0
  3  4  2  0
  4  5  1  0
  5  6  1  0
  6  7  2  0
  6  8  2  0
  6  9  1  0
  9 10  2  0
 10 11  1  0
 11 12  1  0
 12 13  2  0
 12 14  1  0
 14 15  1  0
 15 16  1  0
 16 17  1  0
 17 18  1  0
 18 19  2  0
 18 20  1  0
 20 21  1  0
 21 22  2  0
 11 23  2  0
 23 24  1  0
  5 25  1  0
 25 26  2  0
 26  3  1  0
 24  9  1  0
 21 15  1  0
  1 27  1  0
  1 28  1  0
  1 29  1  0
  2 30  1  0
  2 31  1  0
  4 32  1  0
 10 33  1  0
 14 34  1  0
 15 35  1  1
 16 36  1  0
 16 37  1  0
 17 38  1  0
 17 39  1  0
 20 40  1  0
 23 41  1  0
 25 42  1  0
M  END
>  <meeko>  (1205) 
{"is_sidechain": [true], "free_energy": -10.19, "intermolecular_energy": 0.0, "internal_energy": -10.19, "cluster_size": 20, "cluster_id": 1, "rank_in_cluster": 1}

>  <_RMSD_MCS_to_ref>  (1205) 
0.5965259610630733

$$$$
ligand
     RDKit          3D

 50 53  0  0  0  0  0  0  0  0999 V2000
   18.9090   19.1540    7.5370 C   0  0  0  0  0  0  0  0  0  0  0  0
   18.7730   17.6460    7.6780 C   0  0  0  0  0  0  0  0  0  0  0  0
   19.9250   16.9190    7.0800 C   0  0  0  0  0  0  0  0  0  0  0  0
   21.2200   16.8070    7.5490 C   0  0  0  0  0  0  0  0  0  0  0  0
   21.8420   16.0130    6.6280 N   0  0  0  0  0  0  0  0  0  0  0  0
   23.5040   15.7420    6.5270 S   0  0  0  0  0  6  0  0  0  0  0  0
   24.0840   17.0710    6.4460 O   0  0  0  0  0  0  0  0  0  0  0  0
   23.6540   14.7950    5.4370 O   0  0  0  0  0  0  0  0  0  0  0  0
   23.9980   14.9850    8.0250 C   0  0  0  0  0  0  0  0  0  0  0  0
   24.2800   13.6750    7.9530 C   0  0  0  0  0  0  0  0  0  0  0  0
   24.6990   12.9690    9.1710 C   0  0  0  0  0  0  0  0  0  0  0  0
   24.9700   11.7770    9.1480 O   0  0  0  0  0  0  0  0  0  0  0  0
   24.7740   13.7680   10.4040 C   0  0  0  0  0  0  0  0  0  0  0  0
   25.1530   13.1830   11.6150 C   0  0  0  0  0  0  0  0  0  0  0  0
   25.2110   13.9650   12.7730 C   0  0  0  0  0  0  0  0  0  0  0  0
   24.8980   15.3310   12.7150 C   0  0  0  0  0  0  0  0  0  0  0  0
   24.9320   16.2040   13.9210 C   0  0  0  0  0  0  0  0  0  0  0  0
   24.3590   15.8560   14.9480 O   0  0  0  0  0  0  0  0  0  0  0  0
   25.5960   17.4020   13.8000 N   0  0  0  0  0  0  0  0  0  0  0  0
   25.5520   18.3950   14.8670 C   0  0  1  0  0  0  0  0  0  0  0  0
   26.1470   17.8710   16.1710 C   0  0  0  0  0  0  0  0  0  0  0  0
   26.1090   18.9690   17.2220 C   0  0  0  0  0  0  0  0  0  0  0  0
   26.8160   20.2140   16.7420 C   0  0  0  0  0  0  0  0  0  0  0  0
   27.4390   20.9530   17.4980 O   0  0  0  0  0  0  0  0  0  0  0  0
   26.7060   20.5060   15.4050 N   0  0  0  0  0  0  0  0  0  0  0  0
   26.3460   19.6240   14.4160 C   0  0  0  0  0  0  0  0  0  0  0  0
   26.6410   19.8280   13.2390 O   0  0  0  0  0  0  0  0  0  0  0  0
   24.5090   15.9040   11.4950 C   0  0  0  0  0  0  0  0  0  0  0  0
   24.4520   15.1210   10.3430 C   0  0  0  0  0  0  0  0  0  0  0  0
   24.0690   15.7420    9.1820 O   0  0  0  0  0  0  0  0  0  0  0  0
   20.9690   15.7210    5.6300 C   0  0  0  0  0  0  0  0  0  0  0  0
   19.7880   16.2460    5.8810 N   0  0  0  0  0  0  0  0  0  0  0  0
   18.9504   19.6134    8.5356 H   0  0  0  0  0  0  0  0  0  0  0  0
   19.8320   19.3891    6.9867 H   0  0  0  0  0  0  0  0  0  0  0  0
   18.0430   19.5504    6.9867 H   0  0  0  0  0  0  0  0  0  0  0  0
   18.7118   17.3944    8.7471 H   0  0  0  0  0  0  0  0  0  0  0  0
   17.8638   17.3375    7.1411 H   0  0  0  0  0  0  0  0  0  0  0  0
   21.6513   17.2548    8.4564 H   0  0  0  0  0  0  0  0  0  0  0  0
   24.1986   13.1381    6.9964 H   0  0  0  0  0  0  0  0  0  0  0  0
   25.4044   12.1130   11.6573 H   0  0  0  0  0  0  0  0  0  0  0  0
   25.5024   13.5083   13.7303 H   0  0  0  0  0  0  0  0  0  0  0  0
   26.1322   17.6009   12.9434 H   0  0  0  0  0  0  0  0  0  0  0  0
   24.4980   18.6439   15.0599 H   0  0  0  0  0  0  0  0  0  0  0  0
   25.5613   17.0081   16.5207 H   0  0  0  0  0  0  0  0  0  0  0  0
   27.1889   17.5619   16.0008 H   0  0  0  0  0  0  0  0  0  0  0  0
   25.0604   19.2158   17.4443 H   0  0  0  0  0  0  0  0  0  0  0  0
   26.6230   18.6041   18.1235 H   0  0  0  0  0  0  0  0  0  0  0  0
   26.9120   21.4735   15.1180 H   0  0  0  0  0  0  0  0  0  0  0  0
   24.2488   16.9717   11.4474 H   0  0  0  0  0  0  0  0  0  0  0  0
   21.2142   15.1284    4.7363 H   0  0  0  0  0  0  0  0  0  0  0  0
  1  2  1  0
  2  3  1  0
  3  4  2  0
  4  5  1  0
  5  6  1  0
  6  7  2  0
  6  8  2  0
  6  9  1  0
  9 10  2  0
 10 11  1  0
 11 12  2  0
 11 13  1  0
 13 14  2  0
 14 15  1  0
 15 16  2  0
 16 17  1  0
 17 18  2  0
 17 19  1  0
 19 20  1  0
 20 21  1  0
 21 22  1  0
 22 23  1  0
 23 24  2  0
 23 25  1  0
 25 26  1  0
 26 27  2  0
 16 28  1  0
 28 29  2  0
 29 30  1  0
  5 31  1  0
 31 32  2  0
 32  3  1  0
 30  9  1  0
 29 13  1  0
 26 20  1  0
  1 33  1  0
  1 34  1  0
  1 35  1  0
  2 36  1  0
  2 37  1  0
  4 38  1  0
 10 39  1  0
 14 40  1  0
 15 41  1  0
 19 42  1  0
 20 43  1  1
 21 44  1  0
 21 45  1  0
 22 46  1  0
 22 47  1  0
 25 48  1  0
 28 49  1  0
 31 50  1  0
M  END
>  <meeko>  (1206) 
{"is_sidechain": [true], "free_energy": -10.19, "intermolecular_energy": 0.0, "internal_energy": -10.19, "cluster_size": 20, "cluster_id": 1, "rank_in_cluster": 1}

>  <_RMSD_MCS_to_ref>  (1206) 
0.9759248035695276

$$$$
ligand
     RDKit          3D

 50 53  0  0  0  0  0  0  0  0999 V2000
   18.9090   19.1540    7.5370 C   0  0  0  0  0  0  0  0  0  0  0  0
   18.7730   17.6460    7.6780 C   0  0  0  0  0  0  0  0  0  0  0  0
   20.0600   16.9400    7.4360 C   0  0  0  0  0  0  0  0  0  0  0  0
   20.6770   15.9700    8.2030 C   0  0  0  0  0  0  0  0  0  0  0  0
   21.8210   15.6770    7.5140 N   0  0  0  0  0  0  0  0  0  0  0  0
   23.0550   14.6820    8.0650 S   0  0  0  0  0  6  0  0  0  0  0  0
   22.5350   13.3330    8.1880 O   0  0  0  0  0  0  0  0  0  0  0  0
   24.1490   14.9600    7.1460 O   0  0  0  0  0  0  0  0  0  0  0  0
   23.4880   15.2970    9.6860 C   0  0  0  0  0  0  0  0  0  0  0  0
   24.6460   16.0220    9.6500 N   0  0  0  0  0  0  0  0  0  0  0  0
   25.1750   16.4150   10.8260 C   0  0  0  0  0  0  0  0  0  0  0  0
   24.6230   16.0960   12.0570 C   0  0  0  0  0  0  0  0  0  0  0  0
   25.3760   16.5500   13.2410 C   0  0  0  0  0  0  0  0  0  0  0  0
   25.7680   15.7320   14.0620 O   0  0  0  0  0  0  0  0  0  0  0  0
   25.5460   17.9060   13.3660 N   0  0  0  0  0  0  0  0  0  0  0  0
   26.3390   18.4790   14.4450 C   0  0  2  0  0  0  0  0  0  0  0  0
   25.8350   18.0460   15.8170 C   0  0  0  0  0  0  0  0  0  0  0  0
   26.6780   18.7060   16.8970 C   0  0  0  0  0  0  0  0  0  0  0  0
   26.6880   20.2100   16.7450 C   0  0  0  0  0  0  0  0  0  0  0  0
   26.7400   20.9690   17.7070 O   0  0  0  0  0  0  0  0  0  0  0  0
   26.6640   20.6990   15.4630 N   0  0  0  0  0  0  0  0  0  0  0  0
   26.2770   20.0050   14.3440 C   0  0  0  0  0  0  0  0  0  0  0  0
   25.9140   20.5890   13.3220 O   0  0  0  0  0  0  0  0  0  0  0  0
   23.4080   15.3900   12.0910 C   0  0  0  0  0  0  0  0  0  0  0  0
   22.7120   15.0770   13.3510 C   0  0  0  0  0  0  0  0  0  0  0  0
   21.5720   14.3820   13.3320 C   0  0  0  0  0  0  0  0  0  0  0  0
   21.0100   13.9860   12.1540 N   0  0  0  0  0  0  0  0  0  0  0  0
   21.5170   14.2850   10.9130 C   0  0  0  0  0  0  0  0  0  0  0  0
   20.8810   14.0260    9.9040 O   0  0  0  0  0  0  0  0  0  0  0  0
   22.8220   14.9860   10.8650 C   0  0  0  0  0  0  0  0  0  0  0  0
   21.9050   16.4880    6.4290 C   0  0  0  0  0  0  0  0  0  0  0  0
   20.8330   17.2480    6.3350 N   0  0  0  0  0  0  0  0  0  0  0  0
   18.9504   19.6134    8.5356 H   0  0  0  0  0  0  0  0  0  0  0  0
   19.8320   19.3891    6.9867 H   0  0  0  0  0  0  0  0  0  0  0  0
   18.0430   19.5504    6.9867 H   0  0  0  0  0  0  0  0  0  0  0  0
   18.4286   17.4152    8.6969 H   0  0  0  0  0  0  0  0  0  0  0  0
   18.0514   17.3002    6.9232 H   0  0  0  0  0  0  0  0  0  0  0  0
   20.3278   15.5337    9.1505 H   0  0  0  0  0  0  0  0  0  0  0  0
   26.0930   17.0207   10.8079 H   0  0  0  0  0  0  0  0  0  0  0  0
   25.1022   18.5336   12.6804 H   0  0  0  0  0  0  0  0  0  0  0  0
   27.3728   18.1182   14.3398 H   0  0  0  0  0  0  0  0  0  0  0  0
   24.7844   18.3500   15.9347 H   0  0  0  0  0  0  0  0  0  0  0  0
   25.9121   16.9525   15.9081 H   0  0  0  0  0  0  0  0  0  0  0  0
   26.2630   18.4484   17.8826 H   0  0  0  0  0  0  0  0  0  0  0  0
   27.7113   18.3410   16.8017 H   0  0  0  0  0  0  0  0  0  0  0  0
   26.9635   21.6752   15.3284 H   0  0  0  0  0  0  0  0  0  0  0  0
   23.1322   15.4164   14.3093 H   0  0  0  0  0  0  0  0  0  0  0  0
   21.0786   14.1249   14.2809 H   0  0  0  0  0  0  0  0  0  0  0  0
   20.1473   13.4250   12.1980 H   0  0  0  0  0  0  0  0  0  0  0  0
   22.7507   16.5080    5.7258 H   0  0  0  0  0  0  0  0  0  0  0  0
  1  2  1  0
  2  3  1  0
  3  4  2  0
  4  5  1  0
  5  6  1  0
  6  7  2  0
  6  8  2  0
  6  9  1  0
  9 10  2  0
 10 11  1  0
 11 12  2  0
 12 13  1  0
 13 14  2  0
 13 15  1  0
 15 16  1  0
 16 17  1  0
 17 18  1  0
 18 19  1  0
 19 20  2  0
 19 21  1  0
 21 22  1  0
 22 23  2  0
 12 24  1  0
 24 25  1  0
 25 26  2  0
 26 27  1  0
 27 28  1  0
 28 29  2  0
 28 30  1  0
  5 31  1  0
 31 32  2  0
 32  3  1  0
 30  9  1  0
 22 16  1  0
 30 24  2  0
  1 33  1  0
  1 34  1  0
  1 35  1  0
  2 36  1  0
  2 37  1  0
  4 38  1  0
 11 39  1  0
 15 40  1  0
 16 41  1  6
 17 42  1  0
 17 43  1  0
 18 44  1  0
 18 45  1  0
 21 46  1  0
 25 47  1  0
 26 48  1  0
 27 49  1  0
 31 50  1  0
M  END
>  <meeko>  (1207) 
{"is_sidechain": [true], "free_energy": -10.19, "intermolecular_energy": 0.0, "internal_energy": -10.19, "cluster_size": 7, "cluster_id": 1, "rank_in_cluster": 1}

>  <_RMSD_MCS_to_ref>  (1207) 
0.9528961118610991

$$$$
ligand
     RDKit          3D

 55 59  0  0  0  0  0  0  0  0999 V2000
   18.9090   19.1540    7.5370 C   0  0  0  0  0  0  0  0  0  0  0  0
   18.7730   17.6460    7.6780 C   0  0  0  0  0  0  0  0  0  0  0  0
   19.5900   16.9120    6.6750 C   0  0  0  0  0  0  0  0  0  0  0  0
   20.9150   16.5270    6.7460 C   0  0  0  0  0  0  0  0  0  0  0  0
   21.1370   15.8700    5.5700 N   0  0  0  0  0  0  0  0  0  0  0  0
   22.6300   15.3620    4.9900 S   0  0  0  0  0  6  0  0  0  0  0  0
   22.3480   14.3880    3.9540 O   0  0  0  0  0  0  0  0  0  0  0  0
   23.3840   16.5740    4.7370 O   0  0  0  0  0  0  0  0  0  0  0  0
   23.3520   14.5180    6.3640 C   0  0  0  0  0  0  0  0  0  0  0  0
   23.8680   13.2390    6.1950 C   0  0  0  0  0  0  0  0  0  0  0  0
   24.4190   12.6350    7.3040 C   0  0  0  0  0  0  0  0  0  0  0  0
   24.4750   13.2180    8.5220 N   0  0  0  0  0  0  0  0  0  0  0  0
   23.9440   14.4580    8.6830 C   0  0  0  0  0  0  0  0  0  0  0  0
   24.0300   15.0210   10.0490 C   0  0  0  0  0  0  0  0  0  0  0  0
   23.0900   14.6340   11.0450 C   0  0  0  0  0  0  0  0  0  0  0  0
   23.1310   15.1270   12.3570 C   0  0  0  0  0  0  0  0  0  0  0  0
   24.1240   16.0280   12.6790 C   0  0  0  0  0  0  0  0  0  0  0  0
   25.0440   16.4200   11.7140 C   0  0  0  0  0  0  0  0  0  0  0  0
   25.0250   15.9460   10.4130 C   0  0  0  0  0  0  0  0  0  0  0  0
   25.9740   17.3710   12.3300 C   0  0  0  0  0  0  0  0  0  0  0  0
   26.9500   17.8370   11.7750 O   0  0  0  0  0  0  0  0  0  0  0  0
   25.5290   17.5870   13.6260 N   0  0  0  0  0  0  0  0  0  0  0  0
   26.2950   18.2860   14.6520 C   0  0  2  0  0  0  0  0  0  0  0  0
   25.8260   17.9930   16.0770 C   0  0  0  0  0  0  0  0  0  0  0  0
   26.7290   18.7180   17.0620 C   0  0  0  0  0  0  0  0  0  0  0  0
   26.7570   20.2040   16.7890 C   0  0  0  0  0  0  0  0  0  0  0  0
   27.0500   21.0240   17.6540 O   0  0  0  0  0  0  0  0  0  0  0  0
   26.5210   20.5970   15.4950 N   0  0  0  0  0  0  0  0  0  0  0  0
   26.3180   19.7990   14.3920 C   0  0  0  0  0  0  0  0  0  0  0  0
   26.2680   20.2970   13.2680 O   0  0  0  0  0  0  0  0  0  0  0  0
   24.4290   16.6970   13.9760 C   0  0  0  0  0  0  0  0  0  0  0  0
   23.3720   15.1390    7.6140 C   0  0  0  0  0  0  0  0  0  0  0  0
   20.0070   15.9080    4.8190 C   0  0  0  0  0  0  0  0  0  0  0  0
   19.0420   16.5280    5.4660 N   0  0  0  0  0  0  0  0  0  0  0  0
   18.9504   19.6134    8.5356 H   0  0  0  0  0  0  0  0  0  0  0  0
   19.8320   19.3891    6.9867 H   0  0  0  0  0  0  0  0  0  0  0  0
   18.0430   19.5504    6.9867 H   0  0  0  0  0  0  0  0  0  0  0  0
   19.1024   17.3533    8.6859 H   0  0  0  0  0  0  0  0  0  0  0  0
   17.7177   17.3849    7.5102 H   0  0  0  0  0  0  0  0  0  0  0  0
   21.6283   16.7084    7.5635 H   0  0  0  0  0  0  0  0  0  0  0  0
   23.8379   12.7315    5.2196 H   0  0  0  0  0  0  0  0  0  0  0  0
   24.8360   11.6233    7.1920 H   0  0  0  0  0  0  0  0  0  0  0  0
   22.2990   13.9190   10.7746 H   0  0  0  0  0  0  0  0  0  0  0  0
   22.3934   14.8048   13.1067 H   0  0  0  0  0  0  0  0  0  0  0  0
   25.7718   16.2855    9.6802 H   0  0  0  0  0  0  0  0  0  0  0  0
   27.3192   17.8916   14.5773 H   0  0  0  0  0  0  0  0  0  0  0  0
   24.7904   18.3422   16.2022 H   0  0  0  0  0  0  0  0  0  0  0  0
   25.8706   16.9100   16.2644 H   0  0  0  0  0  0  0  0  0  0  0  0
   26.3556   18.5480   18.0826 H   0  0  0  0  0  0  0  0  0  0  0  0
   27.7504   18.3250   16.9512 H   0  0  0  0  0  0  0  0  0  0  0  0
   26.4923   21.6132   15.3292 H   0  0  0  0  0  0  0  0  0  0  0  0
   24.7376   15.9651   14.7370 H   0  0  0  0  0  0  0  0  0  0  0  0
   23.5650   17.2207   14.4110 H   0  0  0  0  0  0  0  0  0  0  0  0
   22.9452   16.1436    7.7502 H   0  0  0  0  0  0  0  0  0  0  0  0
   19.9107   15.4803    3.8101 H   0  0  0  0  0  0  0  0  0  0  0  0
  1  2  1  0
  2  3  1  0
  3  4  2  0
  4  5  1  0
  5  6  1  0
  6  7  2  0
  6  8  2  0
  6  9  1  0
  9 10  2  0
 10 11  1  0
 11 12  2  0
 12 13  1  0
 13 14  1  0
 14 15  2  0
 15 16  1  0
 16 17  2  0
 17 18  1  0
 18 19  2  0
 18 20  1  0
 20 21  2  0
 20 22  1  0
 22 23  1  0
 23 24  1  0
 24 25  1  0
 25 26  1  0
 26 27  2  0
 26 28  1  0
 28 29  1  0
 29 30  2  0
 22 31  1  0
 13 32  2  0
  5 33  1  0
 33 34  2  0
 34  3  1  0
 32  9  1  0
 19 14  1  0
 29 23  1  0
 31 17  1  0
  1 35  1  0
  1 36  1  0
  1 37  1  0
  2 38  1  0
  2 39  1  0
  4 40  1  0
 10 41  1  0
 11 42  1  0
 15 43  1  0
 16 44  1  0
 19 45  1  0
 23 46  1  1
 24 47  1  0
 24 48  1  0
 25 49  1  0
 25 50  1  0
 28 51  1  0
 31 52  1  0
 31 53  1  0
 32 54  1  0
 33 55  1  0
M  END
>  <meeko>  (1208) 
{"is_sidechain": [true], "free_energy": -10.19, "intermolecular_energy": 0.0, "internal_energy": -10.19, "cluster_size": 17, "cluster_id": 1, "rank_in_cluster": 1}

>  <_RMSD_MCS_to_ref>  (1208) 
1.9895543331219792

$$$$
ligand
     RDKit          3D

 45 47  0  0  0  0  0  0  0  0999 V2000
   18.9090   19.1540    7.5370 C   0  0  0  0  0  0  0  0  0  0  0  0
   18.7730   17.6460    7.6780 C   0  0  0  0  0  0  0  0  0  0  0  0
   20.0930   16.9570    7.6520 C   0  0  0  0  0  0  0  0  0  0  0  0
   20.8740   16.5370    8.7110 C   0  0  0  0  0  0  0  0  0  0  0  0
   21.9560   15.9530    8.1170 N   0  0  0  0  0  0  0  0  0  0  0  0
   23.3780   15.4940    8.8960 S   0  0  0  0  0  6  0  0  0  0  0  0
   23.5650   14.0970    8.5480 O   0  0  0  0  0  0  0  0  0  0  0  0
   24.3510   16.5030    8.5100 O   0  0  0  0  0  0  0  0  0  0  0  0
   23.0850   15.6620   10.6280 C   0  0  0  0  0  0  0  0  0  0  0  0
   22.1300   14.8880   11.1680 C   0  0  0  0  0  0  0  0  0  0  0  0
   21.9140   14.9730   12.6330 C   0  0  0  0  0  0  0  0  0  0  0  0
   21.0210   14.3250   13.1650 O   0  0  0  0  0  0  0  0  0  0  0  0
   22.8070   15.8460   13.4310 C   0  0  0  0  0  0  0  0  0  0  0  0
   23.7230   16.5720   12.7740 C   0  0  0  0  0  0  0  0  0  0  0  0
   24.6400   17.4400   13.5920 C   0  0  0  0  0  0  0  0  0  0  0  0
   25.8580   17.4030   13.4860 O   0  0  0  0  0  0  0  0  0  0  0  0
   23.9740   18.2530   14.4780 N   0  0  0  0  0  0  0  0  0  0  0  0
   24.6990   19.0230   15.4800 C   0  0  1  0  0  0  0  0  0  0  0  0
   25.6620   18.1640   16.2920 C   0  0  0  0  0  0  0  0  0  0  0  0
   26.4200   19.0430   17.2740 C   0  0  0  0  0  0  0  0  0  0  0  0
   27.1310   20.1730   16.5650 C   0  0  0  0  0  0  0  0  0  0  0  0
   28.2090   20.6170   16.9500 O   0  0  0  0  0  0  0  0  0  0  0  0
   26.4990   20.7080   15.4730 N   0  0  0  0  0  0  0  0  0  0  0  0
   25.4920   20.1140   14.7540 C   0  0  0  0  0  0  0  0  0  0  0  0
   25.2410   20.4520   13.5970 O   0  0  0  0  0  0  0  0  0  0  0  0
   23.8410   16.5390   11.3970 N   0  0  0  0  0  0  0  0  0  0  0  0
   21.8460   16.0780    6.7690 C   0  0  0  0  0  0  0  0  0  0  0  0
   20.7140   16.6730    6.4520 N   0  0  0  0  0  0  0  0  0  0  0  0
   18.9504   19.6134    8.5356 H   0  0  0  0  0  0  0  0  0  0  0  0
   19.8320   19.3891    6.9867 H   0  0  0  0  0  0  0  0  0  0  0  0
   18.0430   19.5504    6.9867 H   0  0  0  0  0  0  0  0  0  0  0  0
   18.2758   17.4230    8.6336 H   0  0  0  0  0  0  0  0  0  0  0  0
   18.1837   17.2789    6.8247 H   0  0  0  0  0  0  0  0  0  0  0  0
   20.6709   16.6476    9.7864 H   0  0  0  0  0  0  0  0  0  0  0  0
   21.5269   14.2123   10.5438 H   0  0  0  0  0  0  0  0  0  0  0  0
   22.7211   15.8967   14.5265 H   0  0  0  0  0  0  0  0  0  0  0  0
   22.9471   18.3188   14.4328 H   0  0  0  0  0  0  0  0  0  0  0  0
   23.9691   19.4482   16.1846 H   0  0  0  0  0  0  0  0  0  0  0  0
   25.0952   17.4005   16.8451 H   0  0  0  0  0  0  0  0  0  0  0  0
   26.3751   17.6718   15.6143 H   0  0  0  0  0  0  0  0  0  0  0  0
   25.7089   19.4660   17.9988 H   0  0  0  0  0  0  0  0  0  0  0  0
   27.1735   18.4243   17.7833 H   0  0  0  0  0  0  0  0  0  0  0  0
   26.8078   21.6407   15.1637 H   0  0  0  0  0  0  0  0  0  0  0  0
   24.5023   17.1770   10.9316 H   0  0  0  0  0  0  0  0  0  0  0  0
   22.5967   15.7311    6.0437 H   0  0  0  0  0  0  0  0  0  0  0  0
  1  2  1  0
  2  3  1  0
  3  4  2  0
  4  5  1  0
  5  6  1  0
  6  7  2  0
  6  8  2  0
  6  9  1  0
  9 10  2  0
 10 11  1  0
 11 12  2  0
 11 13  1  0
 13 14  2  0
 14 15  1  0
 15 16  2  0
 15 17  1  0
 17 18  1  0
 18 19  1  0
 19 20  1  0
 20 21  1  0
 21 22  2  0
 21 23  1  0
 23 24  1  0
 24 25  2  0
 14 26  1  0
  5 27  1  0
 27 28  2  0
 28  3  1  0
 26  9  1  0
 24 18  1  0
  1 29  1  0
  1 30  1  0
  1 31  1  0
  2 32  1  0
  2 33  1  0
  4 34  1  0
 10 35  1  0
 13 36  1  0
 17 37  1  0
 18 38  1  1
 19 39  1  0
 19 40  1  0
 20 41  1  0
 20 42  1  0
 23 43  1  0
 26 44  1  0
 27 45  1  0
M  END
>  <meeko>  (1209) 
{"is_sidechain": [true], "free_energy": -10.19, "intermolecular_energy": 0.0, "internal_energy": -10.19, "cluster_size": 20, "cluster_id": 1, "rank_in_cluster": 1}

>  <_RMSD_MCS_to_ref>  (1209) 
0.8417344527158725

$$$$
ligand
     RDKit          3D

 44 47  0  0  0  0  0  0  0  0999 V2000
   18.8250   19.0170    7.5350 C   0  0  0  0  0  0  0  0  0  0  0  0
   18.5200   17.5420    7.7330 C   0  0  0  0  0  0  0  0  0  0  0  0
   19.7280   16.7460    8.0880 C   0  0  0  0  0  0  0  0  0  0  0  0
   20.3460   16.6180    9.3150 C   0  0  0  0  0  0  0  0  0  0  0  0
   21.3540   15.7210    9.0950 N   0  0  0  0  0  0  0  0  0  0  0  0
   22.4750   15.2300   10.2400 S   0  0  0  0  0  6  0  0  0  0  0  0
   22.3820   13.7930   10.3680 O   0  0  0  0  0  0  0  0  0  0  0  0
   22.2730   16.1270   11.3630 O   0  0  0  0  0  0  0  0  0  0  0  0
   24.0870   15.5670    9.6970 C   0  0  0  0  0  0  0  0  0  0  0  0
   24.4920   15.2980    8.4040 C   0  0  0  0  0  0  0  0  0  0  0  0
   26.1500   15.6350    8.1570 S   0  0  0  0  0  0  0  0  0  0  0  0
   26.3350   16.1670    9.7710 C   0  0  0  0  0  0  0  0  0  0  0  0
   25.1550   16.1020   10.4830 C   0  0  0  0  0  0  0  0  0  0  0  0
   25.0370   16.5330   11.8680 C   0  0  0  0  0  0  0  0  0  0  0  0
   25.3340   17.7520   12.4250 C   0  0  0  0  0  0  0  0  0  0  0  0
   25.0290   17.5850   13.7460 N   0  0  0  0  0  0  0  0  0  0  0  0
   25.2540   18.4770   14.8740 C   0  0  1  0  0  0  0  0  0  0  0  0
   26.2670   17.8710   15.8440 C   0  0  0  0  0  0  0  0  0  0  0  0
   26.4580   18.7910   17.0390 C   0  0  0  0  0  0  0  0  0  0  0  0
   26.8770   20.1710   16.6000 C   0  0  0  0  0  0  0  0  0  0  0  0
   27.5530   20.9130   17.3050 O   0  0  0  0  0  0  0  0  0  0  0  0
   26.4160   20.5860   15.3740 N   0  0  0  0  0  0  0  0  0  0  0  0
   25.6980   19.8650   14.4450 C   0  0  0  0  0  0  0  0  0  0  0  0
   25.4240   20.3740   13.3610 O   0  0  0  0  0  0  0  0  0  0  0  0
   24.5870   16.3330   13.9850 N   0  0  0  0  0  0  0  0  0  0  0  0
   24.5830   15.6830   12.8300 N   0  0  0  0  0  0  0  0  0  0  0  0
   21.3480   15.3600    7.7860 C   0  0  0  0  0  0  0  0  0  0  0  0
   20.3800   15.9810    7.1390 N   0  0  0  0  0  0  0  0  0  0  0  0
   18.9260   19.5054    8.5155 H   0  0  0  0  0  0  0  0  0  0  0  0
   19.7645   19.1250    6.9731 H   0  0  0  0  0  0  0  0  0  0  0  0
   18.0054   19.4887    6.9731 H   0  0  0  0  0  0  0  0  0  0  0  0
   17.7821   17.4411    8.5425 H   0  0  0  0  0  0  0  0  0  0  0  0
   18.1347   17.1522    6.7792 H   0  0  0  0  0  0  0  0  0  0  0  0
   20.0864   17.1233   10.2570 H   0  0  0  0  0  0  0  0  0  0  0  0
   23.8231   14.9106    7.6214 H   0  0  0  0  0  0  0  0  0  0  0  0
   27.2868   16.5210   10.1939 H   0  0  0  0  0  0  0  0  0  0  0  0
   25.7251   18.6507   11.9257 H   0  0  0  0  0  0  0  0  0  0  0  0
   24.2865   18.5927   15.3845 H   0  0  0  0  0  0  0  0  0  0  0  0
   25.8992   16.8943   16.1915 H   0  0  0  0  0  0  0  0  0  0  0  0
   27.2302   17.7452   15.3279 H   0  0  0  0  0  0  0  0  0  0  0  0
   25.5101   18.8624   17.5925 H   0  0  0  0  0  0  0  0  0  0  0  0
   27.2489   18.3728   17.6790 H   0  0  0  0  0  0  0  0  0  0  0  0
   26.6348   21.5591   15.1169 H   0  0  0  0  0  0  0  0  0  0  0  0
   22.0519   14.6491    7.3287 H   0  0  0  0  0  0  0  0  0  0  0  0
  1  2  1  0
  2  3  1  0
  3  4  2  0
  4  5  1  0
  5  6  1  0
  6  7  2  0
  6  8  2  0
  6  9  1  0
  9 10  2  0
 10 11  1  0
 11 12  1  0
 12 13  2  0
 13 14  1  0
 14 15  2  0
 15 16  1  0
 16 17  1  0
 17 18  1  0
 18 19  1  0
 19 20  1  0
 20 21  2  0
 20 22  1  0
 22 23  1  0
 23 24  2  0
 16 25  1  0
 25 26  2  0
  5 27  1  0
 27 28  2  0
 28  3  1  0
 13  9  1  0
 26 14  1  0
 23 17  1  0
  1 29  1  0
  1 30  1  0
  1 31  1  0
  2 32  1  0
  2 33  1  0
  4 34  1  0
 10 35  1  0
 12 36  1  0
 15 37  1  0
 17 38  1  1
 18 39  1  0
 18 40  1  0
 19 41  1  0
 19 42  1  0
 22 43  1  0
 27 44  1  0
M  END
>  <meeko>  (1210) 
{"is_sidechain": [true], "free_energy": -10.18, "intermolecular_energy": 0.0, "internal_energy": -10.18, "cluster_size": 12, "cluster_id": 1, "rank_in_cluster": 1}

>  <_RMSD_MCS_to_ref>  (1210) 
0.4875198001677016

$$$$
ligand
     RDKit          3D

 45 48  0  0  0  0  0  0  0  0999 V2000
   18.7970   18.8170    7.7190 C   0  0  0  0  0  0  0  0  0  0  0  0
   18.5280   17.3290    7.8810 C   0  0  0  0  0  0  0  0  0  0  0  0
   19.7270   16.5040    7.5660 C   0  0  0  0  0  0  0  0  0  0  0  0
   20.9800   16.5330    8.1470 C   0  0  0  0  0  0  0  0  0  0  0  0
   21.6920   15.5970    7.4540 N   0  0  0  0  0  0  0  0  0  0  0  0
   23.2120   15.0070    7.8760 S   0  0  0  0  0  6  0  0  0  0  0  0
   24.0180   16.1880    8.1250 O   0  0  0  0  0  0  0  0  0  0  0  0
   23.5530   14.0600    6.8320 O   0  0  0  0  0  0  0  0  0  0  0  0
   23.0150   14.2000    9.2780 O   0  0  0  0  0  0  0  0  0  0  0  0
   23.1450   14.8140   10.4970 C   0  0  0  0  0  0  0  0  0  0  0  0
   22.1370   14.9450   11.4690 C   0  0  0  0  0  0  0  0  0  0  0  0
   22.3030   15.5670   12.6690 N   0  0  0  0  0  0  0  0  0  0  0  0
   23.5350   16.0650   12.8670 C   0  0  0  0  0  0  0  0  0  0  0  0
   24.5770   15.9800   11.9790 C   0  0  0  0  0  0  0  0  0  0  0  0
   24.4080   15.3520   10.7650 C   0  0  0  0  0  0  0  0  0  0  0  0
   25.7230   16.6410   12.5830 C   0  0  0  0  0  0  0  0  0  0  0  0
   26.8020   16.7600   12.0340 O   0  0  0  0  0  0  0  0  0  0  0  0
   25.3350   17.0640   13.8260 N   0  0  0  0  0  0  0  0  0  0  0  0
   26.1690   17.9160   14.6620 C   0  0  2  0  0  0  0  0  0  0  0  0
   25.9600   17.7330   16.1630 C   0  0  0  0  0  0  0  0  0  0  0  0
   26.9100   18.6550   16.9140 C   0  0  0  0  0  0  0  0  0  0  0  0
   26.7230   20.0960   16.4980 C   0  0  0  0  0  0  0  0  0  0  0  0
   26.9840   21.0330   17.2460 O   0  0  0  0  0  0  0  0  0  0  0  0
   26.3020   20.3150   15.2090 N   0  0  0  0  0  0  0  0  0  0  0  0
   25.9340   19.3790   14.2700 C   0  0  0  0  0  0  0  0  0  0  0  0
   25.5070   19.7280   13.1700 O   0  0  0  0  0  0  0  0  0  0  0  0
   24.0070   16.7970   14.0500 C   0  0  0  0  0  0  0  0  0  0  0  0
   23.3320   17.1180   15.0100 O   0  0  0  0  0  0  0  0  0  0  0  0
   20.8730   14.9880    6.5580 C   0  0  0  0  0  0  0  0  0  0  0  0
   19.6750   15.5340    6.5860 N   0  0  0  0  0  0  0  0  0  0  0  0
   18.8815   19.2845    8.7111 H   0  0  0  0  0  0  0  0  0  0  0  0
   19.7359   18.9616    7.1643 H   0  0  0  0  0  0  0  0  0  0  0  0
   17.9682   19.2812    7.1643 H   0  0  0  0  0  0  0  0  0  0  0  0
   18.2271   17.1344    8.9210 H   0  0  0  0  0  0  0  0  0  0  0  0
   17.7312   17.0507    7.1755 H   0  0  0  0  0  0  0  0  0  0  0  0
   21.3251   17.1657    8.9780 H   0  0  0  0  0  0  0  0  0  0  0  0
   21.1489   14.5166   11.2450 H   0  0  0  0  0  0  0  0  0  0  0  0
   25.2301   15.2768   10.0381 H   0  0  0  0  0  0  0  0  0  0  0  0
   27.2106   17.6148   14.4768 H   0  0  0  0  0  0  0  0  0  0  0  0
   24.9210   17.9833   16.4235 H   0  0  0  0  0  0  0  0  0  0  0  0
   26.1612   16.6878   16.4405 H   0  0  0  0  0  0  0  0  0  0  0  0
   26.7168   18.5660   17.9932 H   0  0  0  0  0  0  0  0  0  0  0  0
   27.9419   18.3570   16.6766 H   0  0  0  0  0  0  0  0  0  0  0  0
   26.2562   21.2993   14.9089 H   0  0  0  0  0  0  0  0  0  0  0  0
   21.1686   14.1562    5.9017 H   0  0  0  0  0  0  0  0  0  0  0  0
  1  2  1  0
  2  3  1  0
  3  4  2  0
  4  5  1  0
  5  6  1  0
  6  7  2  0
  6  8  2  0
  6  9  1  0
  9 10  1  0
 10 11  2  0
 11 12  1  0
 12 13  2  0
 13 14  1  0
 14 15  2  0
 14 16  1  0
 16 17  2  0
 16 18  1  0
 18 19  1  0
 19 20  1  0
 20 21  1  0
 21 22  1  0
 22 23  2  0
 22 24  1  0
 24 25  1  0
 25 26  2  0
 18 27  1  0
 27 28  2  0
  5 29  1  0
 29 30  2  0
 30  3  1  0
 15 10  1  0
 25 19  1  0
 27 13  1  0
  1 31  1  0
  1 32  1  0
  1 33  1  0
  2 34  1  0
  2 35  1  0
  4 36  1  0
 11 37  1  0
 15 38  1  0
 19 39  1  1
 20 40  1  0
 20 41  1  0
 21 42  1  0
 21 43  1  0
 24 44  1  0
 29 45  1  0
M  END
>  <meeko>  (1211) 
{"is_sidechain": [true], "free_energy": -10.18, "intermolecular_energy": 0.0, "internal_energy": -10.18, "cluster_size": 20, "cluster_id": 1, "rank_in_cluster": 1}

>  <_RMSD_MCS_to_ref>  (1211) 
1.7017931089630973

$$$$
ligand
     RDKit          3D

 49 52  0  0  0  0  0  0  0  0999 V2000
   18.7970   18.8170    7.7190 C   0  0  0  0  0  0  0  0  0  0  0  0
   18.5280   17.3290    7.8810 C   0  0  0  0  0  0  0  0  0  0  0  0
   19.7750   16.5590    8.1380 C   0  0  0  0  0  0  0  0  0  0  0  0
   20.3320   16.1840    9.3440 C   0  0  0  0  0  0  0  0  0  0  0  0
   21.4710   15.5130    8.9940 N   0  0  0  0  0  0  0  0  0  0  0  0
   22.5180   14.7650   10.0750 S   0  0  0  0  0  6  0  0  0  0  0  0
   22.7850   15.7020   11.1480 O   0  0  0  0  0  0  0  0  0  0  0  0
   21.8990   13.4770   10.3350 O   0  0  0  0  0  0  0  0  0  0  0  0
   24.0130   14.4680    9.1750 C   0  0  0  0  0  0  0  0  0  0  0  0
   23.9810   13.5370    8.1240 C   0  0  0  0  0  0  0  0  0  0  0  0
   25.1300   13.2890    7.3820 C   0  0  0  0  0  0  0  0  0  0  0  0
   26.3010   13.9690    7.6960 C   0  0  0  0  0  0  0  0  0  0  0  0
   26.3220   14.8910    8.7600 C   0  0  0  0  0  0  0  0  0  0  0  0
   27.4700   15.5870    9.1160 C   0  0  0  0  0  0  0  0  0  0  0  0
   27.5370   16.4650   10.1310 N   0  0  0  0  0  0  0  0  0  0  0  0
   26.3870   16.6340   10.8130 C   0  0  0  0  0  0  0  0  0  0  0  0
   26.4260   17.5880   11.9820 C   0  0  0  0  0  0  0  0  0  0  0  0
   27.3400   18.3890   12.1480 O   0  0  0  0  0  0  0  0  0  0  0  0
   25.3570   17.4880   12.8540 N   0  0  0  0  0  0  0  0  0  0  0  0
   25.3310   18.1930   14.1240 C   0  0  1  0  0  0  0  0  0  0  0  0
   26.3780   17.6630   15.0970 C   0  0  0  0  0  0  0  0  0  0  0  0
   26.3160   18.4570   16.3930 C   0  0  0  0  0  0  0  0  0  0  0  0
   26.4870   19.9360   16.1360 C   0  0  0  0  0  0  0  0  0  0  0  0
   27.0570   20.6810   16.9260 O   0  0  0  0  0  0  0  0  0  0  0  0
   25.9410   20.4250   14.9760 N   0  0  0  0  0  0  0  0  0  0  0  0
   25.5930   19.6820   13.8740 C   0  0  0  0  0  0  0  0  0  0  0  0
   25.4890   20.2070   12.7650 O   0  0  0  0  0  0  0  0  0  0  0  0
   25.2130   16.0270   10.5430 N   0  0  0  0  0  0  0  0  0  0  0  0
   25.1750   15.1550    9.5250 C   0  0  0  0  0  0  0  0  0  0  0  0
   21.5670   15.4730    7.6410 C   0  0  0  0  0  0  0  0  0  0  0  0
   20.5510   16.1100    7.0910 N   0  0  0  0  0  0  0  0  0  0  0  0
   18.8815   19.2845    8.7111 H   0  0  0  0  0  0  0  0  0  0  0  0
   19.7359   18.9616    7.1643 H   0  0  0  0  0  0  0  0  0  0  0  0
   17.9682   19.2812    7.1643 H   0  0  0  0  0  0  0  0  0  0  0  0
   17.8404   17.1830    8.7271 H   0  0  0  0  0  0  0  0  0  0  0  0
   18.0898   16.9600    6.9420 H   0  0  0  0  0  0  0  0  0  0  0  0
   19.9474   16.3801   10.3557 H   0  0  0  0  0  0  0  0  0  0  0  0
   23.0477   13.0046    7.8882 H   0  0  0  0  0  0  0  0  0  0  0  0
   25.1128   12.5630    6.5558 H   0  0  0  0  0  0  0  0  0  0  0  0
   27.2145   13.7862    7.1112 H   0  0  0  0  0  0  0  0  0  0  0  0
   28.3831   15.4080    8.5293 H   0  0  0  0  0  0  0  0  0  0  0  0
   24.5551   16.8957   12.5951 H   0  0  0  0  0  0  0  0  0  0  0  0
   24.3403   18.0360   14.5755 H   0  0  0  0  0  0  0  0  0  0  0  0
   26.1787   16.6019   15.3075 H   0  0  0  0  0  0  0  0  0  0  0  0
   27.3782   17.7676   14.6512 H   0  0  0  0  0  0  0  0  0  0  0  0
   25.3406   18.2864   16.8720 H   0  0  0  0  0  0  0  0  0  0  0  0
   27.1335   18.1202   17.0474 H   0  0  0  0  0  0  0  0  0  0  0  0
   25.7773   21.4407   14.9270 H   0  0  0  0  0  0  0  0  0  0  0  0
   22.3763   14.9799    7.0826 H   0  0  0  0  0  0  0  0  0  0  0  0
  1  2  1  0
  2  3  1  0
  3  4  2  0
  4  5  1  0
  5  6  1  0
  6  7  2  0
  6  8  2  0
  6  9  1  0
  9 10  2  0
 10 11  1  0
 11 12  2  0
 12 13  1  0
 13 14  2  0
 14 15  1  0
 15 16  2  0
 16 17  1  0
 17 18  2  0
 17 19  1  0
 19 20  1  0
 20 21  1  0
 21 22  1  0
 22 23  1  0
 23 24  2  0
 23 25  1  0
 25 26  1  0
 26 27  2  0
 16 28  1  0
 28 29  2  0
  5 30  1  0
 30 31  2  0
 31  3  1  0
 29  9  1  0
 29 13  1  0
 26 20  1  0
  1 32  1  0
  1 33  1  0
  1 34  1  0
  2 35  1  0
  2 36  1  0
  4 37  1  0
 10 38  1  0
 11 39  1  0
 12 40  1  0
 14 41  1  0
 19 42  1  0
 20 43  1  1
 21 44  1  0
 21 45  1  0
 22 46  1  0
 22 47  1  0
 25 48  1  0
 30 49  1  0
M  END
>  <meeko>  (1212) 
{"is_sidechain": [true], "free_energy": -10.18, "intermolecular_energy": 0.0, "internal_energy": -10.18, "cluster_size": 15, "cluster_id": 1, "rank_in_cluster": 1}

>  <_RMSD_MCS_to_ref>  (1212) 
0.8188525169067045

$$$$
ligand
     RDKit          3D

 48 51  0  0  0  0  0  0  0  0999 V2000
   18.7970   18.8170    7.7190 C   0  0  0  0  0  0  0  0  0  0  0  0
   18.5280   17.3290    7.8810 C   0  0  0  0  0  0  0  0  0  0  0  0
   19.7810   16.5280    7.8870 C   0  0  0  0  0  0  0  0  0  0  0  0
   20.2960   15.7290    8.8910 C   0  0  0  0  0  0  0  0  0  0  0  0
   21.4600   15.2470    8.3710 N   0  0  0  0  0  0  0  0  0  0  0  0
   22.6390   14.3540    9.1810 S   0  0  0  0  0  6  0  0  0  0  0  0
   22.7410   13.1050    8.4460 O   0  0  0  0  0  0  0  0  0  0  0  0
   23.7700   15.2670    9.2260 O   0  0  0  0  0  0  0  0  0  0  0  0
   22.0610   14.0510   10.7970 C   0  0  0  0  0  0  0  0  0  0  0  0
   21.1440   13.0790   10.9760 C   0  0  0  0  0  0  0  0  0  0  0  0
   20.6380   12.7650   12.2240 N   0  0  0  0  0  0  0  0  0  0  0  0
   20.9950   13.3950   13.4060 C   0  0  0  0  0  0  0  0  0  0  0  0
   20.5180   13.0730   14.4860 O   0  0  0  0  0  0  0  0  0  0  0  0
   21.9790   14.4610   13.2380 C   0  0  0  0  0  0  0  0  0  0  0  0
   22.5480   15.2940   14.2480 C   0  0  0  0  0  0  0  0  0  0  0  0
   23.4500   16.2060   13.7350 C   0  0  0  0  0  0  0  0  0  0  0  0
   24.2210   17.1880   14.4880 C   0  0  0  0  0  0  0  0  0  0  0  0
   23.7210   17.9220   15.3360 O   0  0  0  0  0  0  0  0  0  0  0  0
   25.5690   17.2400   14.2090 N   0  0  0  0  0  0  0  0  0  0  0  0
   26.4950   18.0320   14.9990 C   0  0  2  0  0  0  0  0  0  0  0  0
   26.3170   17.8050   16.4960 C   0  0  0  0  0  0  0  0  0  0  0  0
   27.2850   18.6930   17.2610 C   0  0  0  0  0  0  0  0  0  0  0  0
   27.1110   20.1460   16.8860 C   0  0  0  0  0  0  0  0  0  0  0  0
   27.2740   21.0590   17.6900 O   0  0  0  0  0  0  0  0  0  0  0  0
   26.7860   20.4080   15.5790 N   0  0  0  0  0  0  0  0  0  0  0  0
   26.2550   19.5120   14.6860 C   0  0  0  0  0  0  0  0  0  0  0  0
   25.6350   19.8920   13.6920 O   0  0  0  0  0  0  0  0  0  0  0  0
   23.5720   16.0540   12.0350 S   0  0  0  0  0  0  0  0  0  0  0  0
   22.4680   14.7570   11.9720 C   0  0  0  0  0  0  0  0  0  0  0  0
   21.6220   15.7290    7.1120 C   0  0  0  0  0  0  0  0  0  0  0  0
   20.6210   16.5220    6.7900 N   0  0  0  0  0  0  0  0  0  0  0  0
   18.8815   19.2845    8.7111 H   0  0  0  0  0  0  0  0  0  0  0  0
   19.7359   18.9616    7.1643 H   0  0  0  0  0  0  0  0  0  0  0  0
   17.9682   19.2812    7.1643 H   0  0  0  0  0  0  0  0  0  0  0  0
   17.9992   17.1662    8.8317 H   0  0  0  0  0  0  0  0  0  0  0  0
   17.9219   17.0006    7.0238 H   0  0  0  0  0  0  0  0  0  0  0  0
   19.8648   15.5282    9.8828 H   0  0  0  0  0  0  0  0  0  0  0  0
   20.7866   12.5172   10.1004 H   0  0  0  0  0  0  0  0  0  0  0  0
   19.9438   12.0061   12.2795 H   0  0  0  0  0  0  0  0  0  0  0  0
   22.2962   15.2181   15.3161 H   0  0  0  0  0  0  0  0  0  0  0  0
   25.9328   16.6982   13.4122 H   0  0  0  0  0  0  0  0  0  0  0  0
   27.5186   17.7264   14.7366 H   0  0  0  0  0  0  0  0  0  0  0  0
   25.2850   18.0535   16.7845 H   0  0  0  0  0  0  0  0  0  0  0  0
   26.5200   16.7504   16.7340 H   0  0  0  0  0  0  0  0  0  0  0  0
   27.1018   18.5769   18.3394 H   0  0  0  0  0  0  0  0  0  0  0  0
   28.3108   18.3891   17.0054 H   0  0  0  0  0  0  0  0  0  0  0  0
   26.9562   21.3646   15.2371 H   0  0  0  0  0  0  0  0  0  0  0  0
   22.4702   15.4906    6.4534 H   0  0  0  0  0  0  0  0  0  0  0  0
  1  2  1  0
  2  3  1  0
  3  4  2  0
  4  5  1  0
  5  6  1  0
  6  7  2  0
  6  8  2  0
  6  9  1  0
  9 10  2  0
 10 11  1  0
 11 12  1  0
 12 13  2  0
 12 14  1  0
 14 15  1  0
 15 16  2  0
 16 17  1  0
 17 18  2  0
 17 19  1  0
 19 20  1  0
 20 21  1  0
 21 22  1  0
 22 23  1  0
 23 24  2  0
 23 25  1  0
 25 26  1  0
 26 27  2  0
 16 28  1  0
 28 29  1  0
  5 30  1  0
 30 31  2  0
 31  3  1  0
 29  9  1  0
 29 14  2  0
 26 20  1  0
  1 32  1  0
  1 33  1  0
  1 34  1  0
  2 35  1  0
  2 36  1  0
  4 37  1  0
 10 38  1  0
 11 39  1  0
 15 40  1  0
 19 41  1  0
 20 42  1  6
 21 43  1  0
 21 44  1  0
 22 45  1  0
 22 46  1  0
 25 47  1  0
 30 48  1  0
M  END
>  <meeko>  (1213) 
{"is_sidechain": [true], "free_energy": -10.18, "intermolecular_energy": 0.0, "internal_energy": -10.18, "cluster_size": 11, "cluster_id": 1, "rank_in_cluster": 1}

>  <_RMSD_MCS_to_ref>  (1213) 
0.8562357541393997

$$$$
ligand
     RDKit          3D

 45 48  0  0  0  0  0  0  0  0999 V2000
   18.9090   19.1540    7.5370 C   0  0  0  0  0  0  0  0  0  0  0  0
   18.7730   17.6460    7.6780 C   0  0  0  0  0  0  0  0  0  0  0  0
   20.0060   16.9290    7.2550 C   0  0  0  0  0  0  0  0  0  0  0  0
   20.8890   16.1940    8.0210 C   0  0  0  0  0  0  0  0  0  0  0  0
   21.8390   15.7790    7.1330 N   0  0  0  0  0  0  0  0  0  0  0  0
   23.0540   14.6580    7.4390 S   0  0  0  0  0  6  0  0  0  0  0  0
   22.3830   13.4980    7.9930 O   0  0  0  0  0  0  0  0  0  0  0  0
   23.8520   14.5930    6.2300 O   0  0  0  0  0  0  0  0  0  0  0  0
   24.0170   15.4250    8.7130 C   0  0  0  0  0  0  0  0  0  0  0  0
   25.3870   15.6150    8.5270 C   0  0  0  0  0  0  0  0  0  0  0  0
   26.1540   16.2210    9.5260 C   0  0  0  0  0  0  0  0  0  0  0  0
   25.5080   16.6340   10.7040 C   0  0  0  0  0  0  0  0  0  0  0  0
   26.1710   17.3970   12.0950 S   0  0  0  0  0  0  0  0  0  0  0  0
   24.6150   17.4430   12.8220 C   0  0  0  0  0  0  0  0  0  0  0  0
   24.4570   17.9850   14.0500 N   0  0  0  0  0  0  0  0  0  0  0  0
   25.6370   18.4690   14.7680 C   0  0  2  0  0  0  0  0  0  0  0  0
   25.5150   18.1570   16.2580 C   0  0  0  0  0  0  0  0  0  0  0  0
   26.7170   18.7190   16.9990 C   0  0  0  0  0  0  0  0  0  0  0  0
   26.8590   20.2030   16.7670 C   0  0  0  0  0  0  0  0  0  0  0  0
   27.3430   20.9580   17.6040 O   0  0  0  0  0  0  0  0  0  0  0  0
   26.4600   20.6720   15.5410 N   0  0  0  0  0  0  0  0  0  0  0  0
   25.7480   19.9890   14.5850 C   0  0  0  0  0  0  0  0  0  0  0  0
   25.2440   20.5820   13.6300 O   0  0  0  0  0  0  0  0  0  0  0  0
   23.6480   16.9200   12.1070 N   0  0  0  0  0  0  0  0  0  0  0  0
   24.1380   16.4620   10.8970 C   0  0  0  0  0  0  0  0  0  0  0  0
   23.3750   15.8520    9.8820 C   0  0  0  0  0  0  0  0  0  0  0  0
   21.5050   16.2120    5.8890 C   0  0  0  0  0  0  0  0  0  0  0  0
   20.3980   16.9230    5.9310 N   0  0  0  0  0  0  0  0  0  0  0  0
   18.9504   19.6134    8.5356 H   0  0  0  0  0  0  0  0  0  0  0  0
   19.8320   19.3891    6.9867 H   0  0  0  0  0  0  0  0  0  0  0  0
   18.0430   19.5504    6.9867 H   0  0  0  0  0  0  0  0  0  0  0  0
   18.5672   17.4058    8.7315 H   0  0  0  0  0  0  0  0  0  0  0  0
   17.9507   17.3184    7.0249 H   0  0  0  0  0  0  0  0  0  0  0  0
   20.8384   15.9895    9.1006 H   0  0  0  0  0  0  0  0  0  0  0  0
   25.8644   15.2870    7.5918 H   0  0  0  0  0  0  0  0  0  0  0  0
   27.2357   16.3709    9.3937 H   0  0  0  0  0  0  0  0  0  0  0  0
   23.5210   18.0563   14.4739 H   0  0  0  0  0  0  0  0  0  0  0  0
   26.5307   17.9691   14.3662 H   0  0  0  0  0  0  0  0  0  0  0  0
   24.5956   18.6136   16.6531 H   0  0  0  0  0  0  0  0  0  0  0  0
   25.4765   17.0669   16.4000 H   0  0  0  0  0  0  0  0  0  0  0  0
   26.5920   18.5350   18.0763 H   0  0  0  0  0  0  0  0  0  0  0  0
   27.6219   18.2203   16.6216 H   0  0  0  0  0  0  0  0  0  0  0  0
   26.7228   21.6414   15.3125 H   0  0  0  0  0  0  0  0  0  0  0  0
   22.2909   15.7131   10.0059 H   0  0  0  0  0  0  0  0  0  0  0  0
   22.0790   15.9984    4.9753 H   0  0  0  0  0  0  0  0  0  0  0  0
  1  2  1  0
  2  3  1  0
  3  4  2  0
  4  5  1  0
  5  6  1  0
  6  7  2  0
  6  8  2  0
  6  9  1  0
  9 10  2  0
 10 11  1  0
 11 12  2  0
 12 13  1  0
 13 14  1  0
 14 15  1  0
 15 16  1  0
 16 17  1  0
 17 18  1  0
 18 19  1  0
 19 20  2  0
 19 21  1  0
 21 22  1  0
 22 23  2  0
 14 24  2  0
 24 25  1  0
 25 26  2  0
  5 27  1  0
 27 28  2  0
 28  3  1  0
 26  9  1  0
 25 12  1  0
 22 16  1  0
  1 29  1  0
  1 30  1  0
  1 31  1  0
  2 32  1  0
  2 33  1  0
  4 34  1  0
 10 35  1  0
 11 36  1  0
 15 37  1  0
 16 38  1  6
 17 39  1  0
 17 40  1  0
 18 41  1  0
 18 42  1  0
 21 43  1  0
 26 44  1  0
 27 45  1  0
M  END
>  <meeko>  (1214) 
{"is_sidechain": [true], "free_energy": -10.18, "intermolecular_energy": 0.0, "internal_energy": -10.18, "cluster_size": 20, "cluster_id": 1, "rank_in_cluster": 1}

>  <_RMSD_MCS_to_ref>  (1214) 
0.6722498708730922

$$$$
ligand
     RDKit          3D

 48 51  0  0  0  0  0  0  0  0999 V2000
   18.9090   19.1540    7.5370 C   0  0  0  0  0  0  0  0  0  0  0  0
   18.7730   17.6460    7.6780 C   0  0  0  0  0  0  0  0  0  0  0  0
   19.8930   16.9180    7.0240 C   0  0  0  0  0  0  0  0  0  0  0  0
   21.2110   16.8120    7.4240 C   0  0  0  0  0  0  0  0  0  0  0  0
   21.7940   16.0430    6.4560 N   0  0  0  0  0  0  0  0  0  0  0  0
   23.3710   15.4690    6.4640 S   0  0  0  0  0  6  0  0  0  0  0  0
   23.3640   14.2770    5.6350 O   0  0  0  0  0  0  0  0  0  0  0  0
   24.2030   16.6190    6.1540 O   0  0  0  0  0  0  0  0  0  0  0  0
   23.6960   14.9860    8.1410 C   0  0  0  0  0  0  0  0  0  0  0  0
   23.7220   13.6320    8.4550 C   0  0  0  0  0  0  0  0  0  0  0  0
   23.9840   13.2670    9.7760 C   0  0  0  0  0  0  0  0  0  0  0  0
   24.2060   14.2960   10.7080 C   0  0  0  0  0  0  0  0  0  0  0  0
   24.4940   14.3630   12.0980 C   0  0  0  0  0  0  0  0  0  0  0  0
   24.6110   15.6990   12.4560 C   0  0  0  0  0  0  0  0  0  0  0  0
   24.8890   16.3520   13.7150 C   0  0  0  0  0  0  0  0  0  0  0  0
   24.8710   15.7500   14.7830 O   0  0  0  0  0  0  0  0  0  0  0  0
   25.1630   17.6940   13.6360 N   0  0  0  0  0  0  0  0  0  0  0  0
   25.3130   18.5150   14.8270 C   0  0  1  0  0  0  0  0  0  0  0  0
   26.3030   17.9180   15.8210 C   0  0  0  0  0  0  0  0  0  0  0  0
   26.4410   18.8460   17.0190 C   0  0  0  0  0  0  0  0  0  0  0  0
   26.8410   20.2380   16.5910 C   0  0  0  0  0  0  0  0  0  0  0  0
   27.5690   20.9540   17.2730 O   0  0  0  0  0  0  0  0  0  0  0  0
   26.3270   20.6870   15.4010 N   0  0  0  0  0  0  0  0  0  0  0  0
   25.8110   19.9000   14.4020 C   0  0  0  0  0  0  0  0  0  0  0  0
   25.7500   20.3010   13.2400 O   0  0  0  0  0  0  0  0  0  0  0  0
   24.3900   16.4330   11.3070 N   0  0  0  0  0  0  0  0  0  0  0  0
   24.1490   15.6070   10.2480 C   0  0  0  0  0  0  0  0  0  0  0  0
   23.9030   16.0240    8.9930 N   0  0  0  0  0  0  0  0  0  0  0  0
   20.8510   15.6790    5.5500 C   0  0  0  0  0  0  0  0  0  0  0  0
   19.6840   16.2090    5.8570 N   0  0  0  0  0  0  0  0  0  0  0  0
   18.9504   19.6134    8.5356 H   0  0  0  0  0  0  0  0  0  0  0  0
   19.8320   19.3891    6.9867 H   0  0  0  0  0  0  0  0  0  0  0  0
   18.0430   19.5504    6.9867 H   0  0  0  0  0  0  0  0  0  0  0  0
   18.7605   17.3898    8.7477 H   0  0  0  0  0  0  0  0  0  0  0  0
   17.8384   17.3432    7.1832 H   0  0  0  0  0  0  0  0  0  0  0  0
   21.6833   17.2470    8.3172 H   0  0  0  0  0  0  0  0  0  0  0  0
   23.5410   12.8693    7.6833 H   0  0  0  0  0  0  0  0  0  0  0  0
   24.0158   12.2098   10.0781 H   0  0  0  0  0  0  0  0  0  0  0  0
   24.6052   13.5029   12.7747 H   0  0  0  0  0  0  0  0  0  0  0  0
   25.2651   18.1314   12.7091 H   0  0  0  0  0  0  0  0  0  0  0  0
   24.3345   18.5734   15.3261 H   0  0  0  0  0  0  0  0  0  0  0  0
   25.9378   16.9365   16.1576 H   0  0  0  0  0  0  0  0  0  0  0  0
   27.2827   17.7979   15.3355 H   0  0  0  0  0  0  0  0  0  0  0  0
   25.4769   18.8963   17.5463 H   0  0  0  0  0  0  0  0  0  0  0  0
   27.2251   18.4468   17.6792 H   0  0  0  0  0  0  0  0  0  0  0  0
   26.3285   21.7049   15.2433 H   0  0  0  0  0  0  0  0  0  0  0  0
   24.4050   17.4617   11.2565 H   0  0  0  0  0  0  0  0  0  0  0  0
   21.0353   15.0314    4.6801 H   0  0  0  0  0  0  0  0  0  0  0  0
  1  2  1  0
  2  3  1  0
  3  4  2  0
  4  5  1  0
  5  6  1  0
  6  7  2  0
  6  8  2  0
  6  9  1  0
  9 10  2  0
 10 11  1  0
 11 12  2  0
 12 13  1  0
 13 14  2  0
 14 15  1  0
 15 16  2  0
 15 17  1  0
 17 18  1  0
 18 19  1  0
 19 20  1  0
 20 21  1  0
 21 22  2  0
 21 23  1  0
 23 24  1  0
 24 25  2  0
 14 26  1  0
 26 27  1  0
 27 28  2  0
  5 29  1  0
 29 30  2  0
 30  3  1  0
 28  9  1  0
 27 12  1  0
 24 18  1  0
  1 31  1  0
  1 32  1  0
  1 33  1  0
  2 34  1  0
  2 35  1  0
  4 36  1  0
 10 37  1  0
 11 38  1  0
 13 39  1  0
 17 40  1  0
 18 41  1  1
 19 42  1  0
 19 43  1  0
 20 44  1  0
 20 45  1  0
 23 46  1  0
 26 47  1  0
 29 48  1  0
M  END
>  <meeko>  (1215) 
{"is_sidechain": [true], "free_energy": -10.18, "intermolecular_energy": 0.0, "internal_energy": -10.18, "cluster_size": 20, "cluster_id": 1, "rank_in_cluster": 1}

>  <_RMSD_MCS_to_ref>  (1215) 
0.5850380804319966

$$$$
ligand
     RDKit          3D

 42 44  0  0  0  0  0  0  0  0999 V2000
   18.9090   19.1540    7.5370 C   0  0  0  0  0  0  0  0  0  0  0  0
   18.7730   17.6460    7.6780 C   0  0  0  0  0  0  0  0  0  0  0  0
   20.0960   16.9670    7.7510 C   0  0  0  0  0  0  0  0  0  0  0  0
   20.6390   16.2290    8.7840 C   0  0  0  0  0  0  0  0  0  0  0  0
   21.8720   15.8680    8.3240 N   0  0  0  0  0  0  0  0  0  0  0  0
   22.8990   14.7600    9.0510 S   0  0  0  0  0  6  0  0  0  0  0  0
   22.1600   13.5230    9.1770 O   0  0  0  0  0  0  0  0  0  0  0  0
   24.1730   14.8640    8.3670 O   0  0  0  0  0  0  0  0  0  0  0  0
   23.2330   15.2790   10.6890 C   0  0  0  0  0  0  0  0  0  0  0  0
   24.3640   15.6500   11.3870 C   0  0  0  0  0  0  0  0  0  0  0  0
   23.9250   15.9500   12.7020 C   0  0  0  0  0  0  0  0  0  0  0  0
   24.7540   16.3980   13.8310 C   0  0  0  0  0  0  0  0  0  0  0  0
   25.1210   15.6460   14.7270 O   0  0  0  0  0  0  0  0  0  0  0  0
   25.0830   17.7330   13.7780 N   0  0  0  0  0  0  0  0  0  0  0  0
   26.0340   18.3390   14.6890 C   0  0  2  0  0  0  0  0  0  0  0  0
   25.7040   18.0320   16.1460 C   0  0  0  0  0  0  0  0  0  0  0  0
   26.7190   18.7100   17.0510 C   0  0  0  0  0  0  0  0  0  0  0  0
   26.7790   20.1970   16.7930 C   0  0  0  0  0  0  0  0  0  0  0  0
   27.0110   21.0110   17.6800 O   0  0  0  0  0  0  0  0  0  0  0  0
   26.5900   20.6010   15.4950 N   0  0  0  0  0  0  0  0  0  0  0  0
   26.0330   19.8580   14.4840 C   0  0  0  0  0  0  0  0  0  0  0  0
   25.5860   20.4010   13.4740 O   0  0  0  0  0  0  0  0  0  0  0  0
   22.5920   15.7750   12.8140 N   0  0  0  0  0  0  0  0  0  0  0  0
   22.2080   15.3930   11.5830 N   0  0  0  0  0  0  0  0  0  0  0  0
   22.0230   16.3160    7.0520 C   0  0  0  0  0  0  0  0  0  0  0  0
   20.9660   17.0070    6.6790 N   0  0  0  0  0  0  0  0  0  0  0  0
   18.9504   19.6134    8.5356 H   0  0  0  0  0  0  0  0  0  0  0  0
   19.8320   19.3891    6.9867 H   0  0  0  0  0  0  0  0  0  0  0  0
   18.0430   19.5504    6.9867 H   0  0  0  0  0  0  0  0  0  0  0  0
   18.2103   17.4253    8.5970 H   0  0  0  0  0  0  0  0  0  0  0  0
   18.2484   17.2692    6.7876 H   0  0  0  0  0  0  0  0  0  0  0  0
   20.1823   15.9874    9.7551 H   0  0  0  0  0  0  0  0  0  0  0  0
   25.3935   15.7023   11.0030 H   0  0  0  0  0  0  0  0  0  0  0  0
   24.6362   18.3248   13.0632 H   0  0  0  0  0  0  0  0  0  0  0  0
   27.0257   17.9168   14.4696 H   0  0  0  0  0  0  0  0  0  0  0  0
   24.6966   18.4066   16.3802 H   0  0  0  0  0  0  0  0  0  0  0  0
   25.7386   16.9445   16.3076 H   0  0  0  0  0  0  0  0  0  0  0  0
   26.4339   18.5397   18.0997 H   0  0  0  0  0  0  0  0  0  0  0  0
   27.7104   18.2816   16.8422 H   0  0  0  0  0  0  0  0  0  0  0  0
   26.8960   21.5550   15.2561 H   0  0  0  0  0  0  0  0  0  0  0  0
   21.2262   15.2031   11.3364 H   0  0  0  0  0  0  0  0  0  0  0  0
   22.9044   16.1283    6.4212 H   0  0  0  0  0  0  0  0  0  0  0  0
  1  2  1  0
  2  3  1  0
  3  4  2  0
  4  5  1  0
  5  6  1  0
  6  7  2  0
  6  8  2  0
  6  9  1  0
  9 10  2  0
 10 11  1  0
 11 12  1  0
 12 13  2  0
 12 14  1  0
 14 15  1  0
 15 16  1  0
 16 17  1  0
 17 18  1  0
 18 19  2  0
 18 20  1  0
 20 21  1  0
 21 22  2  0
 11 23  2  0
 23 24  1  0
  5 25  1  0
 25 26  2  0
 26  3  1  0
 24  9  1  0
 21 15  1  0
  1 27  1  0
  1 28  1  0
  1 29  1  0
  2 30  1  0
  2 31  1  0
  4 32  1  0
 10 33  1  0
 14 34  1  0
 15 35  1  6
 16 36  1  0
 16 37  1  0
 17 38  1  0
 17 39  1  0
 20 40  1  0
 24 41  1  0
 25 42  1  0
M  END
>  <meeko>  (1216) 
{"is_sidechain": [true], "free_energy": -10.18, "intermolecular_energy": 0.0, "internal_energy": -10.18, "cluster_size": 18, "cluster_id": 1, "rank_in_cluster": 1}

>  <_RMSD_MCS_to_ref>  (1216) 
0.7619477964036931

$$$$
ligand
     RDKit          3D

 49 52  0  0  0  0  0  0  0  0999 V2000
   18.9090   19.1540    7.5370 C   0  0  0  0  0  0  0  0  0  0  0  0
   18.7730   17.6460    7.6780 C   0  0  0  0  0  0  0  0  0  0  0  0
   20.0930   16.9590    7.6580 C   0  0  0  0  0  0  0  0  0  0  0  0
   21.0200   16.8300    8.6740 C   0  0  0  0  0  0  0  0  0  0  0  0
   22.0410   16.1240    8.1080 N   0  0  0  0  0  0  0  0  0  0  0  0
   23.3470   15.4500    8.9270 S   0  0  0  0  0  6  0  0  0  0  0  0
   23.5470   14.1450    8.3250 O   0  0  0  0  0  0  0  0  0  0  0  0
   24.3800   16.4650    8.9430 O   0  0  0  0  0  0  0  0  0  0  0  0
   22.7490   15.2450   10.5650 C   0  0  0  0  0  0  0  0  0  0  0  0
   23.4230   15.8360   11.6440 C   0  0  0  0  0  0  0  0  0  0  0  0
   22.9410   15.6880   12.9690 C   0  0  0  0  0  0  0  0  0  0  0  0
   23.6960   16.3700   14.0570 C   0  0  0  0  0  0  0  0  0  0  0  0
   24.0260   15.7430   15.0560 O   0  0  0  0  0  0  0  0  0  0  0  0
   23.9600   17.7090   13.8860 N   0  0  0  0  0  0  0  0  0  0  0  0
   24.5510   18.5010   14.9580 C   0  0  1  0  0  0  0  0  0  0  0  0
   25.6990   17.7750   15.6510 C   0  0  0  0  0  0  0  0  0  0  0  0
   26.2960   18.6760   16.7210 C   0  0  0  0  0  0  0  0  0  0  0  0
   26.7350   20.0000   16.1410 C   0  0  0  0  0  0  0  0  0  0  0  0
   27.7170   20.6090   16.5560 O   0  0  0  0  0  0  0  0  0  0  0  0
   25.9620   20.5150   15.1300 N   0  0  0  0  0  0  0  0  0  0  0  0
   25.0800   19.8050   14.3550 C   0  0  0  0  0  0  0  0  0  0  0  0
   24.7350   20.2100   13.2440 O   0  0  0  0  0  0  0  0  0  0  0  0
   21.7730   14.9530   13.2280 C   0  0  0  0  0  0  0  0  0  0  0  0
   21.1500   14.3770   12.1440 C   0  0  0  0  0  0  0  0  0  0  0  0
   20.0010   13.5950   12.1110 N   0  0  0  0  0  0  0  0  0  0  0  0
   19.7480   13.2140   10.7840 C   0  0  0  0  0  0  0  0  0  0  0  0
   18.8330   12.5150   10.3930 O   0  0  0  0  0  0  0  0  0  0  0  0
   20.7590   13.7960   10.0080 N   0  0  0  0  0  0  0  0  0  0  0  0
   21.6220   14.5080   10.8370 C   0  0  0  0  0  0  0  0  0  0  0  0
   21.7120   15.8120    6.8280 C   0  0  0  0  0  0  0  0  0  0  0  0
   20.5350   16.3150    6.5190 N   0  0  0  0  0  0  0  0  0  0  0  0
   18.9504   19.6134    8.5356 H   0  0  0  0  0  0  0  0  0  0  0  0
   19.8320   19.3891    6.9867 H   0  0  0  0  0  0  0  0  0  0  0  0
   18.0430   19.5504    6.9867 H   0  0  0  0  0  0  0  0  0  0  0  0
   18.2718   17.4230    8.6315 H   0  0  0  0  0  0  0  0  0  0  0  0
   18.1874   17.2780    6.8227 H   0  0  0  0  0  0  0  0  0  0  0  0
   20.9508   17.2097    9.7040 H   0  0  0  0  0  0  0  0  0  0  0  0
   24.3361   16.4211   11.4599 H   0  0  0  0  0  0  0  0  0  0  0  0
   23.7368   18.1591   12.9868 H   0  0  0  0  0  0  0  0  0  0  0  0
   23.7744   18.6888   15.7140 H   0  0  0  0  0  0  0  0  0  0  0  0
   25.3216   16.8528   16.1169 H   0  0  0  0  0  0  0  0  0  0  0  0
   26.4727   17.5219   14.9112 H   0  0  0  0  0  0  0  0  0  0  0  0
   25.5397   18.8585   17.4986 H   0  0  0  0  0  0  0  0  0  0  0  0
   27.1775   18.1736   17.1459 H   0  0  0  0  0  0  0  0  0  0  0  0
   26.0521   21.5226   14.9363 H   0  0  0  0  0  0  0  0  0  0  0  0
   21.3751   14.8428   14.2476 H   0  0  0  0  0  0  0  0  0  0  0  0
   19.4285   13.3372   12.9275 H   0  0  0  0  0  0  0  0  0  0  0  0
   20.8496   13.7107    8.9855 H   0  0  0  0  0  0  0  0  0  0  0  0
   22.3406   15.2218    6.1450 H   0  0  0  0  0  0  0  0  0  0  0  0
  1  2  1  0
  2  3  1  0
  3  4  2  0
  4  5  1  0
  5  6  1  0
  6  7  2  0
  6  8  2  0
  6  9  1  0
  9 10  2  0
 10 11  1  0
 11 12  1  0
 12 13  2  0
 12 14  1  0
 14 15  1  0
 15 16  1  0
 16 17  1  0
 17 18  1  0
 18 19  2  0
 18 20  1  0
 20 21  1  0
 21 22  2  0
 11 23  2  0
 23 24  1  0
 24 25  1  0
 25 26  1  0
 26 27  2  0
 26 28  1  0
 28 29  1  0
  5 30  1  0
 30 31  2  0
 31  3  1  0
 29  9  1  0
 21 15  1  0
 29 24  2  0
  1 32  1  0
  1 33  1  0
  1 34  1  0
  2 35  1  0
  2 36  1  0
  4 37  1  0
 10 38  1  0
 14 39  1  0
 15 40  1  1
 16 41  1  0
 16 42  1  0
 17 43  1  0
 17 44  1  0
 20 45  1  0
 23 46  1  0
 25 47  1  0
 28 48  1  0
 30 49  1  0
M  END
>  <meeko>  (1217) 
{"is_sidechain": [true], "free_energy": -10.18, "intermolecular_energy": 0.0, "internal_energy": -10.18, "cluster_size": 20, "cluster_id": 1, "rank_in_cluster": 1}

>  <_RMSD_MCS_to_ref>  (1217) 
0.4183244354963419

$$$$
ligand
     RDKit          3D

 50 53  0  0  0  0  0  0  0  0999 V2000
   18.9090   19.1540    7.5370 C   0  0  0  0  0  0  0  0  0  0  0  0
   18.7730   17.6460    7.6780 C   0  0  0  0  0  0  0  0  0  0  0  0
   20.0900   16.9550    7.6270 C   0  0  0  0  0  0  0  0  0  0  0  0
   21.0380   16.8190    8.6220 C   0  0  0  0  0  0  0  0  0  0  0  0
   22.0330   16.0880    8.0380 N   0  0  0  0  0  0  0  0  0  0  0  0
   23.4740   15.6310    8.7720 S   0  0  0  0  0  6  0  0  0  0  0  0
   23.6860   14.2710    8.3080 O   0  0  0  0  0  0  0  0  0  0  0  0
   24.4360   16.6840    8.5160 O   0  0  0  0  0  0  0  0  0  0  0  0
   23.1710   15.5600   10.5140 C   0  0  0  0  0  0  0  0  0  0  0  0
   23.9410   16.3880   11.3490 C   0  0  0  0  0  0  0  0  0  0  0  0
   23.7510   16.3700   12.7370 C   0  0  0  0  0  0  0  0  0  0  0  0
   24.5860   17.2700   13.5790 C   0  0  0  0  0  0  0  0  0  0  0  0
   25.8020   17.2940   13.4320 O   0  0  0  0  0  0  0  0  0  0  0  0
   23.9280   18.0240   14.5240 N   0  0  0  0  0  0  0  0  0  0  0  0
   24.6700   18.8240   15.4900 C   0  0  1  0  0  0  0  0  0  0  0  0
   25.7210   18.0040   16.2300 C   0  0  0  0  0  0  0  0  0  0  0  0
   26.4850   18.9060   17.1880 C   0  0  0  0  0  0  0  0  0  0  0  0
   27.0950   20.0830   16.4660 C   0  0  0  0  0  0  0  0  0  0  0  0
   28.1650   20.5830   16.8040 O   0  0  0  0  0  0  0  0  0  0  0  0
   26.3770   20.6010   15.4180 N   0  0  0  0  0  0  0  0  0  0  0  0
   25.3610   19.9690   14.7450 C   0  0  0  0  0  0  0  0  0  0  0  0
   25.0260   20.3220   13.6140 O   0  0  0  0  0  0  0  0  0  0  0  0
   22.7720   15.5390   13.2820 C   0  0  0  0  0  0  0  0  0  0  0  0
   22.0070   14.7290   12.4340 C   0  0  0  0  0  0  0  0  0  0  0  0
   20.9650   13.8480   12.9980 C   0  0  0  0  0  0  0  0  0  0  0  0
   20.7500   13.7910   14.2010 O   0  0  0  0  0  0  0  0  0  0  0  0
   20.2640   13.1010   12.0890 N   0  0  0  0  0  0  0  0  0  0  0  0
   20.5030   13.1580   10.7490 C   0  0  0  0  0  0  0  0  0  0  0  0
   21.4000   13.9100   10.2120 N   0  0  0  0  0  0  0  0  0  0  0  0
   22.1880   14.7210   11.0430 C   0  0  0  0  0  0  0  0  0  0  0  0
   21.6840   15.8020    6.7570 C   0  0  0  0  0  0  0  0  0  0  0  0
   20.5080   16.3250    6.4720 N   0  0  0  0  0  0  0  0  0  0  0  0
   18.9504   19.6134    8.5356 H   0  0  0  0  0  0  0  0  0  0  0  0
   19.8320   19.3891    6.9867 H   0  0  0  0  0  0  0  0  0  0  0  0
   18.0430   19.5504    6.9867 H   0  0  0  0  0  0  0  0  0  0  0  0
   18.2928   17.4223    8.6421 H   0  0  0  0  0  0  0  0  0  0  0  0
   18.1678   17.2815    6.8349 H   0  0  0  0  0  0  0  0  0  0  0  0
   21.0004   17.2099    9.6495 H   0  0  0  0  0  0  0  0  0  0  0  0
   24.6978   17.0546   10.9098 H   0  0  0  0  0  0  0  0  0  0  0  0
   22.8983   18.0228   14.5487 H   0  0  0  0  0  0  0  0  0  0  0  0
   23.9590   19.2054   16.2377 H   0  0  0  0  0  0  0  0  0  0  0  0
   25.2273   17.2011   16.7971 H   0  0  0  0  0  0  0  0  0  0  0  0
   26.4204   17.5633   15.5043 H   0  0  0  0  0  0  0  0  0  0  0  0
   25.7934   19.2777   17.9584 H   0  0  0  0  0  0  0  0  0  0  0  0
   27.2968   18.3198   17.6433 H   0  0  0  0  0  0  0  0  0  0  0  0
   26.6229   21.5518   15.1075 H   0  0  0  0  0  0  0  0  0  0  0  0
   22.6025   15.5203   14.3687 H   0  0  0  0  0  0  0  0  0  0  0  0
   19.5258   12.4702   12.4326 H   0  0  0  0  0  0  0  0  0  0  0  0
   19.8942   12.5247   10.0870 H   0  0  0  0  0  0  0  0  0  0  0  0
   22.2966   15.2162    6.0558 H   0  0  0  0  0  0  0  0  0  0  0  0
  1  2  1  0
  2  3  1  0
  3  4  2  0
  4  5  1  0
  5  6  1  0
  6  7  2  0
  6  8  2  0
  6  9  1  0
  9 10  2  0
 10 11  1  0
 11 12  1  0
 12 13  2  0
 12 14  1  0
 14 15  1  0
 15 16  1  0
 16 17  1  0
 17 18  1  0
 18 19  2  0
 18 20  1  0
 20 21  1  0
 21 22  2  0
 11 23  2  0
 23 24  1  0
 24 25  1  0
 25 26  2  0
 25 27  1  0
 27 28  1  0
 28 29  2  0
 29 30  1  0
  5 31  1  0
 31 32  2  0
 32  3  1  0
 30  9  1  0
 21 15  1  0
 30 24  2  0
  1 33  1  0
  1 34  1  0
  1 35  1  0
  2 36  1  0
  2 37  1  0
  4 38  1  0
 10 39  1  0
 14 40  1  0
 15 41  1  1
 16 42  1  0
 16 43  1  0
 17 44  1  0
 17 45  1  0
 20 46  1  0
 23 47  1  0
 27 48  1  0
 28 49  1  0
 31 50  1  0
M  END
>  <meeko>  (1218) 
{"is_sidechain": [true], "free_energy": -10.18, "intermolecular_energy": 0.0, "internal_energy": -10.18, "cluster_size": 19, "cluster_id": 1, "rank_in_cluster": 1}

>  <_RMSD_MCS_to_ref>  (1218) 
0.7442438369841491

$$$$
ligand
     RDKit          3D

 45 48  0  0  0  0  0  0  0  0999 V2000
   18.9090   19.1540    7.5370 C   0  0  0  0  0  0  0  0  0  0  0  0
   18.7730   17.6460    7.6780 C   0  0  0  0  0  0  0  0  0  0  0  0
   20.0910   16.9530    7.6380 C   0  0  0  0  0  0  0  0  0  0  0  0
   21.0260   16.8060    8.6440 C   0  0  0  0  0  0  0  0  0  0  0  0
   22.0570   16.1340    8.0500 N   0  0  0  0  0  0  0  0  0  0  0  0
   23.4350   15.5490    8.8020 S   0  0  0  0  0  6  0  0  0  0  0  0
   23.4710   14.1270    8.5190 O   0  0  0  0  0  0  0  0  0  0  0  0
   24.5180   16.4540    8.4710 O   0  0  0  0  0  0  0  0  0  0  0  0
   23.2240   15.6760   10.5200 C   0  0  0  0  0  0  0  0  0  0  0  0
   22.4430   14.7990   11.2880 C   0  0  0  0  0  0  0  0  0  0  0  0
   22.4510   15.3340   12.5550 C   0  0  0  0  0  0  0  0  0  0  0  0
   21.8220   14.9260   13.6950 N   0  0  0  0  0  0  0  0  0  0  0  0
   21.9400   15.7190   14.7150 C   0  0  0  0  0  0  0  0  0  0  0  0
   22.6920   16.9980   14.7540 C   0  0  0  0  0  0  0  0  0  0  0  0
   23.3460   17.3630   13.6340 C   0  0  0  0  0  0  0  0  0  0  0  0
   24.0840   18.5600   13.6000 N   0  0  0  0  0  0  0  0  0  0  0  0
   25.2840   18.8720   14.3880 C   0  0  2  0  0  0  0  0  0  0  0  0
   25.0580   18.4410   15.8360 C   0  0  0  0  0  0  0  0  0  0  0  0
   26.3400   18.6520   16.6260 C   0  0  0  0  0  0  0  0  0  0  0  0
   26.8550   20.0690   16.5070 C   0  0  0  0  0  0  0  0  0  0  0  0
   27.5380   20.5820   17.3900 O   0  0  0  0  0  0  0  0  0  0  0  0
   26.5530   20.7410   15.3510 N   0  0  0  0  0  0  0  0  0  0  0  0
   25.6350   20.3710   14.3920 C   0  0  0  0  0  0  0  0  0  0  0  0
   25.1520   21.2050   13.6280 O   0  0  0  0  0  0  0  0  0  0  0  0
   23.2320   16.5020   12.4980 N   0  0  0  0  0  0  0  0  0  0  0  0
   23.7710   16.6570   11.2500 N   0  0  0  0  0  0  0  0  0  0  0  0
   21.7130   15.8400    6.7680 C   0  0  0  0  0  0  0  0  0  0  0  0
   20.5210   16.3230    6.4840 N   0  0  0  0  0  0  0  0  0  0  0  0
   18.9504   19.6134    8.5356 H   0  0  0  0  0  0  0  0  0  0  0  0
   19.8320   19.3891    6.9867 H   0  0  0  0  0  0  0  0  0  0  0  0
   18.0430   19.5504    6.9867 H   0  0  0  0  0  0  0  0  0  0  0  0
   18.2852   17.4231    8.6384 H   0  0  0  0  0  0  0  0  0  0  0  0
   18.1754   17.2814    6.8296 H   0  0  0  0  0  0  0  0  0  0  0  0
   20.9565   17.1513    9.6861 H   0  0  0  0  0  0  0  0  0  0  0  0
   21.9352   13.8835   10.9504 H   0  0  0  0  0  0  0  0  0  0  0  0
   21.4329   15.4134   15.6421 H   0  0  0  0  0  0  0  0  0  0  0  0
   22.7145   17.6220   15.6596 H   0  0  0  0  0  0  0  0  0  0  0  0
   23.7491   19.2920   12.9574 H   0  0  0  0  0  0  0  0  0  0  0  0
   26.1182   18.3295   13.9191 H   0  0  0  0  0  0  0  0  0  0  0  0
   24.2504   19.0434   16.2774 H   0  0  0  0  0  0  0  0  0  0  0  0
   24.7761   17.3781   15.8657 H   0  0  0  0  0  0  0  0  0  0  0  0
   26.1433   18.4340   17.6861 H   0  0  0  0  0  0  0  0  0  0  0  0
   27.1058   17.9777   16.2152 H   0  0  0  0  0  0  0  0  0  0  0  0
   27.0676   21.6168   15.1808 H   0  0  0  0  0  0  0  0  0  0  0  0
   22.3435   15.2763    6.0646 H   0  0  0  0  0  0  0  0  0  0  0  0
  1  2  1  0
  2  3  1  0
  3  4  2  0
  4  5  1  0
  5  6  1  0
  6  7  2  0
  6  8  2  0
  6  9  1  0
  9 10  1  0
 10 11  2  0
 11 12  1  0
 12 13  2  0
 13 14  1  0
 14 15  2  0
 15 16  1  0
 16 17  1  0
 17 18  1  0
 18 19  1  0
 19 20  1  0
 20 21  2  0
 20 22  1  0
 22 23  1  0
 23 24  2  0
 15 25  1  0
 25 26  1  0
  5 27  1  0
 27 28  2  0
 28  3  1  0
 26  9  2  0
 25 11  1  0
 23 17  1  0
  1 29  1  0
  1 30  1  0
  1 31  1  0
  2 32  1  0
  2 33  1  0
  4 34  1  0
 10 35  1  0
 13 36  1  0
 14 37  1  0
 16 38  1  0
 17 39  1  6
 18 40  1  0
 18 41  1  0
 19 42  1  0
 19 43  1  0
 22 44  1  0
 27 45  1  0
M  END
>  <meeko>  (1219) 
{"is_sidechain": [true], "free_energy": -10.18, "intermolecular_energy": 0.0, "internal_energy": -10.18, "cluster_size": 19, "cluster_id": 1, "rank_in_cluster": 1}

>  <_RMSD_MCS_to_ref>  (1219) 
0.8181125296138125

$$$$
ligand
     RDKit          3D

 45 48  0  0  0  0  0  0  0  0999 V2000
   18.9090   19.1540    7.5370 C   0  0  0  0  0  0  0  0  0  0  0  0
   18.7730   17.6460    7.6780 C   0  0  0  0  0  0  0  0  0  0  0  0
   20.0760   16.9890    7.9720 C   0  0  0  0  0  0  0  0  0  0  0  0
   20.4960   16.3770    9.1370 C   0  0  0  0  0  0  0  0  0  0  0  0
   21.7720   15.9720    8.8640 N   0  0  0  0  0  0  0  0  0  0  0  0
   22.7320   14.9760    9.8290 S   0  0  0  0  0  6  0  0  0  0  0  0
   21.8280   14.5120   10.8690 O   0  0  0  0  0  0  0  0  0  0  0  0
   23.3860   14.0660    8.9030 O   0  0  0  0  0  0  0  0  0  0  0  0
   23.9280   16.1000   10.5170 C   0  0  0  0  0  0  0  0  0  0  0  0
   23.6000   16.6080   11.7240 N   0  0  0  0  0  0  0  0  0  0  0  0
   24.5310   17.3240   12.3900 C   0  0  0  0  0  0  0  0  0  0  0  0
   24.2510   17.7990   13.6780 N   0  0  0  0  0  0  0  0  0  0  0  0
   25.3970   18.3870   14.3910 C   0  0  2  0  0  0  0  0  0  0  0  0
   25.3020   18.0070   15.8670 C   0  0  0  0  0  0  0  0  0  0  0  0
   26.5110   18.5580   16.6080 C   0  0  0  0  0  0  0  0  0  0  0  0
   26.6340   20.0520   16.4270 C   0  0  0  0  0  0  0  0  0  0  0  0
   27.0970   20.7790   17.3000 O   0  0  0  0  0  0  0  0  0  0  0  0
   26.2160   20.5610   15.2240 N   0  0  0  0  0  0  0  0  0  0  0  0
   25.4310   19.9250   14.2900 C   0  0  0  0  0  0  0  0  0  0  0  0
   24.7980   20.5770   13.4600 O   0  0  0  0  0  0  0  0  0  0  0  0
   25.7680   17.5480   11.7530 C   0  0  0  0  0  0  0  0  0  0  0  0
   26.9750   18.2370   12.0630 C   0  0  0  0  0  0  0  0  0  0  0  0
   27.8390   18.0710   11.0000 C   0  0  0  0  0  0  0  0  0  0  0  0
   27.2030   17.3050   10.0580 N   0  0  0  0  0  0  0  0  0  0  0  0
   25.9480   16.9810   10.4980 C   0  0  0  0  0  0  0  0  0  0  0  0
   25.0730   16.2270    9.8140 N   0  0  0  0  0  0  0  0  0  0  0  0
   22.0770   16.3060    7.5810 C   0  0  0  0  0  0  0  0  0  0  0  0
   21.0590   16.9140    7.0050 N   0  0  0  0  0  0  0  0  0  0  0  0
   18.9504   19.6134    8.5356 H   0  0  0  0  0  0  0  0  0  0  0  0
   19.8320   19.3891    6.9867 H   0  0  0  0  0  0  0  0  0  0  0  0
   18.0430   19.5504    6.9867 H   0  0  0  0  0  0  0  0  0  0  0  0
   18.0735   17.4286    8.4986 H   0  0  0  0  0  0  0  0  0  0  0  0
   18.4031   17.2493    6.7210 H   0  0  0  0  0  0  0  0  0  0  0  0
   19.9315   16.2456   10.0719 H   0  0  0  0  0  0  0  0  0  0  0  0
   23.3113   17.7410   14.0958 H   0  0  0  0  0  0  0  0  0  0  0  0
   26.3132   17.9959   13.9245 H   0  0  0  0  0  0  0  0  0  0  0  0
   24.3828   18.4315   16.2971 H   0  0  0  0  0  0  0  0  0  0  0  0
   25.2786   16.9116   15.9642 H   0  0  0  0  0  0  0  0  0  0  0  0
   26.4061   18.3348   17.6800 H   0  0  0  0  0  0  0  0  0  0  0  0
   27.4146   18.0839   16.1972 H   0  0  0  0  0  0  0  0  0  0  0  0
   26.5212   21.5180   14.9963 H   0  0  0  0  0  0  0  0  0  0  0  0
   27.1816   18.8006   12.9848 H   0  0  0  0  0  0  0  0  0  0  0  0
   28.8570   18.4805   10.9224 H   0  0  0  0  0  0  0  0  0  0  0  0
   27.6080   17.0169    9.1559 H   0  0  0  0  0  0  0  0  0  0  0  0
   23.0400   16.0975    7.0918 H   0  0  0  0  0  0  0  0  0  0  0  0
  1  2  1  0
  2  3  1  0
  3  4  2  0
  4  5  1  0
  5  6  1  0
  6  7  2  0
  6  8  2  0
  6  9  1  0
  9 10  2  0
 10 11  1  0
 11 12  1  0
 12 13  1  0
 13 14  1  0
 14 15  1  0
 15 16  1  0
 16 17  2  0
 16 18  1  0
 18 19  1  0
 19 20  2  0
 11 21  2  0
 21 22  1  0
 22 23  2  0
 23 24  1  0
 24 25  1  0
 25 26  2  0
  5 27  1  0
 27 28  2  0
 28  3  1  0
 26  9  1  0
 19 13  1  0
 25 21  1  0
  1 29  1  0
  1 30  1  0
  1 31  1  0
  2 32  1  0
  2 33  1  0
  4 34  1  0
 12 35  1  0
 13 36  1  6
 14 37  1  0
 14 38  1  0
 15 39  1  0
 15 40  1  0
 18 41  1  0
 22 42  1  0
 23 43  1  0
 24 44  1  0
 27 45  1  0
M  END
>  <meeko>  (1220) 
{"is_sidechain": [true], "free_energy": -10.18, "intermolecular_energy": 0.0, "internal_energy": -10.18, "cluster_size": 8, "cluster_id": 1, "rank_in_cluster": 1}

>  <_RMSD_MCS_to_ref>  (1220) 
0.4550880256731784

$$$$
ligand
     RDKit          3D

 44 47  0  0  0  0  0  0  0  0999 V2000
   18.9090   19.1540    7.5370 C   0  0  0  0  0  0  0  0  0  0  0  0
   18.7730   17.6460    7.6780 C   0  0  0  0  0  0  0  0  0  0  0  0
   20.0520   17.0040    8.0850 C   0  0  0  0  0  0  0  0  0  0  0  0
   20.3510   16.3280    9.2520 C   0  0  0  0  0  0  0  0  0  0  0  0
   21.6480   15.9310    9.0860 N   0  0  0  0  0  0  0  0  0  0  0  0
   22.5070   14.9030   10.1030 S   0  0  0  0  0  6  0  0  0  0  0  0
   21.5970   14.6120   11.1990 O   0  0  0  0  0  0  0  0  0  0  0  0
   23.0280   13.8650    9.2280 O   0  0  0  0  0  0  0  0  0  0  0  0
   23.8520   15.9050   10.7000 C   0  0  0  0  0  0  0  0  0  0  0  0
   23.6780   16.4590   11.9220 N   0  0  0  0  0  0  0  0  0  0  0  0
   24.6650   17.2440   12.4200 C   0  0  0  0  0  0  0  0  0  0  0  0
   24.4320   17.7630   13.6890 N   0  0  0  0  0  0  0  0  0  0  0  0
   25.5660   18.3190   14.4340 C   0  0  2  0  0  0  0  0  0  0  0  0
   25.3960   18.0170   15.9200 C   0  0  0  0  0  0  0  0  0  0  0  0
   26.5460   18.6330   16.6990 C   0  0  0  0  0  0  0  0  0  0  0  0
   26.6290   20.1210   16.4610 C   0  0  0  0  0  0  0  0  0  0  0  0
   27.0820   20.8970   17.2990 O   0  0  0  0  0  0  0  0  0  0  0  0
   26.2160   20.5710   15.2330 N   0  0  0  0  0  0  0  0  0  0  0  0
   25.5970   19.8460   14.2440 C   0  0  0  0  0  0  0  0  0  0  0  0
   25.1250   20.4050   13.2540 O   0  0  0  0  0  0  0  0  0  0  0  0
   25.8150   17.4390   11.6200 C   0  0  0  0  0  0  0  0  0  0  0  0
   26.9750   18.1720   11.7970 N   0  0  0  0  0  0  0  0  0  0  0  0
   27.6840   17.9650   10.7080 C   0  0  0  0  0  0  0  0  0  0  0  0
   27.0370   17.1410    9.8280 N   0  0  0  0  0  0  0  0  0  0  0  0
   25.8400   16.8000   10.3890 C   0  0  0  0  0  0  0  0  0  0  0  0
   24.9000   16.0130    9.8480 N   0  0  0  0  0  0  0  0  0  0  0  0
   22.0850   16.3400    7.8670 C   0  0  0  0  0  0  0  0  0  0  0  0
   21.1430   17.0120    7.2380 N   0  0  0  0  0  0  0  0  0  0  0  0
   18.9504   19.6134    8.5356 H   0  0  0  0  0  0  0  0  0  0  0  0
   19.8320   19.3891    6.9867 H   0  0  0  0  0  0  0  0  0  0  0  0
   18.0430   19.5504    6.9867 H   0  0  0  0  0  0  0  0  0  0  0  0
   18.0091   17.4284    8.4390 H   0  0  0  0  0  0  0  0  0  0  0  0
   18.4868   17.2387    6.6971 H   0  0  0  0  0  0  0  0  0  0  0  0
   19.6951   16.1500   10.1170 H   0  0  0  0  0  0  0  0  0  0  0  0
   23.4857   17.7570   14.0957 H   0  0  0  0  0  0  0  0  0  0  0  0
   26.4999   17.8707   14.0642 H   0  0  0  0  0  0  0  0  0  0  0  0
   24.4449   18.4418   16.2736 H   0  0  0  0  0  0  0  0  0  0  0  0
   25.3920   16.9278   16.0738 H   0  0  0  0  0  0  0  0  0  0  0  0
   26.3919   18.4491   17.7725 H   0  0  0  0  0  0  0  0  0  0  0  0
   27.4849   18.1721   16.3583 H   0  0  0  0  0  0  0  0  0  0  0  0
   26.3897   21.5656   15.0292 H   0  0  0  0  0  0  0  0  0  0  0  0
   28.6772   18.4018   10.5269 H   0  0  0  0  0  0  0  0  0  0  0  0
   27.3888   16.8340    8.9099 H   0  0  0  0  0  0  0  0  0  0  0  0
   23.0872   16.1380    7.4611 H   0  0  0  0  0  0  0  0  0  0  0  0
  1  2  1  0
  2  3  1  0
  3  4  2  0
  4  5  1  0
  5  6  1  0
  6  7  2  0
  6  8  2  0
  6  9  1  0
  9 10  2  0
 10 11  1  0
 11 12  1  0
 12 13  1  0
 13 14  1  0
 14 15  1  0
 15 16  1  0
 16 17  2  0
 16 18  1  0
 18 19  1  0
 19 20  2  0
 11 21  2  0
 21 22  1  0
 22 23  2  0
 23 24  1  0
 24 25  1  0
 25 26  2  0
  5 27  1  0
 27 28  2  0
 28  3  1  0
 26  9  1  0
 19 13  1  0
 25 21  1  0
  1 29  1  0
  1 30  1  0
  1 31  1  0
  2 32  1  0
  2 33  1  0
  4 34  1  0
 12 35  1  0
 13 36  1  6
 14 37  1  0
 14 38  1  0
 15 39  1  0
 15 40  1  0
 18 41  1  0
 23 42  1  0
 24 43  1  0
 27 44  1  0
M  END
>  <meeko>  (1221) 
{"is_sidechain": [true], "free_energy": -10.18, "intermolecular_energy": 0.0, "internal_energy": -10.18, "cluster_size": 4, "cluster_id": 1, "rank_in_cluster": 1}

>  <_RMSD_MCS_to_ref>  (1221) 
0.48565682900125656

$$$$
ligand
     RDKit          3D

 46 49  0  0  0  0  0  0  0  0999 V2000
   18.8250   19.0170    7.5350 C   0  0  0  0  0  0  0  0  0  0  0  0
   18.5200   17.5420    7.7330 C   0  0  0  0  0  0  0  0  0  0  0  0
   19.7440   16.7500    8.0280 C   0  0  0  0  0  0  0  0  0  0  0  0
   20.5430   16.7760    9.1540 C   0  0  0  0  0  0  0  0  0  0  0  0
   21.5220   15.8640    8.8930 N   0  0  0  0  0  0  0  0  0  0  0  0
   22.6980   15.3240    9.9610 S   0  0  0  0  0  6  0  0  0  0  0  0
   23.6370   16.4220   10.1230 O   0  0  0  0  0  0  0  0  0  0  0  0
   23.1500   14.0530    9.4190 O   0  0  0  0  0  0  0  0  0  0  0  0
   21.7760   15.0450   11.4600 C   0  0  0  0  0  0  0  0  0  0  0  0
   20.5350   14.5300   11.2130 N   0  0  0  0  0  0  0  0  0  0  0  0
   19.7640   14.2550   12.2850 C   0  0  0  0  0  0  0  0  0  0  0  0
   20.1680   14.4720   13.5910 C   0  0  0  0  0  0  0  0  0  0  0  0
   21.4370   15.0040   13.8140 C   0  0  0  0  0  0  0  0  0  0  0  0
   22.2740   15.3000   12.7320 C   0  0  0  0  0  0  0  0  0  0  0  0
   23.5550   15.8890   12.9910 C   0  0  0  0  0  0  0  0  0  0  0  0
   23.8270   16.8690   13.9140 C   0  0  0  0  0  0  0  0  0  0  0  0
   25.1800   17.0320   13.8150 N   0  0  0  0  0  0  0  0  0  0  0  0
   26.0770   17.7920   14.6710 C   0  0  2  0  0  0  0  0  0  0  0  0
   25.5420   17.8480   16.1030 C   0  0  0  0  0  0  0  0  0  0  0  0
   26.5190   18.6040   16.9890 C   0  0  0  0  0  0  0  0  0  0  0  0
   26.7890   19.9870   16.4470 C   0  0  0  0  0  0  0  0  0  0  0  0
   27.1350   20.9200   17.1620 O   0  0  0  0  0  0  0  0  0  0  0  0
   26.6870   20.1370   15.0860 N   0  0  0  0  0  0  0  0  0  0  0  0
   26.3330   19.1940   14.1460 C   0  0  0  0  0  0  0  0  0  0  0  0
   26.2880   19.5040   12.9580 O   0  0  0  0  0  0  0  0  0  0  0  0
   25.6990   16.2220   12.8700 N   0  0  0  0  0  0  0  0  0  0  0  0
   24.7010   15.5220   12.3480 N   0  0  0  0  0  0  0  0  0  0  0  0
   21.2900   15.2970    7.6810 C   0  0  0  0  0  0  0  0  0  0  0  0
   20.2210   15.8240    7.1210 N   0  0  0  0  0  0  0  0  0  0  0  0
   18.9260   19.5054    8.5155 H   0  0  0  0  0  0  0  0  0  0  0  0
   19.7645   19.1250    6.9731 H   0  0  0  0  0  0  0  0  0  0  0  0
   18.0054   19.4887    6.9731 H   0  0  0  0  0  0  0  0  0  0  0  0
   17.8178   17.4351    8.5730 H   0  0  0  0  0  0  0  0  0  0  0  0
   18.0866   17.1582    6.7977 H   0  0  0  0  0  0  0  0  0  0  0  0
   20.4179   17.3925   10.0564 H   0  0  0  0  0  0  0  0  0  0  0  0
   18.7616   13.8363   12.1123 H   0  0  0  0  0  0  0  0  0  0  0  0
   19.5031   14.2303   14.4333 H   0  0  0  0  0  0  0  0  0  0  0  0
   21.7811   15.1914   14.8419 H   0  0  0  0  0  0  0  0  0  0  0  0
   23.1237   17.3966   14.5750 H   0  0  0  0  0  0  0  0  0  0  0  0
   27.0417   17.2635   14.6688 H   0  0  0  0  0  0  0  0  0  0  0  0
   24.5698   18.3625   16.1097 H   0  0  0  0  0  0  0  0  0  0  0  0
   25.4222   16.8238   16.4861 H   0  0  0  0  0  0  0  0  0  0  0  0
   26.0934   18.6913   17.9996 H   0  0  0  0  0  0  0  0  0  0  0  0
   27.4680   18.0483   17.0148 H   0  0  0  0  0  0  0  0  0  0  0  0
   26.9030   21.0755   14.7207 H   0  0  0  0  0  0  0  0  0  0  0  0
   21.9089   14.5074    7.2299 H   0  0  0  0  0  0  0  0  0  0  0  0
  1  2  1  0
  2  3  1  0
  3  4  2  0
  4  5  1  0
  5  6  1  0
  6  7  2  0
  6  8  2  0
  6  9  1  0
  9 10  2  0
 10 11  1  0
 11 12  2  0
 12 13  1  0
 13 14  2  0
 14 15  1  0
 15 16  2  0
 16 17  1  0
 17 18  1  0
 18 19  1  0
 19 20  1  0
 20 21  1  0
 21 22  2  0
 21 23  1  0
 23 24  1  0
 24 25  2  0
 17 26  1  0
 26 27  2  0
  5 28  1  0
 28 29  2  0
 29  3  1  0
 14  9  1  0
 27 15  1  0
 24 18  1  0
  1 30  1  0
  1 31  1  0
  1 32  1  0
  2 33  1  0
  2 34  1  0
  4 35  1  0
 11 36  1  0
 12 37  1  0
 13 38  1  0
 16 39  1  0
 18 40  1  1
 19 41  1  0
 19 42  1  0
 20 43  1  0
 20 44  1  0
 23 45  1  0
 28 46  1  0
M  END
>  <meeko>  (1222) 
{"is_sidechain": [true], "free_energy": -10.17, "intermolecular_energy": 0.0, "internal_energy": -10.17, "cluster_size": 19, "cluster_id": 1, "rank_in_cluster": 1}

>  <_RMSD_MCS_to_ref>  (1222) 
0.9917282333829612

$$$$
ligand
     RDKit          3D

 47 50  0  0  0  0  0  0  0  0999 V2000
   18.7970   18.8170    7.7190 C   0  0  0  0  0  0  0  0  0  0  0  0
   18.5280   17.3290    7.8810 C   0  0  0  0  0  0  0  0  0  0  0  0
   19.7860   16.5360    7.9390 C   0  0  0  0  0  0  0  0  0  0  0  0
   20.5450   16.1940    9.0410 C   0  0  0  0  0  0  0  0  0  0  0  0
   21.5670   15.4500    8.5230 N   0  0  0  0  0  0  0  0  0  0  0  0
   22.8200   14.7580    9.4060 S   0  0  0  0  0  6  0  0  0  0  0  0
   22.9160   13.3810    8.9520 O   0  0  0  0  0  0  0  0  0  0  0  0
   23.9270   15.6770    9.2020 O   0  0  0  0  0  0  0  0  0  0  0  0
   22.4200   14.8190   10.9930 O   0  0  0  0  0  0  0  0  0  0  0  0
   23.2700   14.2710   11.9210 C   0  0  0  0  0  0  0  0  0  0  0  0
   23.3310   12.8780   11.9960 C   0  0  0  0  0  0  0  0  0  0  0  0
   24.1900   12.2700   12.9120 C   0  0  0  0  0  0  0  0  0  0  0  0
   24.9940   13.0570   13.7370 C   0  0  0  0  0  0  0  0  0  0  0  0
   24.9400   14.4540   13.6330 C   0  0  0  0  0  0  0  0  0  0  0  0
   25.7860   15.3120   14.4830 C   0  0  0  0  0  0  0  0  0  0  0  0
   26.4960   14.8030   15.3460 O   0  0  0  0  0  0  0  0  0  0  0  0
   25.7040   16.6800   14.2520 N   0  0  0  0  0  0  0  0  0  0  0  0
   26.4720   17.6040   15.0920 C   0  0  2  0  0  0  0  0  0  0  0  0
   25.9850   17.7060   16.5390 C   0  0  0  0  0  0  0  0  0  0  0  0
   26.8740   18.6760   17.3020 C   0  0  0  0  0  0  0  0  0  0  0  0
   26.9120   20.0320   16.6340 C   0  0  0  0  0  0  0  0  0  0  0  0
   27.1720   21.0580   17.2540 O   0  0  0  0  0  0  0  0  0  0  0  0
   26.7250   20.0530   15.2750 N   0  0  0  0  0  0  0  0  0  0  0  0
   26.5430   18.9840   14.4280 C   0  0  0  0  0  0  0  0  0  0  0  0
   26.5460   19.1450   13.2090 O   0  0  0  0  0  0  0  0  0  0  0  0
   24.8000   17.1810   13.3470 C   0  0  0  0  0  0  0  0  0  0  0  0
   24.0310   16.4700   12.5930 N   0  0  0  0  0  0  0  0  0  0  0  0
   24.0880   15.0770   12.7230 C   0  0  0  0  0  0  0  0  0  0  0  0
   21.4390   15.3950    7.1720 C   0  0  0  0  0  0  0  0  0  0  0  0
   20.3510   16.0280    6.7840 N   0  0  0  0  0  0  0  0  0  0  0  0
   18.8815   19.2845    8.7111 H   0  0  0  0  0  0  0  0  0  0  0  0
   19.7359   18.9616    7.1643 H   0  0  0  0  0  0  0  0  0  0  0  0
   17.9682   19.2812    7.1643 H   0  0  0  0  0  0  0  0  0  0  0  0
   17.9649   17.1696    8.8124 H   0  0  0  0  0  0  0  0  0  0  0  0
   17.9545   16.9910    7.0053 H   0  0  0  0  0  0  0  0  0  0  0  0
   20.3675   16.4596   10.0936 H   0  0  0  0  0  0  0  0  0  0  0  0
   22.7038   12.2619   11.3349 H   0  0  0  0  0  0  0  0  0  0  0  0
   24.2332   11.1732   12.9835 H   0  0  0  0  0  0  0  0  0  0  0  0
   25.6676   12.5832   14.4662 H   0  0  0  0  0  0  0  0  0  0  0  0
   27.4827   17.1766   15.1688 H   0  0  0  0  0  0  0  0  0  0  0  0
   24.9472   18.0705   16.5525 H   0  0  0  0  0  0  0  0  0  0  0  0
   26.0297   16.7145   17.0133 H   0  0  0  0  0  0  0  0  0  0  0  0
   26.4834   18.7913   18.3238 H   0  0  0  0  0  0  0  0  0  0  0  0
   27.8960   18.2694   17.3182 H   0  0  0  0  0  0  0  0  0  0  0  0
   26.7203   20.9840   14.8343 H   0  0  0  0  0  0  0  0  0  0  0  0
   24.7257   18.2749   13.2580 H   0  0  0  0  0  0  0  0  0  0  0  0
   22.1457   14.8918    6.4958 H   0  0  0  0  0  0  0  0  0  0  0  0
  1  2  1  0
  2  3  1  0
  3  4  2  0
  4  5  1  0
  5  6  1  0
  6  7  2  0
  6  8  2  0
  6  9  1  0
  9 10  1  0
 10 11  2  0
 11 12  1  0
 12 13  2  0
 13 14  1  0
 14 15  1  0
 15 16  2  0
 15 17  1  0
 17 18  1  0
 18 19  1  0
 19 20  1  0
 20 21  1  0
 21 22  2  0
 21 23  1  0
 23 24  1  0
 24 25  2  0
 17 26  1  0
 26 27  2  0
 27 28  1  0
  5 29  1  0
 29 30  2  0
 30  3  1  0
 28 10  1  0
 28 14  2  0
 24 18  1  0
  1 31  1  0
  1 32  1  0
  1 33  1  0
  2 34  1  0
  2 35  1  0
  4 36  1  0
 11 37  1  0
 12 38  1  0
 13 39  1  0
 18 40  1  1
 19 41  1  0
 19 42  1  0
 20 43  1  0
 20 44  1  0
 23 45  1  0
 26 46  1  0
 29 47  1  0
M  END
>  <meeko>  (1223) 
{"is_sidechain": [true], "free_energy": -10.17, "intermolecular_energy": 0.0, "internal_energy": -10.17, "cluster_size": 14, "cluster_id": 1, "rank_in_cluster": 1}

>  <_RMSD_MCS_to_ref>  (1223) 
1.1038480672427502

$$$$
ligand
     RDKit          3D

 44 46  0  0  0  0  0  0  0  0999 V2000
   18.9090   19.1540    7.5370 C   0  0  0  0  0  0  0  0  0  0  0  0
   18.7730   17.6460    7.6780 C   0  0  0  0  0  0  0  0  0  0  0  0
   20.0930   16.9600    7.6750 C   0  0  0  0  0  0  0  0  0  0  0  0
   20.9350   16.6870    8.7350 C   0  0  0  0  0  0  0  0  0  0  0  0
   22.0060   16.0640    8.1580 N   0  0  0  0  0  0  0  0  0  0  0  0
   23.3330   15.4420    8.9910 S   0  0  0  0  0  6  0  0  0  0  0  0
   23.5220   14.0990    8.4740 O   0  0  0  0  0  0  0  0  0  0  0  0
   24.3620   16.4480    8.7730 O   0  0  0  0  0  0  0  0  0  0  0  0
   22.9730   15.3710   10.6710 C   0  0  0  0  0  0  0  0  0  0  0  0
   23.8760   15.8130   11.5540 C   0  0  0  0  0  0  0  0  0  0  0  0
   23.5130   15.7010   12.9800 C   0  0  0  0  0  0  0  0  0  0  0  0
   24.5340   16.2130   13.9990 C   0  0  0  0  0  0  0  0  0  0  0  0
   25.1030   15.4360   14.7500 O   0  0  0  0  0  0  0  0  0  0  0  0
   24.7330   17.5710   13.9630 N   0  0  0  0  0  0  0  0  0  0  0  0
   25.7850   18.2190   14.7250 C   0  0  2  0  0  0  0  0  0  0  0  0
   25.6560   17.9550   16.2220 C   0  0  0  0  0  0  0  0  0  0  0  0
   26.7650   18.6850   16.9650 C   0  0  0  0  0  0  0  0  0  0  0  0
   26.7550   20.1640   16.6530 C   0  0  0  0  0  0  0  0  0  0  0  0
   27.0810   21.0120   17.4760 O   0  0  0  0  0  0  0  0  0  0  0  0
   26.3900   20.5190   15.3790 N   0  0  0  0  0  0  0  0  0  0  0  0
   25.7230   19.7310   14.4750 C   0  0  0  0  0  0  0  0  0  0  0  0
   25.1300   20.2240   13.5170 O   0  0  0  0  0  0  0  0  0  0  0  0
   22.3970   15.2010   13.4220 N   0  0  0  0  0  0  0  0  0  0  0  0
   21.5130   14.7520   12.4810 N   0  0  0  0  0  0  0  0  0  0  0  0
   21.7080   14.7800   11.1200 C   0  0  0  0  0  0  0  0  0  0  0  0
   20.8740   14.3460   10.3370 O   0  0  0  0  0  0  0  0  0  0  0  0
   21.7880   15.9410    6.8250 C   0  0  0  0  0  0  0  0  0  0  0  0
   20.6370   16.4920    6.4940 N   0  0  0  0  0  0  0  0  0  0  0  0
   18.9504   19.6134    8.5356 H   0  0  0  0  0  0  0  0  0  0  0  0
   19.8320   19.3891    6.9867 H   0  0  0  0  0  0  0  0  0  0  0  0
   18.0430   19.5504    6.9867 H   0  0  0  0  0  0  0  0  0  0  0  0
   18.2604   17.4236    8.6255 H   0  0  0  0  0  0  0  0  0  0  0  0
   18.1985   17.2767    6.8157 H   0  0  0  0  0  0  0  0  0  0  0  0
   20.7795   16.9179    9.7992 H   0  0  0  0  0  0  0  0  0  0  0  0
   24.8388   16.2377   11.2336 H   0  0  0  0  0  0  0  0  0  0  0  0
   24.1152   18.1493   13.3757 H   0  0  0  0  0  0  0  0  0  0  0  0
   26.7479   17.8038   14.3926 H   0  0  0  0  0  0  0  0  0  0  0  0
   24.6789   18.3166   16.5749 H   0  0  0  0  0  0  0  0  0  0  0  0
   25.7383   16.8746   16.4114 H   0  0  0  0  0  0  0  0  0  0  0  0
   26.6229   18.5462   18.0469 H   0  0  0  0  0  0  0  0  0  0  0  0
   27.7308   18.2690   16.6424 H   0  0  0  0  0  0  0  0  0  0  0  0
   26.6410   21.4693   15.0712 H   0  0  0  0  0  0  0  0  0  0  0  0
   20.6238   14.3586   12.8208 H   0  0  0  0  0  0  0  0  0  0  0  0
   22.4748   15.4506    6.1195 H   0  0  0  0  0  0  0  0  0  0  0  0
  1  2  1  0
  2  3  1  0
  3  4  2  0
  4  5  1  0
  5  6  1  0
  6  7  2  0
  6  8  2  0
  6  9  1  0
  9 10  2  0
 10 11  1  0
 11 12  1  0
 12 13  2  0
 12 14  1  0
 14 15  1  0
 15 16  1  0
 16 17  1  0
 17 18  1  0
 18 19  2  0
 18 20  1  0
 20 21  1  0
 21 22  2  0
 11 23  2  0
 23 24  1  0
 24 25  1  0
 25 26  2  0
  5 27  1  0
 27 28  2  0
 28  3  1  0
 25  9  1  0
 21 15  1  0
  1 29  1  0
  1 30  1  0
  1 31  1  0
  2 32  1  0
  2 33  1  0
  4 34  1  0
 10 35  1  0
 14 36  1  0
 15 37  1  6
 16 38  1  0
 16 39  1  0
 17 40  1  0
 17 41  1  0
 20 42  1  0
 24 43  1  0
 27 44  1  0
M  END
>  <meeko>  (1224) 
{"is_sidechain": [true], "free_energy": -10.17, "intermolecular_energy": 0.0, "internal_energy": -10.17, "cluster_size": 17, "cluster_id": 1, "rank_in_cluster": 1}

>  <_RMSD_MCS_to_ref>  (1224) 
0.5757738753673662

$$$$
ligand
     RDKit          3D

 49 52  0  0  0  0  0  0  0  0999 V2000
   18.9090   19.1540    7.5370 C   0  0  0  0  0  0  0  0  0  0  0  0
   18.7730   17.6460    7.6780 C   0  0  0  0  0  0  0  0  0  0  0  0
   19.8650   16.9160    6.9780 C   0  0  0  0  0  0  0  0  0  0  0  0
   21.0940   16.5160    7.4640 C   0  0  0  0  0  0  0  0  0  0  0  0
   21.6810   15.8790    6.4090 N   0  0  0  0  0  0  0  0  0  0  0  0
   23.2760   15.3580    6.3370 S   0  0  0  0  0  6  0  0  0  0  0  0
   23.2540   14.1190    5.5830 O   0  0  0  0  0  0  0  0  0  0  0  0
   24.0490   16.5100    5.9130 O   0  0  0  0  0  0  0  0  0  0  0  0
   23.6680   14.9930    8.0280 C   0  0  0  0  0  0  0  0  0  0  0  0
   23.7530   13.6600    8.4370 C   0  0  0  0  0  0  0  0  0  0  0  0
   24.0650   13.3540    9.7670 C   0  0  0  0  0  0  0  0  0  0  0  0
   24.2840   14.4000   10.6850 C   0  0  0  0  0  0  0  0  0  0  0  0
   24.6090   14.4470   12.0700 C   0  0  0  0  0  0  0  0  0  0  0  0
   24.6960   15.7730   12.4550 C   0  0  0  0  0  0  0  0  0  0  0  0
   24.9900   16.4060   13.7210 C   0  0  0  0  0  0  0  0  0  0  0  0
   25.0560   15.7730   14.7690 O   0  0  0  0  0  0  0  0  0  0  0  0
   25.1770   17.7650   13.6740 N   0  0  0  0  0  0  0  0  0  0  0  0
   25.3300   18.5590   14.8820 C   0  0  1  0  0  0  0  0  0  0  0  0
   26.3310   17.9450   15.8540 C   0  0  0  0  0  0  0  0  0  0  0  0
   26.4710   18.8440   17.0730 C   0  0  0  0  0  0  0  0  0  0  0  0
   26.8600   20.2500   16.6770 C   0  0  0  0  0  0  0  0  0  0  0  0
   27.5820   20.9550   17.3740 O   0  0  0  0  0  0  0  0  0  0  0  0
   26.3360   20.7220   15.5000 N   0  0  0  0  0  0  0  0  0  0  0  0
   25.8150   19.9570   14.4870 C   0  0  0  0  0  0  0  0  0  0  0  0
   25.7410   20.3880   13.3370 O   0  0  0  0  0  0  0  0  0  0  0  0
   24.4220   16.5220   11.3320 N   0  0  0  0  0  0  0  0  0  0  0  0
   24.1760   15.7170   10.2460 C   0  0  0  0  0  0  0  0  0  0  0  0
   23.8650   16.0540    8.9230 C   0  0  0  0  0  0  0  0  0  0  0  0
   20.8530   15.9430    5.3340 C   0  0  0  0  0  0  0  0  0  0  0  0
   19.7330   16.5580    5.6500 N   0  0  0  0  0  0  0  0  0  0  0  0
   18.9504   19.6134    8.5356 H   0  0  0  0  0  0  0  0  0  0  0  0
   19.8320   19.3891    6.9867 H   0  0  0  0  0  0  0  0  0  0  0  0
   18.0430   19.5504    6.9867 H   0  0  0  0  0  0  0  0  0  0  0  0
   18.8010   17.3860    8.7465 H   0  0  0  0  0  0  0  0  0  0  0  0
   17.8188   17.3482    7.2189 H   0  0  0  0  0  0  0  0  0  0  0  0
   21.5061   16.6745    8.4715 H   0  0  0  0  0  0  0  0  0  0  0  0
   23.5747   12.8505    7.7138 H   0  0  0  0  0  0  0  0  0  0  0  0
   24.1385   12.3058   10.0925 H   0  0  0  0  0  0  0  0  0  0  0  0
   24.7647   13.5762   12.7238 H   0  0  0  0  0  0  0  0  0  0  0  0
   25.2098   18.2349   12.7580 H   0  0  0  0  0  0  0  0  0  0  0  0
   24.3547   18.5997   15.3890 H   0  0  0  0  0  0  0  0  0  0  0  0
   25.9750   16.9530   16.1690 H   0  0  0  0  0  0  0  0  0  0  0  0
   27.3081   17.8438   15.3589 H   0  0  0  0  0  0  0  0  0  0  0  0
   25.5101   18.8752   17.6074 H   0  0  0  0  0  0  0  0  0  0  0  0
   27.2620   18.4336   17.7179 H   0  0  0  0  0  0  0  0  0  0  0  0
   26.3335   21.7431   15.3646 H   0  0  0  0  0  0  0  0  0  0  0  0
   24.4039   17.5516   11.3093 H   0  0  0  0  0  0  0  0  0  0  0  0
   23.7792   17.1023    8.6009 H   0  0  0  0  0  0  0  0  0  0  0  0
   21.0860   15.5375    4.3384 H   0  0  0  0  0  0  0  0  0  0  0  0
  1  2  1  0
  2  3  1  0
  3  4  2  0
  4  5  1  0
  5  6  1  0
  6  7  2  0
  6  8  2  0
  6  9  1  0
  9 10  2  0
 10 11  1  0
 11 12  2  0
 12 13  1  0
 13 14  2  0
 14 15  1  0
 15 16  2  0
 15 17  1  0
 17 18  1  0
 18 19  1  0
 19 20  1  0
 20 21  1  0
 21 22  2  0
 21 23  1  0
 23 24  1  0
 24 25  2  0
 14 26  1  0
 26 27  1  0
 27 28  2  0
  5 29  1  0
 29 30  2  0
 30  3  1  0
 28  9  1  0
 27 12  1  0
 24 18  1  0
  1 31  1  0
  1 32  1  0
  1 33  1  0
  2 34  1  0
  2 35  1  0
  4 36  1  0
 10 37  1  0
 11 38  1  0
 13 39  1  0
 17 40  1  0
 18 41  1  1
 19 42  1  0
 19 43  1  0
 20 44  1  0
 20 45  1  0
 23 46  1  0
 26 47  1  0
 28 48  1  0
 29 49  1  0
M  END
>  <meeko>  (1225) 
{"is_sidechain": [true], "free_energy": -10.17, "intermolecular_energy": 0.0, "internal_energy": -10.17, "cluster_size": 17, "cluster_id": 1, "rank_in_cluster": 1}

>  <_RMSD_MCS_to_ref>  (1225) 
0.6278956919743912

$$$$
ligand
     RDKit          3D

 48 51  0  0  0  0  0  0  0  0999 V2000
   18.9090   19.1540    7.5370 C   0  0  0  0  0  0  0  0  0  0  0  0
   18.7730   17.6460    7.6780 C   0  0  0  0  0  0  0  0  0  0  0  0
   20.0930   16.9610    7.6760 C   0  0  0  0  0  0  0  0  0  0  0  0
   20.9560   16.7360    8.7320 C   0  0  0  0  0  0  0  0  0  0  0  0
   22.0110   16.0780    8.1650 N   0  0  0  0  0  0  0  0  0  0  0  0
   23.3640   15.5120    8.9810 S   0  0  0  0  0  6  0  0  0  0  0  0
   24.2910   16.6300    8.9780 O   0  0  0  0  0  0  0  0  0  0  0  0
   23.7100   14.2350    8.3890 O   0  0  0  0  0  0  0  0  0  0  0  0
   22.8970   15.2390   10.6370 C   0  0  0  0  0  0  0  0  0  0  0  0
   23.5650   15.9030   11.6980 C   0  0  0  0  0  0  0  0  0  0  0  0
   23.2180   15.7200   13.0790 C   0  0  0  0  0  0  0  0  0  0  0  0
   23.9650   16.4480   14.1450 C   0  0  0  0  0  0  0  0  0  0  0  0
   24.3910   15.8440   15.1230 O   0  0  0  0  0  0  0  0  0  0  0  0
   24.1060   17.8070   13.9810 N   0  0  0  0  0  0  0  0  0  0  0  0
   24.6890   18.6310   15.0320 C   0  0  1  0  0  0  0  0  0  0  0  0
   25.8360   17.9250   15.7460 C   0  0  0  0  0  0  0  0  0  0  0  0
   26.4240   18.8510   16.8000 C   0  0  0  0  0  0  0  0  0  0  0  0
   26.8600   20.1650   16.1950 C   0  0  0  0  0  0  0  0  0  0  0  0
   27.8210   20.7990   16.6210 O   0  0  0  0  0  0  0  0  0  0  0  0
   26.1050   20.6460   15.1560 N   0  0  0  0  0  0  0  0  0  0  0  0
   25.2100   19.9270   14.4040 C   0  0  0  0  0  0  0  0  0  0  0  0
   24.8420   20.3210   13.2970 O   0  0  0  0  0  0  0  0  0  0  0  0
   22.1930   14.8430   13.5120 C   0  0  0  0  0  0  0  0  0  0  0  0
   21.5710   14.2170   12.4390 C   0  0  0  0  0  0  0  0  0  0  0  0
   20.5430   13.3220   12.5330 C   0  0  0  0  0  0  0  0  0  0  0  0
   20.2660   12.9770   11.2420 N   0  0  0  0  0  0  0  0  0  0  0  0
   21.0440   13.5920   10.3290 N   0  0  0  0  0  0  0  0  0  0  0  0
   21.8730   14.3740   11.0360 C   0  0  0  0  0  0  0  0  0  0  0  0
   21.7690   15.9030    6.8410 C   0  0  0  0  0  0  0  0  0  0  0  0
   20.6140   16.4420    6.5060 N   0  0  0  0  0  0  0  0  0  0  0  0
   18.9504   19.6134    8.5356 H   0  0  0  0  0  0  0  0  0  0  0  0
   19.8320   19.3891    6.9867 H   0  0  0  0  0  0  0  0  0  0  0  0
   18.0430   19.5504    6.9867 H   0  0  0  0  0  0  0  0  0  0  0  0
   18.2597   17.4235    8.6251 H   0  0  0  0  0  0  0  0  0  0  0  0
   18.1990   17.2763    6.8155 H   0  0  0  0  0  0  0  0  0  0  0  0
   20.8240   17.0210    9.7862 H   0  0  0  0  0  0  0  0  0  0  0  0
   24.3875   16.5904   11.4509 H   0  0  0  0  0  0  0  0  0  0  0  0
   23.7952   18.2478   13.1035 H   0  0  0  0  0  0  0  0  0  0  0  0
   23.9084   18.8365   15.7792 H   0  0  0  0  0  0  0  0  0  0  0  0
   25.4599   17.0113   16.2294 H   0  0  0  0  0  0  0  0  0  0  0  0
   26.6146   17.6597   15.0156 H   0  0  0  0  0  0  0  0  0  0  0  0
   25.6632   19.0461   17.5701 H   0  0  0  0  0  0  0  0  0  0  0  0
   27.3058   18.3615   17.2391 H   0  0  0  0  0  0  0  0  0  0  0  0
   26.2207   21.6413   14.9174 H   0  0  0  0  0  0  0  0  0  0  0  0
   21.9235   14.6784   14.5657 H   0  0  0  0  0  0  0  0  0  0  0  0
   20.0484   12.9599   13.4464 H   0  0  0  0  0  0  0  0  0  0  0  0
   19.5274   12.3057   10.9876 H   0  0  0  0  0  0  0  0  0  0  0  0
   22.4433   15.3834    6.1443 H   0  0  0  0  0  0  0  0  0  0  0  0
  1  2  1  0
  2  3  1  0
  3  4  2  0
  4  5  1  0
  5  6  1  0
  6  7  2  0
  6  8  2  0
  6  9  1  0
  9 10  2  0
 10 11  1  0
 11 12  1  0
 12 13  2  0
 12 14  1  0
 14 15  1  0
 15 16  1  0
 16 17  1  0
 17 18  1  0
 18 19  2  0
 18 20  1  0
 20 21  1  0
 21 22  2  0
 11 23  2  0
 23 24  1  0
 24 25  2  0
 25 26  1  0
 26 27  1  0
 27 28  2  0
  5 29  1  0
 29 30  2  0
 30  3  1  0
 28  9  1  0
 21 15  1  0
 28 24  1  0
  1 31  1  0
  1 32  1  0
  1 33  1  0
  2 34  1  0
  2 35  1  0
  4 36  1  0
 10 37  1  0
 14 38  1  0
 15 39  1  1
 16 40  1  0
 16 41  1  0
 17 42  1  0
 17 43  1  0
 20 44  1  0
 23 45  1  0
 25 46  1  0
 26 47  1  0
 29 48  1  0
M  END
>  <meeko>  (1226) 
{"is_sidechain": [true], "free_energy": -10.17, "intermolecular_energy": 0.0, "internal_energy": -10.17, "cluster_size": 19, "cluster_id": 1, "rank_in_cluster": 1}

>  <_RMSD_MCS_to_ref>  (1226) 
0.4460622776648521

$$$$
ligand
     RDKit          3D

 47 50  0  0  0  0  0  0  0  0999 V2000
   18.9090   19.1540    7.5370 C   0  0  0  0  0  0  0  0  0  0  0  0
   18.7730   17.6460    7.6780 C   0  0  0  0  0  0  0  0  0  0  0  0
   20.0360   16.9340    7.3440 C   0  0  0  0  0  0  0  0  0  0  0  0
   20.8060   16.1100    8.1410 C   0  0  0  0  0  0  0  0  0  0  0  0
   21.8560   15.7580    7.3410 N   0  0  0  0  0  0  0  0  0  0  0  0
   23.0860   14.6830    7.7670 S   0  0  0  0  0  6  0  0  0  0  0  0
   22.4220   13.6080    8.4850 O   0  0  0  0  0  0  0  0  0  0  0  0
   23.7320   14.4050    6.4920 O   0  0  0  0  0  0  0  0  0  0  0  0
   24.1890   15.4870    8.8040 C   0  0  0  0  0  0  0  0  0  0  0  0
   25.2190   16.1790    8.2880 C   0  0  0  0  0  0  0  0  0  0  0  0
   26.1560   16.8470    9.0570 N   0  0  0  0  0  0  0  0  0  0  0  0
   26.0390   16.7900   10.3560 C   0  0  0  0  0  0  0  0  0  0  0  0
   24.9680   16.0640   10.9840 C   0  0  0  0  0  0  0  0  0  0  0  0
   24.6090   15.8490   12.3010 C   0  0  0  0  0  0  0  0  0  0  0  0
   25.3040   16.3480   13.4730 C   0  0  0  0  0  0  0  0  0  0  0  0
   25.6750   15.6050   14.3750 O   0  0  0  0  0  0  0  0  0  0  0  0
   25.5300   17.7030   13.5000 N   0  0  0  0  0  0  0  0  0  0  0  0
   26.3350   18.3180   14.5480 C   0  0  2  0  0  0  0  0  0  0  0  0
   25.8520   17.9470   15.9450 C   0  0  0  0  0  0  0  0  0  0  0  0
   26.7060   18.6600   16.9830 C   0  0  0  0  0  0  0  0  0  0  0  0
   26.7030   20.1560   16.7630 C   0  0  0  0  0  0  0  0  0  0  0  0
   26.7600   20.9590   17.6890 O   0  0  0  0  0  0  0  0  0  0  0  0
   26.6620   20.5840   15.4590 N   0  0  0  0  0  0  0  0  0  0  0  0
   26.2560   19.8390   14.3830 C   0  0  0  0  0  0  0  0  0  0  0  0
   25.8590   20.3690   13.3460 O   0  0  0  0  0  0  0  0  0  0  0  0
   23.4550   15.0470   12.1850 C   0  0  0  0  0  0  0  0  0  0  0  0
   23.1160   14.7900   10.9210 N   0  0  0  0  0  0  0  0  0  0  0  0
   24.0540   15.4160   10.1750 N   0  0  0  0  0  0  0  0  0  0  0  0
   21.6900   16.3150    6.1150 C   0  0  0  0  0  0  0  0  0  0  0  0
   20.5950   17.0490    6.0860 N   0  0  0  0  0  0  0  0  0  0  0  0
   18.9504   19.6134    8.5356 H   0  0  0  0  0  0  0  0  0  0  0  0
   19.8320   19.3891    6.9867 H   0  0  0  0  0  0  0  0  0  0  0  0
   18.0430   19.5504    6.9867 H   0  0  0  0  0  0  0  0  0  0  0  0
   18.4978   17.4107    8.7167 H   0  0  0  0  0  0  0  0  0  0  0  0
   17.9990   17.3094    6.9726 H   0  0  0  0  0  0  0  0  0  0  0  0
   20.6172   15.8067    9.1814 H   0  0  0  0  0  0  0  0  0  0  0  0
   25.3232   16.2166    7.1936 H   0  0  0  0  0  0  0  0  0  0  0  0
   26.7769   17.3095   10.9850 H   0  0  0  0  0  0  0  0  0  0  0  0
   25.1219   18.2968   12.7640 H   0  0  0  0  0  0  0  0  0  0  0  0
   27.3670   17.9510   14.4472 H   0  0  0  0  0  0  0  0  0  0  0  0
   24.8015   18.2515   16.0627 H   0  0  0  0  0  0  0  0  0  0  0  0
   25.9364   16.8593   16.0853 H   0  0  0  0  0  0  0  0  0  0  0  0
   26.3066   18.4443   17.9850 H   0  0  0  0  0  0  0  0  0  0  0  0
   27.7404   18.2974   16.8901 H   0  0  0  0  0  0  0  0  0  0  0  0
   26.9633   21.5512   15.2730 H   0  0  0  0  0  0  0  0  0  0  0  0
   22.8905   14.6708   13.0509 H   0  0  0  0  0  0  0  0  0  0  0  0
   22.3731   16.1740    5.2645 H   0  0  0  0  0  0  0  0  0  0  0  0
  1  2  1  0
  2  3  1  0
  3  4  2  0
  4  5  1  0
  5  6  1  0
  6  7  2  0
  6  8  2  0
  6  9  1  0
  9 10  2  0
 10 11  1  0
 11 12  2  0
 12 13  1  0
 13 14  2  0
 14 15  1  0
 15 16  2  0
 15 17  1  0
 17 18  1  0
 18 19  1  0
 19 20  1  0
 20 21  1  0
 21 22  2  0
 21 23  1  0
 23 24  1  0
 24 25  2  0
 14 26  1  0
 26 27  2  0
 27 28  1  0
  5 29  1  0
 29 30  2  0
 30  3  1  0
 28  9  1  0
 28 13  1  0
 24 18  1  0
  1 31  1  0
  1 32  1  0
  1 33  1  0
  2 34  1  0
  2 35  1  0
  4 36  1  0
 10 37  1  0
 12 38  1  0
 17 39  1  0
 18 40  1  6
 19 41  1  0
 19 42  1  0
 20 43  1  0
 20 44  1  0
 23 45  1  0
 26 46  1  0
 29 47  1  0
M  END
>  <meeko>  (1227) 
{"is_sidechain": [true], "free_energy": -10.17, "intermolecular_energy": 0.0, "internal_energy": -10.17, "cluster_size": 19, "cluster_id": 1, "rank_in_cluster": 1}

>  <_RMSD_MCS_to_ref>  (1227) 
0.9106971078367508

$$$$
ligand
     RDKit          3D

 47 50  0  0  0  0  0  0  0  0999 V2000
   18.9090   19.1540    7.5370 C   0  0  0  0  0  0  0  0  0  0  0  0
   18.7730   17.6460    7.6780 C   0  0  0  0  0  0  0  0  0  0  0  0
   20.0360   16.9340    7.3420 C   0  0  0  0  0  0  0  0  0  0  0  0
   20.8580   16.1880    8.1640 C   0  0  0  0  0  0  0  0  0  0  0  0
   21.8470   15.7430    7.3350 N   0  0  0  0  0  0  0  0  0  0  0  0
   23.2900   15.0150    7.8270 S   0  0  0  0  0  6  0  0  0  0  0  0
   24.3180   15.7230    7.0870 O   0  0  0  0  0  0  0  0  0  0  0  0
   23.0670   13.5950    7.6170 O   0  0  0  0  0  0  0  0  0  0  0  0
   23.4500   15.3570    9.5370 C   0  0  0  0  0  0  0  0  0  0  0  0
   24.5890   16.1240   10.0440 C   0  0  0  0  0  0  0  0  0  0  0  0
   24.6710   16.3820   11.3610 C   0  0  0  0  0  0  0  0  0  0  0  0
   23.6710   15.9130   12.2140 N   0  0  0  0  0  0  0  0  0  0  0  0
   23.4850   16.0200   13.5740 C   0  0  0  0  0  0  0  0  0  0  0  0
   24.3380   16.6890   14.5270 C   0  0  0  0  0  0  0  0  0  0  0  0
   25.1230   16.1150   15.2760 O   0  0  0  0  0  0  0  0  0  0  0  0
   24.1990   18.0590   14.5390 N   0  0  0  0  0  0  0  0  0  0  0  0
   24.8680   18.9080   15.5100 C   0  0  1  0  0  0  0  0  0  0  0  0
   25.9890   18.1700   16.2350 C   0  0  0  0  0  0  0  0  0  0  0  0
   26.6640   19.1120   17.2200 C   0  0  0  0  0  0  0  0  0  0  0  0
   27.1650   20.3590   16.5330 C   0  0  0  0  0  0  0  0  0  0  0  0
   28.1770   20.9490   16.8970 O   0  0  0  0  0  0  0  0  0  0  0  0
   26.4110   20.8310   15.4890 N   0  0  0  0  0  0  0  0  0  0  0  0
   25.4520   20.1310   14.7970 C   0  0  0  0  0  0  0  0  0  0  0  0
   25.0860   20.4950   13.6810 O   0  0  0  0  0  0  0  0  0  0  0  0
   22.3640   15.4010   13.9100 N   0  0  0  0  0  0  0  0  0  0  0  0
   21.8000   14.8760   12.7730 N   0  0  0  0  0  0  0  0  0  0  0  0
   22.5810   15.1790   11.7620 C   0  0  0  0  0  0  0  0  0  0  0  0
   22.4900   14.8990   10.3700 C   0  0  0  0  0  0  0  0  0  0  0  0
   21.6530   16.2610    6.0940 C   0  0  0  0  0  0  0  0  0  0  0  0
   20.5520   16.9810    6.0620 N   0  0  0  0  0  0  0  0  0  0  0  0
   18.9504   19.6134    8.5356 H   0  0  0  0  0  0  0  0  0  0  0  0
   19.8320   19.3891    6.9867 H   0  0  0  0  0  0  0  0  0  0  0  0
   18.0430   19.5504    6.9867 H   0  0  0  0  0  0  0  0  0  0  0  0
   18.4992   17.4106    8.7170 H   0  0  0  0  0  0  0  0  0  0  0  0
   17.9979   17.3094    6.9738 H   0  0  0  0  0  0  0  0  0  0  0  0
   20.7421   15.9962    9.2409 H   0  0  0  0  0  0  0  0  0  0  0  0
   25.3680   16.4847    9.3562 H   0  0  0  0  0  0  0  0  0  0  0  0
   25.5183   16.9573   11.7623 H   0  0  0  0  0  0  0  0  0  0  0  0
   23.5958   18.5002   13.8302 H   0  0  0  0  0  0  0  0  0  0  0  0
   24.1225   19.2143   16.2586 H   0  0  0  0  0  0  0  0  0  0  0  0
   25.5701   17.3103   16.7785 H   0  0  0  0  0  0  0  0  0  0  0  0
   26.7284   17.8161   15.5015 H   0  0  0  0  0  0  0  0  0  0  0  0
   25.9391   19.3976   17.9965 H   0  0  0  0  0  0  0  0  0  0  0  0
   27.5252   18.5908   17.6634 H   0  0  0  0  0  0  0  0  0  0  0  0
   26.5798   21.8037   15.1954 H   0  0  0  0  0  0  0  0  0  0  0  0
   21.6455   14.3148    9.9755 H   0  0  0  0  0  0  0  0  0  0  0  0
   22.3226   16.1009    5.2361 H   0  0  0  0  0  0  0  0  0  0  0  0
  1  2  1  0
  2  3  1  0
  3  4  2  0
  4  5  1  0
  5  6  1  0
  6  7  2  0
  6  8  2  0
  6  9  1  0
  9 10  1  0
 10 11  2  0
 11 12  1  0
 12 13  1  0
 13 14  1  0
 14 15  2  0
 14 16  1  0
 16 17  1  0
 17 18  1  0
 18 19  1  0
 19 20  1  0
 20 21  2  0
 20 22  1  0
 22 23  1  0
 23 24  2  0
 13 25  2  0
 25 26  1  0
 26 27  2  0
 27 28  1  0
  5 29  1  0
 29 30  2  0
 30  3  1  0
 28  9  2  0
 27 12  1  0
 23 17  1  0
  1 31  1  0
  1 32  1  0
  1 33  1  0
  2 34  1  0
  2 35  1  0
  4 36  1  0
 10 37  1  0
 11 38  1  0
 16 39  1  0
 17 40  1  1
 18 41  1  0
 18 42  1  0
 19 43  1  0
 19 44  1  0
 22 45  1  0
 28 46  1  0
 29 47  1  0
M  END
>  <meeko>  (1228) 
{"is_sidechain": [true], "free_energy": -10.17, "intermolecular_energy": 0.0, "internal_energy": -10.17, "cluster_size": 18, "cluster_id": 1, "rank_in_cluster": 1}

>  <_RMSD_MCS_to_ref>  (1228) 
0.8132195958725489

$$$$
ligand
     RDKit          3D

 47 50  0  0  0  0  0  0  0  0999 V2000
   18.9090   19.1540    7.5370 C   0  0  0  0  0  0  0  0  0  0  0  0
   18.7730   17.6460    7.6780 C   0  0  0  0  0  0  0  0  0  0  0  0
   19.8910   16.9180    7.0180 C   0  0  0  0  0  0  0  0  0  0  0  0
   21.1420   16.6140    7.5160 C   0  0  0  0  0  0  0  0  0  0  0  0
   21.7510   15.9310    6.5010 N   0  0  0  0  0  0  0  0  0  0  0  0
   23.3480   15.4070    6.4720 S   0  0  0  0  0  6  0  0  0  0  0  0
   23.3200   14.2000    5.6610 O   0  0  0  0  0  0  0  0  0  0  0  0
   24.1210   16.5800    6.0940 O   0  0  0  0  0  0  0  0  0  0  0  0
   23.6990   14.9840    8.1660 C   0  0  0  0  0  0  0  0  0  0  0  0
   23.7640   13.6630    8.4540 N   0  0  0  0  0  0  0  0  0  0  0  0
   24.0260   13.3270    9.7380 C   0  0  0  0  0  0  0  0  0  0  0  0
   24.2160   14.3300   10.6890 C   0  0  0  0  0  0  0  0  0  0  0  0
   24.4960   14.3920   12.0810 C   0  0  0  0  0  0  0  0  0  0  0  0
   24.5680   15.7290   12.4500 C   0  0  0  0  0  0  0  0  0  0  0  0
   24.8210   16.3810   13.7140 C   0  0  0  0  0  0  0  0  0  0  0  0
   24.7320   15.7870   14.7840 O   0  0  0  0  0  0  0  0  0  0  0  0
   25.1540   17.7090   13.6390 N   0  0  0  0  0  0  0  0  0  0  0  0
   25.2870   18.5330   14.8310 C   0  0  1  0  0  0  0  0  0  0  0  0
   26.2420   17.9270   15.8530 C   0  0  0  0  0  0  0  0  0  0  0  0
   26.3650   18.8610   17.0480 C   0  0  0  0  0  0  0  0  0  0  0  0
   26.7980   20.2440   16.6200 C   0  0  0  0  0  0  0  0  0  0  0  0
   27.5200   20.9530   17.3130 O   0  0  0  0  0  0  0  0  0  0  0  0
   26.3180   20.6940   15.4160 N   0  0  0  0  0  0  0  0  0  0  0  0
   25.8150   19.9070   14.4090 C   0  0  0  0  0  0  0  0  0  0  0  0
   25.7910   20.2990   13.2430 O   0  0  0  0  0  0  0  0  0  0  0  0
   24.3290   16.4640   11.3050 N   0  0  0  0  0  0  0  0  0  0  0  0
   24.1170   15.6370   10.2400 C   0  0  0  0  0  0  0  0  0  0  0  0
   23.8610   16.0460    8.9880 N   0  0  0  0  0  0  0  0  0  0  0  0
   20.9050   15.8680    5.4400 C   0  0  0  0  0  0  0  0  0  0  0  0
   19.7580   16.4490    5.7260 N   0  0  0  0  0  0  0  0  0  0  0  0
   18.9504   19.6134    8.5356 H   0  0  0  0  0  0  0  0  0  0  0  0
   19.8320   19.3891    6.9867 H   0  0  0  0  0  0  0  0  0  0  0  0
   18.0430   19.5504    6.9867 H   0  0  0  0  0  0  0  0  0  0  0  0
   18.7652   17.3892    8.7476 H   0  0  0  0  0  0  0  0  0  0  0  0
   17.8360   17.3434    7.1876 H   0  0  0  0  0  0  0  0  0  0  0  0
   21.5546   16.8644    8.5045 H   0  0  0  0  0  0  0  0  0  0  0  0
   24.0889   12.2685   10.0307 H   0  0  0  0  0  0  0  0  0  0  0  0
   24.6322   13.5299   12.7505 H   0  0  0  0  0  0  0  0  0  0  0  0
   25.3142   18.1345   12.7148 H   0  0  0  0  0  0  0  0  0  0  0  0
   24.2985   18.6077   15.3077 H   0  0  0  0  0  0  0  0  0  0  0  0
   25.8527   16.9538   16.1867 H   0  0  0  0  0  0  0  0  0  0  0  0
   27.2314   17.7877   15.3930 H   0  0  0  0  0  0  0  0  0  0  0  0
   25.3891   18.9304   17.5508 H   0  0  0  0  0  0  0  0  0  0  0  0
   27.1257   18.4541   17.7305 H   0  0  0  0  0  0  0  0  0  0  0  0
   26.3365   21.7109   15.2531 H   0  0  0  0  0  0  0  0  0  0  0  0
   24.3130   17.4929   11.2611 H   0  0  0  0  0  0  0  0  0  0  0  0
   21.1447   15.3969    4.4753 H   0  0  0  0  0  0  0  0  0  0  0  0
  1  2  1  0
  2  3  1  0
  3  4  2  0
  4  5  1  0
  5  6  1  0
  6  7  2  0
  6  8  2  0
  6  9  1  0
  9 10  2  0
 10 11  1  0
 11 12  2  0
 12 13  1  0
 13 14  2  0
 14 15  1  0
 15 16  2  0
 15 17  1  0
 17 18  1  0
 18 19  1  0
 19 20  1  0
 20 21  1  0
 21 22  2  0
 21 23  1  0
 23 24  1  0
 24 25  2  0
 14 26  1  0
 26 27  1  0
 27 28  2  0
  5 29  1  0
 29 30  2  0
 30  3  1  0
 28  9  1  0
 27 12  1  0
 24 18  1  0
  1 31  1  0
  1 32  1  0
  1 33  1  0
  2 34  1  0
  2 35  1  0
  4 36  1  0
 11 37  1  0
 13 38  1  0
 17 39  1  0
 18 40  1  1
 19 41  1  0
 19 42  1  0
 20 43  1  0
 20 44  1  0
 23 45  1  0
 26 46  1  0
 29 47  1  0
M  END
>  <meeko>  (1229) 
{"is_sidechain": [true], "free_energy": -10.17, "intermolecular_energy": 0.0, "internal_energy": -10.17, "cluster_size": 17, "cluster_id": 1, "rank_in_cluster": 1}

>  <_RMSD_MCS_to_ref>  (1229) 
0.5883457033638186

$$$$
ligand
     RDKit          3D

 46 49  0  0  0  0  0  0  0  0999 V2000
   18.9090   19.1540    7.5370 C   0  0  0  0  0  0  0  0  0  0  0  0
   18.7730   17.6460    7.6780 C   0  0  0  0  0  0  0  0  0  0  0  0
   19.8850   16.9170    7.0090 C   0  0  0  0  0  0  0  0  0  0  0  0
   20.8740   16.1340    7.5710 C   0  0  0  0  0  0  0  0  0  0  0  0
   21.5990   15.6910    6.5020 N   0  0  0  0  0  0  0  0  0  0  0  0
   23.1080   14.9390    6.5940 S   0  0  0  0  0  6  0  0  0  0  0  0
   22.8840   13.6210    6.0300 O   0  0  0  0  0  0  0  0  0  0  0  0
   24.0190   15.8750    5.9610 O   0  0  0  0  0  0  0  0  0  0  0  0
   23.4860   14.8130    8.2600 C   0  0  0  0  0  0  0  0  0  0  0  0
   23.5890   13.4970    8.9360 C   0  0  0  0  0  0  0  0  0  0  0  0
   23.8850   13.3060   10.1880 N   0  0  0  0  0  0  0  0  0  0  0  0
   24.1100   14.4330   10.9310 C   0  0  0  0  0  0  0  0  0  0  0  0
   24.4250   14.5460   12.1990 N   0  0  0  0  0  0  0  0  0  0  0  0
   24.5240   15.9110   12.3980 C   0  0  0  0  0  0  0  0  0  0  0  0
   24.8700   16.4820   13.7160 C   0  0  0  0  0  0  0  0  0  0  0  0
   24.9560   15.8290   14.7530 O   0  0  0  0  0  0  0  0  0  0  0  0
   25.0820   17.8460   13.6800 N   0  0  0  0  0  0  0  0  0  0  0  0
   25.2830   18.6290   14.8860 C   0  0  1  0  0  0  0  0  0  0  0  0
   26.3040   17.9860   15.8180 C   0  0  0  0  0  0  0  0  0  0  0  0
   26.4880   18.8600   17.0490 C   0  0  0  0  0  0  0  0  0  0  0  0
   26.8840   20.2670   16.6700 C   0  0  0  0  0  0  0  0  0  0  0  0
   27.6210   20.9550   17.3700 O   0  0  0  0  0  0  0  0  0  0  0  0
   26.3460   20.7630   15.5100 N   0  0  0  0  0  0  0  0  0  0  0  0
   25.7660   20.0310   14.5020 C   0  0  0  0  0  0  0  0  0  0  0  0
   25.6350   20.5020   13.3740 O   0  0  0  0  0  0  0  0  0  0  0  0
   24.2850   16.6460   11.3000 N   0  0  0  0  0  0  0  0  0  0  0  0
   24.0190   15.7120   10.3690 N   0  0  0  0  0  0  0  0  0  0  0  0
   23.7070   15.8890    9.0280 C   0  0  0  0  0  0  0  0  0  0  0  0
   21.0960   16.2370    5.3650 C   0  0  0  0  0  0  0  0  0  0  0  0
   20.0470   16.9840    5.6390 N   0  0  0  0  0  0  0  0  0  0  0  0
   18.9504   19.6134    8.5356 H   0  0  0  0  0  0  0  0  0  0  0  0
   19.8320   19.3891    6.9867 H   0  0  0  0  0  0  0  0  0  0  0  0
   18.0430   19.5504    6.9867 H   0  0  0  0  0  0  0  0  0  0  0  0
   18.7733   17.3886    8.7475 H   0  0  0  0  0  0  0  0  0  0  0  0
   17.8321   17.3447    7.1944 H   0  0  0  0  0  0  0  0  0  0  0  0
   21.0399   15.9168    8.6365 H   0  0  0  0  0  0  0  0  0  0  0  0
   23.3981   12.6030    8.3242 H   0  0  0  0  0  0  0  0  0  0  0  0
   25.0981   18.3236   12.7676 H   0  0  0  0  0  0  0  0  0  0  0  0
   24.3224   18.6809   15.4194 H   0  0  0  0  0  0  0  0  0  0  0  0
   25.9459   16.9920   16.1243 H   0  0  0  0  0  0  0  0  0  0  0  0
   27.2657   17.8839   15.2938 H   0  0  0  0  0  0  0  0  0  0  0  0
   25.5421   18.8929   17.6095 H   0  0  0  0  0  0  0  0  0  0  0  0
   27.2908   18.4277   17.6643 H   0  0  0  0  0  0  0  0  0  0  0  0
   26.3800   21.7844   15.3818 H   0  0  0  0  0  0  0  0  0  0  0  0
   23.6419   16.9005    8.6007 H   0  0  0  0  0  0  0  0  0  0  0  0
   21.5070   16.0777    4.3572 H   0  0  0  0  0  0  0  0  0  0  0  0
  1  2  1  0
  2  3  1  0
  3  4  2  0
  4  5  1  0
  5  6  1  0
  6  7  2  0
  6  8  2  0
  6  9  1  0
  9 10  1  0
 10 11  2  0
 11 12  1  0
 12 13  2  0
 13 14  1  0
 14 15  1  0
 15 16  2  0
 15 17  1  0
 17 18  1  0
 18 19  1  0
 19 20  1  0
 20 21  1  0
 21 22  2  0
 21 23  1  0
 23 24  1  0
 24 25  2  0
 14 26  2  0
 26 27  1  0
 27 28  1  0
  5 29  1  0
 29 30  2  0
 30  3  1  0
 28  9  2  0
 27 12  1  0
 24 18  1  0
  1 31  1  0
  1 32  1  0
  1 33  1  0
  2 34  1  0
  2 35  1  0
  4 36  1  0
 10 37  1  0
 17 38  1  0
 18 39  1  1
 19 40  1  0
 19 41  1  0
 20 42  1  0
 20 43  1  0
 23 44  1  0
 28 45  1  0
 29 46  1  0
M  END
>  <meeko>  (1230) 
{"is_sidechain": [true], "free_energy": -10.17, "intermolecular_energy": 0.0, "internal_energy": -10.17, "cluster_size": 17, "cluster_id": 1, "rank_in_cluster": 1}

>  <_RMSD_MCS_to_ref>  (1230) 
0.602054999333302

$$$$
ligand
     RDKit          3D

 48 51  0  0  0  0  0  0  0  0999 V2000
   18.9090   19.1540    7.5370 C   0  0  0  0  0  0  0  0  0  0  0  0
   18.7730   17.6460    7.6780 C   0  0  0  0  0  0  0  0  0  0  0  0
   20.0010   16.9270    7.2430 C   0  0  0  0  0  0  0  0  0  0  0  0
   20.9010   16.2060    8.0040 C   0  0  0  0  0  0  0  0  0  0  0  0
   21.8120   15.7450    7.0970 N   0  0  0  0  0  0  0  0  0  0  0  0
   23.2600   14.9740    7.4590 S   0  0  0  0  0  6  0  0  0  0  0  0
   24.2800   15.6790    6.7070 O   0  0  0  0  0  0  0  0  0  0  0  0
   23.0090   13.5570    7.2870 O   0  0  0  0  0  0  0  0  0  0  0  0
   23.4850   15.3080    9.1850 C   0  0  0  0  0  0  0  0  0  0  0  0
   24.3950   16.2800    9.5800 C   0  0  0  0  0  0  0  0  0  0  0  0
   24.5760   16.5440   10.9410 C   0  0  0  0  0  0  0  0  0  0  0  0
   23.8370   15.8430   11.9340 C   0  0  0  0  0  0  0  0  0  0  0  0
   23.8620   15.9400   13.3870 C   0  0  0  0  0  0  0  0  0  0  0  0
   24.7130   16.8560   14.1570 C   0  0  0  0  0  0  0  0  0  0  0  0
   25.9160   16.6720   14.3120 O   0  0  0  0  0  0  0  0  0  0  0  0
   24.0700   17.9340   14.7260 N   0  0  0  0  0  0  0  0  0  0  0  0
   24.7650   18.8310   15.6390 C   0  0  1  0  0  0  0  0  0  0  0  0
   25.7670   18.0960   16.5230 C   0  0  0  0  0  0  0  0  0  0  0  0
   26.4870   19.0970   17.4140 C   0  0  0  0  0  0  0  0  0  0  0  0
   27.1470   20.1820   16.5970 C   0  0  0  0  0  0  0  0  0  0  0  0
   28.2040   20.7100   16.9330 O   0  0  0  0  0  0  0  0  0  0  0  0
   26.4910   20.5830   15.4610 N   0  0  0  0  0  0  0  0  0  0  0  0
   25.5110   19.8790   14.8080 C   0  0  0  0  0  0  0  0  0  0  0  0
   25.2470   20.0960   13.6250 O   0  0  0  0  0  0  0  0  0  0  0  0
   22.9460   15.0690   13.9530 C   0  0  0  0  0  0  0  0  0  0  0  0
   22.1040   14.1370   12.8060 S   0  0  0  0  0  0  0  0  0  0  0  0
   22.9200   14.8840   11.4920 C   0  0  0  0  0  0  0  0  0  0  0  0
   22.7260   14.6030   10.1240 C   0  0  0  0  0  0  0  0  0  0  0  0
   21.4910   16.2170    5.8640 C   0  0  0  0  0  0  0  0  0  0  0  0
   20.3870   16.9320    5.9170 N   0  0  0  0  0  0  0  0  0  0  0  0
   18.9504   19.6134    8.5356 H   0  0  0  0  0  0  0  0  0  0  0  0
   19.8320   19.3891    6.9867 H   0  0  0  0  0  0  0  0  0  0  0  0
   18.0430   19.5504    6.9867 H   0  0  0  0  0  0  0  0  0  0  0  0
   18.5768   17.4053    8.7333 H   0  0  0  0  0  0  0  0  0  0  0  0
   17.9445   17.3201    7.0319 H   0  0  0  0  0  0  0  0  0  0  0  0
   20.8870   16.0411    9.0915 H   0  0  0  0  0  0  0  0  0  0  0  0
   24.9698   16.8387    8.8267 H   0  0  0  0  0  0  0  0  0  0  0  0
   25.3040   17.3086   11.2499 H   0  0  0  0  0  0  0  0  0  0  0  0
   23.0800   18.1085   14.5015 H   0  0  0  0  0  0  0  0  0  0  0  0
   24.0177   19.2944   16.2999 H   0  0  0  0  0  0  0  0  0  0  0  0
   25.2358   17.3638   17.1488 H   0  0  0  0  0  0  0  0  0  0  0  0
   26.5003   17.5743   15.8905 H   0  0  0  0  0  0  0  0  0  0  0  0
   25.7587   19.5565   18.0984 H   0  0  0  0  0  0  0  0  0  0  0  0
   27.2666   18.5631   17.9772 H   0  0  0  0  0  0  0  0  0  0  0  0
   26.7581   21.4944   15.0624 H   0  0  0  0  0  0  0  0  0  0  0  0
   22.7794   14.9879   15.0373 H   0  0  0  0  0  0  0  0  0  0  0  0
   21.9945   13.8467    9.8030 H   0  0  0  0  0  0  0  0  0  0  0  0
   22.0723   16.0281    4.9495 H   0  0  0  0  0  0  0  0  0  0  0  0
  1  2  1  0
  2  3  1  0
  3  4  2  0
  4  5  1  0
  5  6  1  0
  6  7  2  0
  6  8  2  0
  6  9  1  0
  9 10  2  0
 10 11  1  0
 11 12  2  0
 12 13  1  0
 13 14  1  0
 14 15  2  0
 14 16  1  0
 16 17  1  0
 17 18  1  0
 18 19  1  0
 19 20  1  0
 20 21  2  0
 20 22  1  0
 22 23  1  0
 23 24  2  0
 13 25  2  0
 25 26  1  0
 26 27  1  0
 27 28  2  0
  5 29  1  0
 29 30  2  0
 30  3  1  0
 28  9  1  0
 27 12  1  0
 23 17  1  0
  1 31  1  0
  1 32  1  0
  1 33  1  0
  2 34  1  0
  2 35  1  0
  4 36  1  0
 10 37  1  0
 11 38  1  0
 16 39  1  0
 17 40  1  1
 18 41  1  0
 18 42  1  0
 19 43  1  0
 19 44  1  0
 22 45  1  0
 25 46  1  0
 28 47  1  0
 29 48  1  0
M  END
>  <meeko>  (1231) 
{"is_sidechain": [true], "free_energy": -10.17, "intermolecular_energy": 0.0, "internal_energy": -10.17, "cluster_size": 19, "cluster_id": 1, "rank_in_cluster": 1}

>  <_RMSD_MCS_to_ref>  (1231) 
0.865349768719113

$$$$
ligand
     RDKit          3D

 43 45  0  0  0  0  0  0  0  0999 V2000
   18.9090   19.1540    7.5370 C   0  0  0  0  0  0  0  0  0  0  0  0
   18.7730   17.6460    7.6780 C   0  0  0  0  0  0  0  0  0  0  0  0
   20.0940   16.9610    7.6800 C   0  0  0  0  0  0  0  0  0  0  0  0
   20.9930   16.8140    8.7180 C   0  0  0  0  0  0  0  0  0  0  0  0
   22.0390   16.1350    8.1630 N   0  0  0  0  0  0  0  0  0  0  0  0
   23.3480   15.4810    8.9900 S   0  0  0  0  0  6  0  0  0  0  0  0
   24.4180   16.4540    8.8800 O   0  0  0  0  0  0  0  0  0  0  0  0
   23.4760   14.1200    8.5050 O   0  0  0  0  0  0  0  0  0  0  0  0
   22.8390   15.4090   10.6850 C   0  0  0  0  0  0  0  0  0  0  0  0
   21.7830   14.6000   11.0400 C   0  0  0  0  0  0  0  0  0  0  0  0
   21.4470   14.6500   12.3690 C   0  0  0  0  0  0  0  0  0  0  0  0
   22.0860   15.4230   13.2680 N   0  0  0  0  0  0  0  0  0  0  0  0
   23.1070   16.1700   12.8050 C   0  0  0  0  0  0  0  0  0  0  0  0
   23.8450   17.0580   13.7800 C   0  0  0  0  0  0  0  0  0  0  0  0
   23.3280   17.5000   14.7990 O   0  0  0  0  0  0  0  0  0  0  0  0
   25.1580   17.3350   13.4340 N   0  0  0  0  0  0  0  0  0  0  0  0
   26.0360   18.1150   14.2870 C   0  0  2  0  0  0  0  0  0  0  0  0
   25.8170   17.7840   15.7580 C   0  0  0  0  0  0  0  0  0  0  0  0
   26.7420   18.6360   16.6140 C   0  0  0  0  0  0  0  0  0  0  0  0
   26.5490   20.1070   16.3360 C   0  0  0  0  0  0  0  0  0  0  0  0
   26.7130   20.9670   17.1960 O   0  0  0  0  0  0  0  0  0  0  0  0
   26.2180   20.4530   15.0500 N   0  0  0  0  0  0  0  0  0  0  0  0
   25.7850   19.6090   14.0550 C   0  0  0  0  0  0  0  0  0  0  0  0
   25.2590   20.0540   13.0360 O   0  0  0  0  0  0  0  0  0  0  0  0
   23.5320   16.2040   11.5250 N   0  0  0  0  0  0  0  0  0  0  0  0
   21.7490   15.8560    6.8640 C   0  0  0  0  0  0  0  0  0  0  0  0
   20.5710   16.3440    6.5390 N   0  0  0  0  0  0  0  0  0  0  0  0
   18.9504   19.6134    8.5356 H   0  0  0  0  0  0  0  0  0  0  0  0
   19.8320   19.3891    6.9867 H   0  0  0  0  0  0  0  0  0  0  0  0
   18.0430   19.5504    6.9867 H   0  0  0  0  0  0  0  0  0  0  0  0
   18.2570   17.4236    8.6237 H   0  0  0  0  0  0  0  0  0  0  0  0
   18.2016   17.2759    6.8140 H   0  0  0  0  0  0  0  0  0  0  0  0
   20.8897   17.1643    9.7556 H   0  0  0  0  0  0  0  0  0  0  0  0
   21.2515   13.9647   10.3162 H   0  0  0  0  0  0  0  0  0  0  0  0
   20.6116   14.0258   12.7190 H   0  0  0  0  0  0  0  0  0  0  0  0
   25.5234   16.9750   12.5408 H   0  0  0  0  0  0  0  0  0  0  0  0
   27.0755   17.8641   14.0290 H   0  0  0  0  0  0  0  0  0  0  0  0
   24.7715   17.9927   16.0288 H   0  0  0  0  0  0  0  0  0  0  0  0
   26.0356   16.7198   15.9303 H   0  0  0  0  0  0  0  0  0  0  0  0
   26.5282   18.4411   17.6753 H   0  0  0  0  0  0  0  0  0  0  0  0
   27.7814   18.3708   16.3705 H   0  0  0  0  0  0  0  0  0  0  0  0
   26.3029   21.4497   14.8045 H   0  0  0  0  0  0  0  0  0  0  0  0
   22.4073   15.3000    6.1803 H   0  0  0  0  0  0  0  0  0  0  0  0
  1  2  1  0
  2  3  1  0
  3  4  2  0
  4  5  1  0
  5  6  1  0
  6  7  2  0
  6  8  2  0
  6  9  1  0
  9 10  2  0
 10 11  1  0
 11 12  2  0
 12 13  1  0
 13 14  1  0
 14 15  2  0
 14 16  1  0
 16 17  1  0
 17 18  1  0
 18 19  1  0
 19 20  1  0
 20 21  2  0
 20 22  1  0
 22 23  1  0
 23 24  2  0
 13 25  2  0
  5 26  1  0
 26 27  2  0
 27  3  1  0
 25  9  1  0
 23 17  1  0
  1 28  1  0
  1 29  1  0
  1 30  1  0
  2 31  1  0
  2 32  1  0
  4 33  1  0
 10 34  1  0
 11 35  1  0
 16 36  1  0
 17 37  1  6
 18 38  1  0
 18 39  1  0
 19 40  1  0
 19 41  1  0
 22 42  1  0
 26 43  1  0
M  END
>  <meeko>  (1232) 
{"is_sidechain": [true], "free_energy": -10.17, "intermolecular_energy": 0.0, "internal_energy": -10.17, "cluster_size": 20, "cluster_id": 1, "rank_in_cluster": 1}

>  <_RMSD_MCS_to_ref>  (1232) 
0.6636600535414701

$$$$
ligand
     RDKit          3D

 45 48  0  0  0  0  0  0  0  0999 V2000
   18.9090   19.1540    7.5370 C   0  0  0  0  0  0  0  0  0  0  0  0
   18.7730   17.6460    7.6780 C   0  0  0  0  0  0  0  0  0  0  0  0
   20.0800   16.9490    7.5370 C   0  0  0  0  0  0  0  0  0  0  0  0
   20.7250   16.1210    8.4350 C   0  0  0  0  0  0  0  0  0  0  0  0
   21.8690   15.7530    7.7890 N   0  0  0  0  0  0  0  0  0  0  0  0
   23.1670   14.9360    8.4750 S   0  0  0  0  0  6  0  0  0  0  0  0
   24.3440   15.3900    7.7590 O   0  0  0  0  0  0  0  0  0  0  0  0
   22.7790   13.5400    8.5270 O   0  0  0  0  0  0  0  0  0  0  0  0
   23.2380   15.5620   10.1160 C   0  0  0  0  0  0  0  0  0  0  0  0
   22.2010   15.2570   11.0000 C   0  0  0  0  0  0  0  0  0  0  0  0
   22.1580   15.6930   12.2820 N   0  0  0  0  0  0  0  0  0  0  0  0
   23.2150   16.4400   12.6520 C   0  0  0  0  0  0  0  0  0  0  0  0
   24.2980   16.7760   11.8540 C   0  0  0  0  0  0  0  0  0  0  0  0
   24.3260   16.3320   10.5470 C   0  0  0  0  0  0  0  0  0  0  0  0
   25.2630   17.6130   12.6210 C   0  0  0  0  0  0  0  0  0  0  0  0
   24.6740   17.6500   13.9520 N   0  0  0  0  0  0  0  0  0  0  0  0
   25.0990   18.5770   14.9970 C   0  0  1  0  0  0  0  0  0  0  0  0
   26.1320   17.9660   15.9380 C   0  0  0  0  0  0  0  0  0  0  0  0
   26.4600   18.9610   17.0410 C   0  0  0  0  0  0  0  0  0  0  0  0
   26.9250   20.2800   16.4650 C   0  0  0  0  0  0  0  0  0  0  0  0
   27.8070   20.9520   16.9890 O   0  0  0  0  0  0  0  0  0  0  0  0
   26.2980   20.7020   15.3200 N   0  0  0  0  0  0  0  0  0  0  0  0
   25.6700   19.8800   14.4130 C   0  0  0  0  0  0  0  0  0  0  0  0
   25.6110   20.1900   13.2260 O   0  0  0  0  0  0  0  0  0  0  0  0
   23.4210   17.0380   13.9860 C   0  0  0  0  0  0  0  0  0  0  0  0
   22.6500   17.0110   14.9260 O   0  0  0  0  0  0  0  0  0  0  0  0
   21.9180   16.3700    6.5810 C   0  0  0  0  0  0  0  0  0  0  0  0
   20.8380   17.0980    6.3920 N   0  0  0  0  0  0  0  0  0  0  0  0
   18.9504   19.6134    8.5356 H   0  0  0  0  0  0  0  0  0  0  0  0
   19.8320   19.3891    6.9867 H   0  0  0  0  0  0  0  0  0  0  0  0
   18.0430   19.5504    6.9867 H   0  0  0  0  0  0  0  0  0  0  0  0
   18.3555   17.4190    8.6701 H   0  0  0  0  0  0  0  0  0  0  0  0
   18.1114   17.2896    6.8747 H   0  0  0  0  0  0  0  0  0  0  0  0
   20.3923   15.8258    9.4411 H   0  0  0  0  0  0  0  0  0  0  0  0
   21.3746   14.6290   10.6359 H   0  0  0  0  0  0  0  0  0  0  0  0
   25.1636   16.5717    9.8754 H   0  0  0  0  0  0  0  0  0  0  0  0
   26.2601   17.1489   12.6421 H   0  0  0  0  0  0  0  0  0  0  0  0
   25.4149   18.6114   12.1849 H   0  0  0  0  0  0  0  0  0  0  0  0
   24.1888   18.8031   15.5718 H   0  0  0  0  0  0  0  0  0  0  0  0
   25.7249   17.0459   16.3826 H   0  0  0  0  0  0  0  0  0  0  0  0
   27.0461   17.7262   15.3751 H   0  0  0  0  0  0  0  0  0  0  0  0
   25.5598   19.1323   17.6495 H   0  0  0  0  0  0  0  0  0  0  0  0
   27.2702   18.5443   17.6574 H   0  0  0  0  0  0  0  0  0  0  0  0
   26.2974   21.7132   15.1241 H   0  0  0  0  0  0  0  0  0  0  0  0
   22.7443   16.2749    5.8611 H   0  0  0  0  0  0  0  0  0  0  0  0
  1  2  1  0
  2  3  1  0
  3  4  2  0
  4  5  1  0
  5  6  1  0
  6  7  2  0
  6  8  2  0
  6  9  1  0
  9 10  2  0
 10 11  1  0
 11 12  2  0
 12 13  1  0
 13 14  2  0
 13 15  1  0
 15 16  1  0
 16 17  1  0
 17 18  1  0
 18 19  1  0
 19 20  1  0
 20 21  2  0
 20 22  1  0
 22 23  1  0
 23 24  2  0
 16 25  1  0
 25 26  2  0
  5 27  1  0
 27 28  2  0
 28  3  1  0
 14  9  1  0
 23 17  1  0
 25 12  1  0
  1 29  1  0
  1 30  1  0
  1 31  1  0
  2 32  1  0
  2 33  1  0
  4 34  1  0
 10 35  1  0
 14 36  1  0
 15 37  1  0
 15 38  1  0
 17 39  1  1
 18 40  1  0
 18 41  1  0
 19 42  1  0
 19 43  1  0
 22 44  1  0
 27 45  1  0
M  END
>  <meeko>  (1233) 
{"is_sidechain": [true], "free_energy": -10.17, "intermolecular_energy": 0.0, "internal_energy": -10.17, "cluster_size": 20, "cluster_id": 1, "rank_in_cluster": 1}

>  <_RMSD_MCS_to_ref>  (1233) 
1.7516552172159912

$$$$
ligand
     RDKit          3D

 44 47  0  0  0  0  0  0  0  0999 V2000
   18.9090   19.1540    7.5370 C   0  0  0  0  0  0  0  0  0  0  0  0
   18.7730   17.6460    7.6780 C   0  0  0  0  0  0  0  0  0  0  0  0
   20.0850   16.9520    7.5720 C   0  0  0  0  0  0  0  0  0  0  0  0
   21.0810   16.8270    8.5210 C   0  0  0  0  0  0  0  0  0  0  0  0
   22.0600   16.1160    7.8870 N   0  0  0  0  0  0  0  0  0  0  0  0
   23.4270   15.4730    8.6100 S   0  0  0  0  0  6  0  0  0  0  0  0
   24.5110   16.3950    8.3330 O   0  0  0  0  0  0  0  0  0  0  0  0
   23.4660   14.0710    8.2520 O   0  0  0  0  0  0  0  0  0  0  0  0
   23.2010   15.5160   10.3750 C   0  0  0  0  0  0  0  0  0  0  0  0
   22.3870   14.7460   11.2020 C   0  0  0  0  0  0  0  0  0  0  0  0
   22.5890   15.1880   12.5250 C   0  0  0  0  0  0  0  0  0  0  0  0
   22.0450   14.7680   13.6860 N   0  0  0  0  0  0  0  0  0  0  0  0
   22.5050   15.4530   14.7480 C   0  0  0  0  0  0  0  0  0  0  0  0
   23.4010   16.4650   14.7650 N   0  0  0  0  0  0  0  0  0  0  0  0
   23.9420   16.8790   13.5940 C   0  0  0  0  0  0  0  0  0  0  0  0
   24.8860   17.9020   13.5490 N   0  0  0  0  0  0  0  0  0  0  0  0
   25.0420   18.6950   14.7730 C   0  0  1  0  0  0  0  0  0  0  0  0
   25.9930   17.9880   15.7340 C   0  0  0  0  0  0  0  0  0  0  0  0
   26.2130   18.8490   16.9660 C   0  0  0  0  0  0  0  0  0  0  0  0
   26.7440   20.2120   16.5930 C   0  0  0  0  0  0  0  0  0  0  0  0
   27.4640   20.8650   17.3410 O   0  0  0  0  0  0  0  0  0  0  0  0
   26.3360   20.7180   15.3850 N   0  0  0  0  0  0  0  0  0  0  0  0
   25.6270   20.0680   14.4050 C   0  0  0  0  0  0  0  0  0  0  0  0
   25.4570   20.5860   13.3000 O   0  0  0  0  0  0  0  0  0  0  0  0
   23.5130   16.2100   12.4520 C   0  0  0  0  0  0  0  0  0  0  0  0
   23.8880   16.4210   11.1620 O   0  0  0  0  0  0  0  0  0  0  0  0
   21.6320   15.7810    6.6430 C   0  0  0  0  0  0  0  0  0  0  0  0
   20.4420   16.2950    6.4110 N   0  0  0  0  0  0  0  0  0  0  0  0
   18.9504   19.6134    8.5356 H   0  0  0  0  0  0  0  0  0  0  0  0
   19.8320   19.3891    6.9867 H   0  0  0  0  0  0  0  0  0  0  0  0
   18.0430   19.5504    6.9867 H   0  0  0  0  0  0  0  0  0  0  0  0
   18.3309   17.4202    8.6596 H   0  0  0  0  0  0  0  0  0  0  0  0
   18.1330   17.2861    6.8589 H   0  0  0  0  0  0  0  0  0  0  0  0
   21.0849   17.2119    9.5514 H   0  0  0  0  0  0  0  0  0  0  0  0
   21.7102   13.9403   10.8814 H   0  0  0  0  0  0  0  0  0  0  0  0
   22.1013   15.1518   15.7259 H   0  0  0  0  0  0  0  0  0  0  0  0
   25.4433   18.0911   12.7037 H   0  0  0  0  0  0  0  0  0  0  0  0
   24.0620   18.8160   15.2578 H   0  0  0  0  0  0  0  0  0  0  0  0
   25.5577   17.0238   16.0352 H   0  0  0  0  0  0  0  0  0  0  0  0
   26.9571   17.8186   15.2322 H   0  0  0  0  0  0  0  0  0  0  0  0
   25.2561   18.9694   17.4949 H   0  0  0  0  0  0  0  0  0  0  0  0
   26.9530   18.3517   17.6103 H   0  0  0  0  0  0  0  0  0  0  0  0
   26.5905   21.6970   15.1910 H   0  0  0  0  0  0  0  0  0  0  0  0
   22.1997   15.1663    5.9289 H   0  0  0  0  0  0  0  0  0  0  0  0
  1  2  1  0
  2  3  1  0
  3  4  2  0
  4  5  1  0
  5  6  1  0
  6  7  2  0
  6  8  2  0
  6  9  1  0
  9 10  2  0
 10 11  1  0
 11 12  2  0
 12 13  1  0
 13 14  2  0
 14 15  1  0
 15 16  1  0
 16 17  1  0
 17 18  1  0
 18 19  1  0
 19 20  1  0
 20 21  2  0
 20 22  1  0
 22 23  1  0
 23 24  2  0
 15 25  2  0
 25 26  1  0
  5 27  1  0
 27 28  2  0
 28  3  1  0
 26  9  1  0
 25 11  1  0
 23 17  1  0
  1 29  1  0
  1 30  1  0
  1 31  1  0
  2 32  1  0
  2 33  1  0
  4 34  1  0
 10 35  1  0
 13 36  1  0
 16 37  1  0
 17 38  1  1
 18 39  1  0
 18 40  1  0
 19 41  1  0
 19 42  1  0
 22 43  1  0
 27 44  1  0
M  END
>  <meeko>  (1234) 
{"is_sidechain": [true], "free_energy": -10.17, "intermolecular_energy": 0.0, "internal_energy": -10.17, "cluster_size": 20, "cluster_id": 1, "rank_in_cluster": 1}

>  <_RMSD_MCS_to_ref>  (1234) 
0.48119296198787725

$$$$
ligand
     RDKit          3D

 55 59  0  0  0  0  0  0  0  0999 V2000
   18.9090   19.1540    7.5370 C   0  0  0  0  0  0  0  0  0  0  0  0
   18.7730   17.6460    7.6780 C   0  0  0  0  0  0  0  0  0  0  0  0
   19.8800   16.9160    7.0010 C   0  0  0  0  0  0  0  0  0  0  0  0
   21.2300   17.2060    6.9960 C   0  0  0  0  0  0  0  0  0  0  0  0
   21.7730   16.2660    6.1650 N   0  0  0  0  0  0  0  0  0  0  0  0
   23.4080   16.0540    5.8570 S   0  0  0  0  0  6  0  0  0  0  0  0
   23.7820   17.1940    5.0370 O   0  0  0  0  0  0  0  0  0  0  0  0
   23.5660   14.6900    5.3890 O   0  0  0  0  0  0  0  0  0  0  0  0
   24.1840   16.2270    7.4470 C   0  0  0  0  0  0  0  0  0  0  0  0
   25.5260   16.5560    7.5270 C   0  0  0  0  0  0  0  0  0  0  0  0
   26.0830   16.6470    8.7940 C   0  0  0  0  0  0  0  0  0  0  0  0
   25.2900   16.3800    9.9100 C   0  0  0  0  0  0  0  0  0  0  0  0
   23.9440   16.0340    9.7440 C   0  0  0  0  0  0  0  0  0  0  0  0
   23.0810   15.6750   10.8880 C   0  0  0  0  0  0  0  0  0  0  0  0
   22.0500   14.7130   10.7620 C   0  0  0  0  0  0  0  0  0  0  0  0
   21.2110   14.3570   11.8380 C   0  0  0  0  0  0  0  0  0  0  0  0
   21.3690   14.9540   13.0840 C   0  0  0  0  0  0  0  0  0  0  0  0
   22.3690   15.8960   13.2050 C   0  0  0  0  0  0  0  0  0  0  0  0
   23.2090   16.2590   12.1470 C   0  0  0  0  0  0  0  0  0  0  0  0
   24.1530   17.3210   12.6140 C   0  0  0  0  0  0  0  0  0  0  0  0
   23.8470   17.4340   14.0330 N   0  0  0  0  0  0  0  0  0  0  0  0
   24.3840   18.5000   14.8750 C   0  0  1  0  0  0  0  0  0  0  0  0
   25.4550   17.9710   15.8220 C   0  0  0  0  0  0  0  0  0  0  0  0
   25.9620   19.0970   16.7070 C   0  0  0  0  0  0  0  0  0  0  0  0
   26.4770   20.2500   15.8820 C   0  0  0  0  0  0  0  0  0  0  0  0
   27.4170   20.9490   16.2540 O   0  0  0  0  0  0  0  0  0  0  0  0
   25.8050   20.5170   14.7160 N   0  0  0  0  0  0  0  0  0  0  0  0
   24.9320   19.6820   14.0550 C   0  0  0  0  0  0  0  0  0  0  0  0
   24.6050   19.9240   12.8930 O   0  0  0  0  0  0  0  0  0  0  0  0
   22.7480   16.6740   14.3910 C   0  0  0  0  0  0  0  0  0  0  0  0
   22.1870   16.6210   15.4680 O   0  0  0  0  0  0  0  0  0  0  0  0
   23.3720   15.9860    8.5130 N   0  0  0  0  0  0  0  0  0  0  0  0
   20.7910   15.4320    5.7380 C   0  0  0  0  0  0  0  0  0  0  0  0
   19.6270   15.7860    6.2490 N   0  0  0  0  0  0  0  0  0  0  0  0
   18.9504   19.6134    8.5356 H   0  0  0  0  0  0  0  0  0  0  0  0
   19.8320   19.3891    6.9867 H   0  0  0  0  0  0  0  0  0  0  0  0
   18.0430   19.5504    6.9867 H   0  0  0  0  0  0  0  0  0  0  0  0
   18.7803   17.3880    8.7473 H   0  0  0  0  0  0  0  0  0  0  0  0
   17.8287   17.3459    7.2004 H   0  0  0  0  0  0  0  0  0  0  0  0
   21.7500   18.0101    7.5373 H   0  0  0  0  0  0  0  0  0  0  0  0
   26.1260   16.7378    6.6232 H   0  0  0  0  0  0  0  0  0  0  0  0
   27.1396   16.9269    8.9175 H   0  0  0  0  0  0  0  0  0  0  0  0
   25.7221   16.4413   10.9197 H   0  0  0  0  0  0  0  0  0  0  0  0
   21.8977   14.2249    9.7881 H   0  0  0  0  0  0  0  0  0  0  0  0
   20.4255   13.6012   11.6906 H   0  0  0  0  0  0  0  0  0  0  0  0
   20.7252   14.6868   13.9350 H   0  0  0  0  0  0  0  0  0  0  0  0
   25.1984   17.0162   12.4585 H   0  0  0  0  0  0  0  0  0  0  0  0
   24.0391   18.2704   12.0702 H   0  0  0  0  0  0  0  0  0  0  0  0
   23.5400   18.8775   15.4709 H   0  0  0  0  0  0  0  0  0  0  0  0
   25.0262   17.1771   16.4511 H   0  0  0  0  0  0  0  0  0  0  0  0
   26.2920   17.5668   15.2338 H   0  0  0  0  0  0  0  0  0  0  0  0
   25.1381   19.4514   17.3439 H   0  0  0  0  0  0  0  0  0  0  0  0
   26.7891   18.7116   17.3212 H   0  0  0  0  0  0  0  0  0  0  0  0
   25.9711   21.4399   14.2899 H   0  0  0  0  0  0  0  0  0  0  0  0
   20.9442   14.5794    5.0601 H   0  0  0  0  0  0  0  0  0  0  0  0
  1  2  1  0
  2  3  1  0
  3  4  2  0
  4  5  1  0
  5  6  1  0
  6  7  2  0
  6  8  2  0
  6  9  1  0
  9 10  2  0
 10 11  1  0
 11 12  2  0
 12 13  1  0
 13 14  1  0
 14 15  2  0
 15 16  1  0
 16 17  2  0
 17 18  1  0
 18 19  2  0
 19 20  1  0
 20 21  1  0
 21 22  1  0
 22 23  1  0
 23 24  1  0
 24 25  1  0
 25 26  2  0
 25 27  1  0
 27 28  1  0
 28 29  2  0
 21 30  1  0
 30 31  2  0
 13 32  2  0
  5 33  1  0
 33 34  2  0
 34  3  1  0
 32  9  1  0
 19 14  1  0
 28 22  1  0
 30 18  1  0
  1 35  1  0
  1 36  1  0
  1 37  1  0
  2 38  1  0
  2 39  1  0
  4 40  1  0
 10 41  1  0
 11 42  1  0
 12 43  1  0
 15 44  1  0
 16 45  1  0
 17 46  1  0
 20 47  1  0
 20 48  1  0
 22 49  1  1
 23 50  1  0
 23 51  1  0
 24 52  1  0
 24 53  1  0
 27 54  1  0
 33 55  1  0
M  END
>  <meeko>  (1235) 
{"is_sidechain": [true], "free_energy": -10.17, "intermolecular_energy": 0.0, "internal_energy": -10.17, "cluster_size": 15, "cluster_id": 1, "rank_in_cluster": 1}

>  <_RMSD_MCS_to_ref>  (1235) 
1.7218700105795832

$$$$
ligand
     RDKit          3D

 55 59  0  0  0  0  0  0  0  0999 V2000
   18.8250   19.0170    7.5350 C   0  0  0  0  0  0  0  0  0  0  0  0
   18.5200   17.5420    7.7330 C   0  0  0  0  0  0  0  0  0  0  0  0
   19.6920   16.7910    8.2610 C   0  0  0  0  0  0  0  0  0  0  0  0
   20.6140   16.0240    7.5740 C   0  0  0  0  0  0  0  0  0  0  0  0
   21.4340   15.5370    8.5510 N   0  0  0  0  0  0  0  0  0  0  0  0
   22.7170   14.4790    8.3300 S   0  0  0  0  0  6  0  0  0  0  0  0
   22.7630   14.2880    6.8920 O   0  0  0  0  0  0  0  0  0  0  0  0
   23.8400   15.0260    9.0640 O   0  0  0  0  0  0  0  0  0  0  0  0
   22.2620   12.9310    9.0850 C   0  0  0  0  0  0  0  0  0  0  0  0
   22.0110   11.8620    8.2060 C   0  0  0  0  0  0  0  0  0  0  0  0
   21.6450   10.6110    8.6990 C   0  0  0  0  0  0  0  0  0  0  0  0
   21.5320   10.4170   10.0690 C   0  0  0  0  0  0  0  0  0  0  0  0
   21.7900   11.4720   10.9470 C   0  0  0  0  0  0  0  0  0  0  0  0
   22.1640   12.7490   10.4800 C   0  0  0  0  0  0  0  0  0  0  0  0
   22.4170   13.7910   11.4820 C   0  0  0  0  0  0  0  0  0  0  0  0
   21.3630   14.3070   12.2810 C   0  0  0  0  0  0  0  0  0  0  0  0
   21.5970   15.2680   13.2720 C   0  0  0  0  0  0  0  0  0  0  0  0
   22.8980   15.6960   13.4440 C   0  0  0  0  0  0  0  0  0  0  0  0
   23.9270   15.2260   12.6540 C   0  0  0  0  0  0  0  0  0  0  0  0
   23.7200   14.2940   11.6560 C   0  0  0  0  0  0  0  0  0  0  0  0
   25.1600   15.8620   13.1080 C   0  0  0  0  0  0  0  0  0  0  0  0
   26.2490   15.6830   12.5980 O   0  0  0  0  0  0  0  0  0  0  0  0
   24.8230   16.6550   14.1710 N   0  0  0  0  0  0  0  0  0  0  0  0
   25.7680   17.5510   14.8150 C   0  0  2  0  0  0  0  0  0  0  0  0
   25.6600   17.5890   16.3380 C   0  0  0  0  0  0  0  0  0  0  0  0
   26.7180   18.5290   16.8920 C   0  0  0  0  0  0  0  0  0  0  0  0
   26.5950   19.9110   16.2900 C   0  0  0  0  0  0  0  0  0  0  0  0
   26.9640   20.9200   16.8840 O   0  0  0  0  0  0  0  0  0  0  0  0
   26.1020   19.9850   15.0120 N   0  0  0  0  0  0  0  0  0  0  0  0
   25.6020   18.9610   14.2380 C   0  0  0  0  0  0  0  0  0  0  0  0
   25.1190   19.1950   13.1310 O   0  0  0  0  0  0  0  0  0  0  0  0
   23.4720   16.6450   14.3940 C   0  0  0  0  0  0  0  0  0  0  0  0
   22.8180   17.2950   15.1870 O   0  0  0  0  0  0  0  0  0  0  0  0
   21.0660   16.0630    9.7470 C   0  0  0  0  0  0  0  0  0  0  0  0
   19.9780   16.7960    9.6130 N   0  0  0  0  0  0  0  0  0  0  0  0
   18.9260   19.5054    8.5155 H   0  0  0  0  0  0  0  0  0  0  0  0
   19.7645   19.1250    6.9731 H   0  0  0  0  0  0  0  0  0  0  0  0
   18.0054   19.4887    6.9731 H   0  0  0  0  0  0  0  0  0  0  0  0
   17.6872   17.4450    8.4450 H   0  0  0  0  0  0  0  0  0  0  0  0
   18.2603   17.1164    6.7525 H   0  0  0  0  0  0  0  0  0  0  0  0
   20.6734   15.8468    6.4900 H   0  0  0  0  0  0  0  0  0  0  0  0
   22.1044   12.0147    7.1207 H   0  0  0  0  0  0  0  0  0  0  0  0
   21.4464    9.7806    8.0054 H   0  0  0  0  0  0  0  0  0  0  0  0
   21.2393    9.4325   10.4629 H   0  0  0  0  0  0  0  0  0  0  0  0
   21.6992   11.3026   12.0301 H   0  0  0  0  0  0  0  0  0  0  0  0
   20.3379   13.9431   12.1176 H   0  0  0  0  0  0  0  0  0  0  0  0
   20.7774   15.6658   13.8885 H   0  0  0  0  0  0  0  0  0  0  0  0
   24.5484   13.9551   11.0165 H   0  0  0  0  0  0  0  0  0  0  0  0
   26.7712   17.1541   14.6005 H   0  0  0  0  0  0  0  0  0  0  0  0
   24.6613   17.9483   16.6269 H   0  0  0  0  0  0  0  0  0  0  0  0
   25.8149   16.5786   16.7443 H   0  0  0  0  0  0  0  0  0  0  0  0
   26.5972   18.6014   17.9829 H   0  0  0  0  0  0  0  0  0  0  0  0
   27.7089   18.1258   16.6360 H   0  0  0  0  0  0  0  0  0  0  0  0
   26.1062   20.9194   14.5787 H   0  0  0  0  0  0  0  0  0  0  0  0
   21.6002   15.9006   10.6948 H   0  0  0  0  0  0  0  0  0  0  0  0
  1  2  1  0
  2  3  1  0
  3  4  2  0
  4  5  1  0
  5  6  1  0
  6  7  2  0
  6  8  2  0
  6  9  1  0
  9 10  2  0
 10 11  1  0
 11 12  2  0
 12 13  1  0
 13 14  2  0
 14 15  1  0
 15 16  2  0
 16 17  1  0
 17 18  2  0
 18 19  1  0
 19 20  2  0
 19 21  1  0
 21 22  2  0
 21 23  1  0
 23 24  1  0
 24 25  1  0
 25 26  1  0
 26 27  1  0
 27 28  2  0
 27 29  1  0
 29 30  1  0
 30 31  2  0
 23 32  1  0
 32 33  2  0
  5 34  1  0
 34 35  2  0
 35  3  1  0
 14  9  1  0
 20 15  1  0
 30 24  1  0
 32 18  1  0
  1 36  1  0
  1 37  1  0
  1 38  1  0
  2 39  1  0
  2 40  1  0
  4 41  1  0
 10 42  1  0
 11 43  1  0
 12 44  1  0
 13 45  1  0
 16 46  1  0
 17 47  1  0
 20 48  1  0
 24 49  1  1
 25 50  1  0
 25 51  1  0
 26 52  1  0
 26 53  1  0
 29 54  1  0
 34 55  1  0
M  END
>  <meeko>  (1236) 
{"is_sidechain": [true], "free_energy": -10.16, "intermolecular_energy": 0.0, "internal_energy": -10.16, "cluster_size": 18, "cluster_id": 1, "rank_in_cluster": 1}

>  <_RMSD_MCS_to_ref>  (1236) 
1.2333541439685705

$$$$
ligand
     RDKit          3D

 44 47  0  0  0  0  0  0  0  0999 V2000
   18.8250   19.0180    7.5350 C   0  0  0  0  0  0  0  0  0  0  0  0
   18.5200   17.5410    7.7330 C   0  0  0  0  0  0  0  0  0  0  0  0
   19.6960   16.7920    8.2510 C   0  0  0  0  0  0  0  0  0  0  0  0
   20.1440   16.6710    9.5520 C   0  0  0  0  0  0  0  0  0  0  0  0
   21.2170   15.8310    9.4560 N   0  0  0  0  0  0  0  0  0  0  0  0
   22.2810   15.4630   10.6940 S   0  0  0  0  0  6  0  0  0  0  0  0
   23.2870   14.5630   10.1680 O   0  0  0  0  0  0  0  0  0  0  0  0
   22.6250   16.7470   11.2770 O   0  0  0  0  0  0  0  0  0  0  0  0
   21.5070   14.5910   11.9770 C   0  0  0  0  0  0  0  0  0  0  0  0
   20.6580   13.4630   11.7080 C   0  0  0  0  0  0  0  0  0  0  0  0
   20.1470   12.9050   12.8560 C   0  0  0  0  0  0  0  0  0  0  0  0
   20.6750   13.7320   14.2490 S   0  0  0  0  0  0  0  0  0  0  0  0
   21.5880   14.8600   13.3300 C   0  0  0  0  0  0  0  0  0  0  0  0
   22.3890   16.0130   14.0140 C   0  0  0  0  0  0  0  0  0  0  0  0
   23.7530   16.0680   14.1890 C   0  0  0  0  0  0  0  0  0  0  0  0
   23.9580   17.2800   14.7810 N   0  0  0  0  0  0  0  0  0  0  0  0
   25.2180   17.8720   15.1930 C   0  0  2  0  0  0  0  0  0  0  0  0
   25.3260   18.0380   16.7120 C   0  0  0  0  0  0  0  0  0  0  0  0
   26.6480   18.6990   17.0630 C   0  0  0  0  0  0  0  0  0  0  0  0
   26.7970   20.0270   16.3570 C   0  0  0  0  0  0  0  0  0  0  0  0
   27.5710   20.8940   16.7490 O   0  0  0  0  0  0  0  0  0  0  0  0
   26.0890   20.1780   15.1920 N   0  0  0  0  0  0  0  0  0  0  0  0
   25.4350   19.1970   14.4810 C   0  0  0  0  0  0  0  0  0  0  0  0
   25.1480   19.3830   13.3000 O   0  0  0  0  0  0  0  0  0  0  0  0
   22.7940   17.9210   14.9870 N   0  0  0  0  0  0  0  0  0  0  0  0
   21.8270   17.1460   14.5220 N   0  0  0  0  0  0  0  0  0  0  0  0
   21.4480   15.5510    8.1480 C   0  0  0  0  0  0  0  0  0  0  0  0
   20.5250   16.1040    7.3870 N   0  0  0  0  0  0  0  0  0  0  0  0
   18.9258   19.5062    8.5155 H   0  0  0  0  0  0  0  0  0  0  0  0
   19.7645   19.1263    6.9731 H   0  0  0  0  0  0  0  0  0  0  0  0
   18.0053   19.4896    6.9731 H   0  0  0  0  0  0  0  0  0  0  0  0
   17.6924   17.4427    8.4510 H   0  0  0  0  0  0  0  0  0  0  0  0
   18.2516   17.1161    6.7545 H   0  0  0  0  0  0  0  0  0  0  0  0
   19.7319   17.1422   10.4565 H   0  0  0  0  0  0  0  0  0  0  0  0
   20.4413   13.0881   10.6968 H   0  0  0  0  0  0  0  0  0  0  0  0
   19.4789   12.0313   12.8731 H   0  0  0  0  0  0  0  0  0  0  0  0
   24.5030   15.3113   13.9154 H   0  0  0  0  0  0  0  0  0  0  0  0
   26.0163   17.1738   14.9011 H   0  0  0  0  0  0  0  0  0  0  0  0
   24.4969   18.6655   17.0709 H   0  0  0  0  0  0  0  0  0  0  0  0
   25.2753   17.0489   17.1907 H   0  0  0  0  0  0  0  0  0  0  0  0
   26.6901   18.8633   18.1499 H   0  0  0  0  0  0  0  0  0  0  0  0
   27.4657   18.0380   16.7398 H   0  0  0  0  0  0  0  0  0  0  0  0
   26.0413   21.1317   14.8060 H   0  0  0  0  0  0  0  0  0  0  0  0
   22.2883   14.9469    7.7753 H   0  0  0  0  0  0  0  0  0  0  0  0
  1  2  1  0
  2  3  1  0
  3  4  2  0
  4  5  1  0
  5  6  1  0
  6  7  2  0
  6  8  2  0
  6  9  1  0
  9 10  1  0
 10 11  2  0
 11 12  1  0
 12 13  1  0
 13 14  1  0
 14 15  2  0
 15 16  1  0
 16 17  1  0
 17 18  1  0
 18 19  1  0
 19 20  1  0
 20 21  2  0
 20 22  1  0
 22 23  1  0
 23 24  2  0
 16 25  1  0
 25 26  2  0
  5 27  1  0
 27 28  2  0
 28  3  1  0
 13  9  2  0
 26 14  1  0
 23 17  1  0
  1 29  1  0
  1 30  1  0
  1 31  1  0
  2 32  1  0
  2 33  1  0
  4 34  1  0
 10 35  1  0
 11 36  1  0
 15 37  1  0
 17 38  1  6
 18 39  1  0
 18 40  1  0
 19 41  1  0
 19 42  1  0
 22 43  1  0
 27 44  1  0
M  END
>  <meeko>  (1237) 
{"is_sidechain": [true], "free_energy": -10.16, "intermolecular_energy": 0.0, "internal_energy": -10.16, "cluster_size": 20, "cluster_id": 1, "rank_in_cluster": 1}

>  <_RMSD_MCS_to_ref>  (1237) 
0.7158304423690174

$$$$
ligand
     RDKit          3D

 48 51  0  0  0  0  0  0  0  0999 V2000
   18.7970   18.8170    7.7190 C   0  0  0  0  0  0  0  0  0  0  0  0
   18.5280   17.3290    7.8810 C   0  0  0  0  0  0  0  0  0  0  0  0
   19.7860   16.5430    8.0030 C   0  0  0  0  0  0  0  0  0  0  0  0
   20.0800   15.5030    8.8630 C   0  0  0  0  0  0  0  0  0  0  0  0
   21.3610   15.1570    8.5440 N   0  0  0  0  0  0  0  0  0  0  0  0
   22.2260   13.8810    9.2070 S   0  0  0  0  0  6  0  0  0  0  0  0
   21.2540   12.9460    9.7360 O   0  0  0  0  0  0  0  0  0  0  0  0
   23.1770   13.5060    8.1760 O   0  0  0  0  0  0  0  0  0  0  0  0
   23.1370   14.5450   10.5590 C   0  0  0  0  0  0  0  0  0  0  0  0
   24.4140   15.0790   10.3250 C   0  0  0  0  0  0  0  0  0  0  0  0
   25.1700   15.6240   11.3680 C   0  0  0  0  0  0  0  0  0  0  0  0
   24.6760   15.6470   12.6880 C   0  0  0  0  0  0  0  0  0  0  0  0
   25.4680   16.2320   13.8010 C   0  0  0  0  0  0  0  0  0  0  0  0
   26.0530   15.5130   14.6010 O   0  0  0  0  0  0  0  0  0  0  0  0
   25.5190   17.6070   13.8550 N   0  0  0  0  0  0  0  0  0  0  0  0
   26.3910   18.2890   14.8040 C   0  0  2  0  0  0  0  0  0  0  0  0
   26.0440   17.9570   16.2520 C   0  0  0  0  0  0  0  0  0  0  0  0
   26.9600   18.7340   17.1830 C   0  0  0  0  0  0  0  0  0  0  0  0
   26.8860   20.2190   16.9120 C   0  0  0  0  0  0  0  0  0  0  0  0
   26.9960   21.0570   17.8020 O   0  0  0  0  0  0  0  0  0  0  0  0
   26.7170   20.5970   15.6050 N   0  0  0  0  0  0  0  0  0  0  0  0
   26.2480   19.7990   14.5920 C   0  0  0  0  0  0  0  0  0  0  0  0
   25.7540   20.2820   13.5730 O   0  0  0  0  0  0  0  0  0  0  0  0
   23.3880   15.1210   12.9380 C   0  0  0  0  0  0  0  0  0  0  0  0
   22.5430   14.9620   14.0760 C   0  0  0  0  0  0  0  0  0  0  0  0
   21.3960   14.3490   13.6360 C   0  0  0  0  0  0  0  0  0  0  0  0
   21.4710   14.1120   12.3030 O   0  0  0  0  0  0  0  0  0  0  0  0
   22.6710   14.5840   11.8710 C   0  0  0  0  0  0  0  0  0  0  0  0
   21.7990   15.9500    7.5320 C   0  0  0  0  0  0  0  0  0  0  0  0
   20.8640   16.8100    7.1830 N   0  0  0  0  0  0  0  0  0  0  0  0
   18.8815   19.2845    8.7111 H   0  0  0  0  0  0  0  0  0  0  0  0
   19.7359   18.9616    7.1643 H   0  0  0  0  0  0  0  0  0  0  0  0
   17.9682   19.2812    7.1643 H   0  0  0  0  0  0  0  0  0  0  0  0
   17.9238   17.1743    8.7871 H   0  0  0  0  0  0  0  0  0  0  0  0
   17.9967   16.9809    6.9829 H   0  0  0  0  0  0  0  0  0  0  0  0
   19.4302   15.0559    9.6297 H   0  0  0  0  0  0  0  0  0  0  0  0
   24.8266   15.0687    9.3054 H   0  0  0  0  0  0  0  0  0  0  0  0
   26.1653   16.0411   11.1549 H   0  0  0  0  0  0  0  0  0  0  0  0
   24.9325   18.1620   13.2155 H   0  0  0  0  0  0  0  0  0  0  0  0
   27.4225   17.9516   14.6245 H   0  0  0  0  0  0  0  0  0  0  0  0
   24.9982   18.2339   16.4512 H   0  0  0  0  0  0  0  0  0  0  0  0
   26.1765   16.8785   16.4229 H   0  0  0  0  0  0  0  0  0  0  0  0
   26.6581   18.5441   18.2236 H   0  0  0  0  0  0  0  0  0  0  0  0
   27.9940   18.4006   17.0110 H   0  0  0  0  0  0  0  0  0  0  0  0
   26.9642   21.5668   15.3617 H   0  0  0  0  0  0  0  0  0  0  0  0
   22.7671   15.2710   15.1076 H   0  0  0  0  0  0  0  0  0  0  0  0
   20.5387   14.0875   14.2737 H   0  0  0  0  0  0  0  0  0  0  0  0
   22.7945   15.8835    7.0689 H   0  0  0  0  0  0  0  0  0  0  0  0
  1  2  1  0
  2  3  1  0
  3  4  2  0
  4  5  1  0
  5  6  1  0
  6  7  2  0
  6  8  2  0
  6  9  1  0
  9 10  2  0
 10 11  1  0
 11 12  2  0
 12 13  1  0
 13 14  2  0
 13 15  1  0
 15 16  1  0
 16 17  1  0
 17 18  1  0
 18 19  1  0
 19 20  2  0
 19 21  1  0
 21 22  1  0
 22 23  2  0
 12 24  1  0
 24 25  1  0
 25 26  2  0
 26 27  1  0
 27 28  1  0
  5 29  1  0
 29 30  2  0
 30  3  1  0
 28  9  1  0
 22 16  1  0
 28 24  2  0
  1 31  1  0
  1 32  1  0
  1 33  1  0
  2 34  1  0
  2 35  1  0
  4 36  1  0
 10 37  1  0
 11 38  1  0
 15 39  1  0
 16 40  1  6
 17 41  1  0
 17 42  1  0
 18 43  1  0
 18 44  1  0
 21 45  1  0
 25 46  1  0
 26 47  1  0
 29 48  1  0
M  END
>  <meeko>  (1238) 
{"is_sidechain": [true], "free_energy": -10.16, "intermolecular_energy": 0.0, "internal_energy": -10.16, "cluster_size": 16, "cluster_id": 1, "rank_in_cluster": 1}

>  <_RMSD_MCS_to_ref>  (1238) 
0.8043854106638731

$$$$
ligand
     RDKit          3D

 47 50  0  0  0  0  0  0  0  0999 V2000
   18.7970   18.8160    7.7190 C   0  0  0  0  0  0  0  0  0  0  0  0
   18.5280   17.3300    7.8810 C   0  0  0  0  0  0  0  0  0  0  0  0
   19.7770   16.5220    7.8440 C   0  0  0  0  0  0  0  0  0  0  0  0
   20.3030   15.7010    8.8220 C   0  0  0  0  0  0  0  0  0  0  0  0
   21.4530   15.2100    8.2700 N   0  0  0  0  0  0  0  0  0  0  0  0
   22.4150   13.9910    8.9220 S   0  0  0  0  0  6  0  0  0  0  0  0
   21.9030   13.7560   10.2590 O   0  0  0  0  0  0  0  0  0  0  0  0
   22.4380   12.9500    7.9100 O   0  0  0  0  0  0  0  0  0  0  0  0
   24.0520   14.6150    9.0750 C   0  0  0  0  0  0  0  0  0  0  0  0
   24.9680   14.3900    8.0310 C   0  0  0  0  0  0  0  0  0  0  0  0
   26.2860   14.8620    8.1200 C   0  0  0  0  0  0  0  0  0  0  0  0
   26.7350   15.5670    9.2440 C   0  0  0  0  0  0  0  0  0  0  0  0
   25.7960   15.7670   10.2490 C   0  0  0  0  0  0  0  0  0  0  0  0
   25.9780   16.4130   11.4400 O   0  0  0  0  0  0  0  0  0  0  0  0
   24.7520   16.3230   12.0480 C   0  0  0  0  0  0  0  0  0  0  0  0
   24.5140   16.8780   13.3730 C   0  0  0  0  0  0  0  0  0  0  0  0
   23.4090   17.0140   13.8930 O   0  0  0  0  0  0  0  0  0  0  0  0
   25.6880   17.2580   14.0170 N   0  0  0  0  0  0  0  0  0  0  0  0
   25.6550   18.2110   15.1110 C   0  0  1  0  0  0  0  0  0  0  0  0
   26.5140   17.7310   16.2730 C   0  0  0  0  0  0  0  0  0  0  0  0
   26.4750   18.7590   17.3920 C   0  0  0  0  0  0  0  0  0  0  0  0
   26.9070   20.1210   16.9030 C   0  0  0  0  0  0  0  0  0  0  0  0
   27.4970   20.9220   17.6230 O   0  0  0  0  0  0  0  0  0  0  0  0
   26.5730   20.4440   15.6120 N   0  0  0  0  0  0  0  0  0  0  0  0
   26.1880   19.5690   14.6240 C   0  0  0  0  0  0  0  0  0  0  0  0
   26.2600   19.8900   13.4390 O   0  0  0  0  0  0  0  0  0  0  0  0
   23.8350   15.6880   11.3380 N   0  0  0  0  0  0  0  0  0  0  0  0
   24.4850   15.3210   10.1970 C   0  0  0  0  0  0  0  0  0  0  0  0
   21.5980   15.7260    7.0190 C   0  0  0  0  0  0  0  0  0  0  0  0
   20.5760   16.5050    6.7150 N   0  0  0  0  0  0  0  0  0  0  0  0
   18.8816   19.2836    8.7111 H   0  0  0  0  0  0  0  0  0  0  0  0
   19.7359   18.9603    7.1643 H   0  0  0  0  0  0  0  0  0  0  0  0
   17.9683   19.2803    7.1643 H   0  0  0  0  0  0  0  0  0  0  0  0
   18.0282   17.1643    8.8468 H   0  0  0  0  0  0  0  0  0  0  0  0
   17.8951   17.0093    7.0404 H   0  0  0  0  0  0  0  0  0  0  0  0
   19.8900   15.4900    9.8194 H   0  0  0  0  0  0  0  0  0  0  0  0
   24.6471   13.8380    7.1353 H   0  0  0  0  0  0  0  0  0  0  0  0
   26.9820   14.6744    7.2891 H   0  0  0  0  0  0  0  0  0  0  0  0
   27.7668   15.9393    9.3262 H   0  0  0  0  0  0  0  0  0  0  0  0
   26.5882   16.8593   13.7144 H   0  0  0  0  0  0  0  0  0  0  0  0
   24.6144   18.3101   15.4536 H   0  0  0  0  0  0  0  0  0  0  0  0
   26.1256   16.7709   16.6437 H   0  0  0  0  0  0  0  0  0  0  0  0
   27.5516   17.6003   15.9318 H   0  0  0  0  0  0  0  0  0  0  0  0
   25.4480   18.8270   17.7801 H   0  0  0  0  0  0  0  0  0  0  0  0
   27.1698   18.4379   18.1820 H   0  0  0  0  0  0  0  0  0  0  0  0
   26.6149   21.4413   15.3578 H   0  0  0  0  0  0  0  0  0  0  0  0
   22.4493   15.5222    6.3529 H   0  0  0  0  0  0  0  0  0  0  0  0
  1  2  1  0
  2  3  1  0
  3  4  2  0
  4  5  1  0
  5  6  1  0
  6  7  2  0
  6  8  2  0
  6  9  1  0
  9 10  2  0
 10 11  1  0
 11 12  2  0
 12 13  1  0
 13 14  1  0
 14 15  1  0
 15 16  1  0
 16 17  2  0
 16 18  1  0
 18 19  1  0
 19 20  1  0
 20 21  1  0
 21 22  1  0
 22 23  2  0
 22 24  1  0
 24 25  1  0
 25 26  2  0
 15 27  2  0
 27 28  1  0
  5 29  1  0
 29 30  2  0
 30  3  1  0
 28  9  1  0
 28 13  2  0
 25 19  1  0
  1 31  1  0
  1 32  1  0
  1 33  1  0
  2 34  1  0
  2 35  1  0
  4 36  1  0
 10 37  1  0
 11 38  1  0
 12 39  1  0
 18 40  1  0
 19 41  1  1
 20 42  1  0
 20 43  1  0
 21 44  1  0
 21 45  1  0
 24 46  1  0
 29 47  1  0
M  END
>  <meeko>  (1239) 
{"is_sidechain": [true], "free_energy": -10.16, "intermolecular_energy": 0.0, "internal_energy": -10.16, "cluster_size": 17, "cluster_id": 1, "rank_in_cluster": 1}

>  <_RMSD_MCS_to_ref>  (1239) 
0.7262184397426316

$$$$
ligand
     RDKit          3D

 47 50  0  0  0  0  0  0  0  0999 V2000
   18.7970   18.8170    7.7190 C   0  0  0  0  0  0  0  0  0  0  0  0
   18.5280   17.3290    7.8810 C   0  0  0  0  0  0  0  0  0  0  0  0
   19.6330   16.4950    7.3370 C   0  0  0  0  0  0  0  0  0  0  0  0
   20.8720   16.2310    7.8870 C   0  0  0  0  0  0  0  0  0  0  0  0
   21.4810   15.4250    6.9680 N   0  0  0  0  0  0  0  0  0  0  0  0
   22.9800   14.6870    7.1310 S   0  0  0  0  0  6  0  0  0  0  0  0
   23.9570   15.6810    6.7260 O   0  0  0  0  0  0  0  0  0  0  0  0
   22.8600   13.4040    6.4630 O   0  0  0  0  0  0  0  0  0  0  0  0
   23.1920   14.3820    8.8670 C   0  0  0  0  0  0  0  0  0  0  0  0
   22.5510   13.2850    9.4330 C   0  0  0  0  0  0  0  0  0  0  0  0
   22.7170   13.0520   10.7980 C   0  0  0  0  0  0  0  0  0  0  0  0
   23.5270   13.9490   11.5140 C   0  0  0  0  0  0  0  0  0  0  0  0
   23.9550   14.0920   12.8570 C   0  0  0  0  0  0  0  0  0  0  0  0
   24.7640   15.2120   12.9020 C   0  0  0  0  0  0  0  0  0  0  0  0
   25.4700   15.8260   14.0050 C   0  0  0  0  0  0  0  0  0  0  0  0
   25.8390   15.2110   15.0010 O   0  0  0  0  0  0  0  0  0  0  0  0
   25.7080   17.1720   13.8460 N   0  0  0  0  0  0  0  0  0  0  0  0
   26.5230   17.9320   14.7770 C   0  0  2  0  0  0  0  0  0  0  0  0
   26.0320   17.7890   16.2140 C   0  0  0  0  0  0  0  0  0  0  0  0
   26.9060   18.6240   17.1360 C   0  0  0  0  0  0  0  0  0  0  0  0
   26.9450   20.0680   16.6970 C   0  0  0  0  0  0  0  0  0  0  0  0
   27.0510   20.9960   17.4940 O   0  0  0  0  0  0  0  0  0  0  0  0
   26.8920   20.3020   15.3470 N   0  0  0  0  0  0  0  0  0  0  0  0
   26.4900   19.4110   14.3810 C   0  0  0  0  0  0  0  0  0  0  0  0
   26.1480   19.7970   13.2650 O   0  0  0  0  0  0  0  0  0  0  0  0
   24.8570   15.7660   11.6540 O   0  0  0  0  0  0  0  0  0  0  0  0
   24.1080   15.0060   10.8130 C   0  0  0  0  0  0  0  0  0  0  0  0
   23.9820   15.2810    9.5030 N   0  0  0  0  0  0  0  0  0  0  0  0
   20.6220   15.1930    5.9420 C   0  0  0  0  0  0  0  0  0  0  0  0
   19.4930   15.8450    6.1260 N   0  0  0  0  0  0  0  0  0  0  0  0
   18.8815   19.2845    8.7111 H   0  0  0  0  0  0  0  0  0  0  0  0
   19.7359   18.9616    7.1643 H   0  0  0  0  0  0  0  0  0  0  0  0
   17.9682   19.2812    7.1643 H   0  0  0  0  0  0  0  0  0  0  0  0
   18.4093   17.1051    8.9514 H   0  0  0  0  0  0  0  0  0  0  0  0
   17.6146   17.0880    7.3175 H   0  0  0  0  0  0  0  0  0  0  0  0
   21.2759   16.5882    8.8458 H   0  0  0  0  0  0  0  0  0  0  0  0
   21.9284   12.6176    8.8191 H   0  0  0  0  0  0  0  0  0  0  0  0
   22.2323   12.1986   11.2948 H   0  0  0  0  0  0  0  0  0  0  0  0
   23.6937   13.4375   13.7016 H   0  0  0  0  0  0  0  0  0  0  0  0
   25.2933   17.6577   13.0379 H   0  0  0  0  0  0  0  0  0  0  0  0
   27.5485   17.5369   14.7289 H   0  0  0  0  0  0  0  0  0  0  0  0
   24.9908   18.1373   16.2817 H   0  0  0  0  0  0  0  0  0  0  0  0
   26.0868   16.7326   16.5158 H   0  0  0  0  0  0  0  0  0  0  0  0
   26.5018   18.5710   18.1577 H   0  0  0  0  0  0  0  0  0  0  0  0
   27.9297   18.2230   17.1008 H   0  0  0  0  0  0  0  0  0  0  0  0
   27.1817   21.2367   15.0256 H   0  0  0  0  0  0  0  0  0  0  0  0
   20.8394   14.5494    5.0769 H   0  0  0  0  0  0  0  0  0  0  0  0
  1  2  1  0
  2  3  1  0
  3  4  2  0
  4  5  1  0
  5  6  1  0
  6  7  2  0
  6  8  2  0
  6  9  1  0
  9 10  2  0
 10 11  1  0
 11 12  2  0
 12 13  1  0
 13 14  2  0
 14 15  1  0
 15 16  2  0
 15 17  1  0
 17 18  1  0
 18 19  1  0
 19 20  1  0
 20 21  1  0
 21 22  2  0
 21 23  1  0
 23 24  1  0
 24 25  2  0
 14 26  1  0
 26 27  1  0
 27 28  2  0
  5 29  1  0
 29 30  2  0
 30  3  1  0
 28  9  1  0
 27 12  1  0
 24 18  1  0
  1 31  1  0
  1 32  1  0
  1 33  1  0
  2 34  1  0
  2 35  1  0
  4 36  1  0
 10 37  1  0
 11 38  1  0
 13 39  1  0
 17 40  1  0
 18 41  1  1
 19 42  1  0
 19 43  1  0
 20 44  1  0
 20 45  1  0
 23 46  1  0
 29 47  1  0
M  END
>  <meeko>  (1240) 
{"is_sidechain": [true], "free_energy": -10.16, "intermolecular_energy": 0.0, "internal_energy": -10.16, "cluster_size": 18, "cluster_id": 1, "rank_in_cluster": 1}

>  <_RMSD_MCS_to_ref>  (1240) 
0.92472530455746

$$$$
ligand
     RDKit          3D

 47 50  0  0  0  0  0  0  0  0999 V2000
   18.7970   18.8170    7.7190 C   0  0  0  0  0  0  0  0  0  0  0  0
   18.5280   17.3290    7.8810 C   0  0  0  0  0  0  0  0  0  0  0  0
   19.7770   16.5230    7.8190 C   0  0  0  0  0  0  0  0  0  0  0  0
   20.6460   16.1860    8.8400 C   0  0  0  0  0  0  0  0  0  0  0  0
   21.6240   15.4630    8.2210 N   0  0  0  0  0  0  0  0  0  0  0  0
   22.8490   14.6010    8.9840 S   0  0  0  0  0  6  0  0  0  0  0  0
   23.9980   15.4820    9.0320 O   0  0  0  0  0  0  0  0  0  0  0  0
   22.8820   13.3110    8.3220 O   0  0  0  0  0  0  0  0  0  0  0  0
   22.2440   14.3810   10.6490 C   0  0  0  0  0  0  0  0  0  0  0  0
   20.9720   13.7430   10.8310 C   0  0  0  0  0  0  0  0  0  0  0  0
   20.3990   13.5140   12.1040 C   0  0  0  0  0  0  0  0  0  0  0  0
   21.1910   13.9620   13.1760 C   0  0  0  0  0  0  0  0  0  0  0  0
   20.9670   13.9100   14.4970 N   0  0  0  0  0  0  0  0  0  0  0  0
   22.0640   14.4880   15.1100 O   0  0  0  0  0  0  0  0  0  0  0  0
   22.9740   14.9040   14.1760 C   0  0  0  0  0  0  0  0  0  0  0  0
   24.1860   15.5420   14.6230 C   0  0  0  0  0  0  0  0  0  0  0  0
   25.1920   14.9260   14.9670 O   0  0  0  0  0  0  0  0  0  0  0  0
   24.1520   16.9200   14.6310 N   0  0  0  0  0  0  0  0  0  0  0  0
   25.3310   17.7210   14.9220 C   0  0  2  0  0  0  0  0  0  0  0  0
   25.6950   17.6910   16.4020 C   0  0  0  0  0  0  0  0  0  0  0  0
   26.9120   18.5720   16.6450 C   0  0  0  0  0  0  0  0  0  0  0  0
   26.6770   19.9800   16.1520 C   0  0  0  0  0  0  0  0  0  0  0  0
   27.1630   20.9610   16.7050 O   0  0  0  0  0  0  0  0  0  0  0  0
   25.9100   20.1150   15.0220 N   0  0  0  0  0  0  0  0  0  0  0  0
   25.0570   19.1700   14.5060 C   0  0  0  0  0  0  0  0  0  0  0  0
   24.1420   19.4840   13.7480 O   0  0  0  0  0  0  0  0  0  0  0  0
   22.4680   14.5910   12.9410 C   0  0  0  0  0  0  0  0  0  0  0  0
   23.0680   14.8310   11.7050 C   0  0  0  0  0  0  0  0  0  0  0  0
   21.3220   15.3390    6.9030 C   0  0  0  0  0  0  0  0  0  0  0  0
   20.2060   15.9800    6.6240 N   0  0  0  0  0  0  0  0  0  0  0  0
   18.8815   19.2845    8.7111 H   0  0  0  0  0  0  0  0  0  0  0  0
   19.7359   18.9616    7.1643 H   0  0  0  0  0  0  0  0  0  0  0  0
   17.9682   19.2812    7.1643 H   0  0  0  0  0  0  0  0  0  0  0  0
   18.0452   17.1601    8.8548 H   0  0  0  0  0  0  0  0  0  0  0  0
   17.8787   17.0106    7.0521 H   0  0  0  0  0  0  0  0  0  0  0  0
   20.5672   16.4420    9.9069 H   0  0  0  0  0  0  0  0  0  0  0  0
   20.4165   13.4168    9.9394 H   0  0  0  0  0  0  0  0  0  0  0  0
   19.4215   13.0290   12.2428 H   0  0  0  0  0  0  0  0  0  0  0  0
   23.2633   17.3979   14.4243 H   0  0  0  0  0  0  0  0  0  0  0  0
   26.1764   17.2981   14.3595 H   0  0  0  0  0  0  0  0  0  0  0  0
   24.8476   18.0651   16.9953 H   0  0  0  0  0  0  0  0  0  0  0  0
   25.9256   16.6579   16.7012 H   0  0  0  0  0  0  0  0  0  0  0  0
   27.1239   18.6008   17.7240 H   0  0  0  0  0  0  0  0  0  0  0  0
   27.7635   18.1481   16.0925 H   0  0  0  0  0  0  0  0  0  0  0  0
   25.9805   21.0080   14.5135 H   0  0  0  0  0  0  0  0  0  0  0  0
   24.0506   15.3067   11.5704 H   0  0  0  0  0  0  0  0  0  0  0  0
   21.9249   14.7814    6.1711 H   0  0  0  0  0  0  0  0  0  0  0  0
  1  2  1  0
  2  3  1  0
  3  4  2  0
  4  5  1  0
  5  6  1  0
  6  7  2  0
  6  8  2  0
  6  9  1  0
  9 10  1  0
 10 11  2  0
 11 12  1  0
 12 13  2  0
 13 14  1  0
 14 15  1  0
 15 16  1  0
 16 17  2  0
 16 18  1  0
 18 19  1  0
 19 20  1  0
 20 21  1  0
 21 22  1  0
 22 23  2  0
 22 24  1  0
 24 25  1  0
 25 26  2  0
 15 27  2  0
 27 28  1  0
  5 29  1  0
 29 30  2  0
 30  3  1  0
 28  9  2  0
 27 12  1  0
 25 19  1  0
  1 31  1  0
  1 32  1  0
  1 33  1  0
  2 34  1  0
  2 35  1  0
  4 36  1  0
 10 37  1  0
 11 38  1  0
 18 39  1  0
 19 40  1  6
 20 41  1  0
 20 42  1  0
 21 43  1  0
 21 44  1  0
 24 45  1  0
 28 46  1  0
 29 47  1  0
M  END
>  <meeko>  (1241) 
{"is_sidechain": [true], "free_energy": -10.16, "intermolecular_energy": 0.0, "internal_energy": -10.16, "cluster_size": 13, "cluster_id": 1, "rank_in_cluster": 1}

>  <_RMSD_MCS_to_ref>  (1241) 
0.7305850775615084

$$$$
ligand
     RDKit          3D

 51 54  0  0  0  0  0  0  0  0999 V2000
   18.7970   18.8170    7.7190 C   0  0  0  0  0  0  0  0  0  0  0  0
   18.5280   17.3290    7.8810 C   0  0  0  0  0  0  0  0  0  0  0  0
   19.7830   16.5430    8.0230 C   0  0  0  0  0  0  0  0  0  0  0  0
   20.3520   16.0120    9.1640 C   0  0  0  0  0  0  0  0  0  0  0  0
   21.4740   15.3750    8.7150 N   0  0  0  0  0  0  0  0  0  0  0  0
   22.6730   14.6960    9.6730 S   0  0  0  0  0  6  0  0  0  0  0  0
   23.4550   13.8760    8.7670 O   0  0  0  0  0  0  0  0  0  0  0  0
   23.2490   15.8040   10.4090 O   0  0  0  0  0  0  0  0  0  0  0  0
   21.8940   13.6110   10.8500 C   0  0  0  0  0  0  0  0  0  0  0  0
   20.8580   12.7580   10.4400 C   0  0  0  0  0  0  0  0  0  0  0  0
   20.2550   11.9080   11.3580 C   0  0  0  0  0  0  0  0  0  0  0  0
   20.6770   11.9020   12.6840 C   0  0  0  0  0  0  0  0  0  0  0  0
   21.7080   12.7470   13.1200 C   0  0  0  0  0  0  0  0  0  0  0  0
   22.0980   12.7180   14.4670 C   0  0  0  0  0  0  0  0  0  0  0  0
   23.1170   13.5420   14.9400 C   0  0  0  0  0  0  0  0  0  0  0  0
   23.7700   14.4070   14.0660 C   0  0  0  0  0  0  0  0  0  0  0  0
   24.8510   15.2760   14.6080 C   0  0  0  0  0  0  0  0  0  0  0  0
   25.9010   14.7840   15.0050 O   0  0  0  0  0  0  0  0  0  0  0  0
   24.6130   16.6330   14.6000 N   0  0  0  0  0  0  0  0  0  0  0  0
   25.6550   17.5750   14.9870 C   0  0  2  0  0  0  0  0  0  0  0  0
   25.8440   17.6290   16.4990 C   0  0  0  0  0  0  0  0  0  0  0  0
   26.9180   18.6490   16.8400 C   0  0  0  0  0  0  0  0  0  0  0  0
   26.5880   20.0080   16.2680 C   0  0  0  0  0  0  0  0  0  0  0  0
   26.9110   21.0530   16.8230 O   0  0  0  0  0  0  0  0  0  0  0  0
   25.9310   20.0240   15.0630 N   0  0  0  0  0  0  0  0  0  0  0  0
   25.2750   18.9700   14.4790 C   0  0  0  0  0  0  0  0  0  0  0  0
   24.4490   19.1520   13.5840 O   0  0  0  0  0  0  0  0  0  0  0  0
   23.3780   14.4580   12.7220 C   0  0  0  0  0  0  0  0  0  0  0  0
   22.3440   13.6280   12.2060 C   0  0  0  0  0  0  0  0  0  0  0  0
   21.5750   15.5460    7.3710 C   0  0  0  0  0  0  0  0  0  0  0  0
   20.5660   16.2610    6.9200 N   0  0  0  0  0  0  0  0  0  0  0  0
   18.8815   19.2845    8.7111 H   0  0  0  0  0  0  0  0  0  0  0  0
   19.7359   18.9616    7.1643 H   0  0  0  0  0  0  0  0  0  0  0  0
   17.9682   19.2812    7.1643 H   0  0  0  0  0  0  0  0  0  0  0  0
   17.9109   17.1763    8.7787 H   0  0  0  0  0  0  0  0  0  0  0  0
   18.0110   16.9789    6.9754 H   0  0  0  0  0  0  0  0  0  0  0  0
   19.9853   16.0853   10.1985 H   0  0  0  0  0  0  0  0  0  0  0  0
   20.5236   12.7625    9.3921 H   0  0  0  0  0  0  0  0  0  0  0  0
   19.4431   11.2390   11.0366 H   0  0  0  0  0  0  0  0  0  0  0  0
   20.1939   11.2232   13.4022 H   0  0  0  0  0  0  0  0  0  0  0  0
   21.5905   12.0328   15.1620 H   0  0  0  0  0  0  0  0  0  0  0  0
   23.4049   13.5093   16.0012 H   0  0  0  0  0  0  0  0  0  0  0  0
   23.6876   16.9857   14.3171 H   0  0  0  0  0  0  0  0  0  0  0  0
   26.6024   17.2372   14.5416 H   0  0  0  0  0  0  0  0  0  0  0  0
   24.8969   17.9204   16.9766 H   0  0  0  0  0  0  0  0  0  0  0  0
   26.1502   16.6381   16.8655 H   0  0  0  0  0  0  0  0  0  0  0  0
   26.9994   18.7311   17.9339 H   0  0  0  0  0  0  0  0  0  0  0  0
   27.8688   18.3105   16.4026 H   0  0  0  0  0  0  0  0  0  0  0  0
   25.9304   20.9150   14.5463 H   0  0  0  0  0  0  0  0  0  0  0  0
   23.8851   15.1612   12.0450 H   0  0  0  0  0  0  0  0  0  0  0  0
   22.3864   15.1433    6.7470 H   0  0  0  0  0  0  0  0  0  0  0  0
  1  2  1  0
  2  3  1  0
  3  4  2  0
  4  5  1  0
  5  6  1  0
  6  7  2  0
  6  8  2  0
  6  9  1  0
  9 10  2  0
 10 11  1  0
 11 12  2  0
 12 13  1  0
 13 14  2  0
 14 15  1  0
 15 16  2  0
 16 17  1  0
 17 18  2  0
 17 19  1  0
 19 20  1  0
 20 21  1  0
 21 22  1  0
 22 23  1  0
 23 24  2  0
 23 25  1  0
 25 26  1  0
 26 27  2  0
 16 28  1  0
 28 29  2  0
  5 30  1  0
 30 31  2  0
 31  3  1  0
 29  9  1  0
 29 13  1  0
 26 20  1  0
  1 32  1  0
  1 33  1  0
  1 34  1  0
  2 35  1  0
  2 36  1  0
  4 37  1  0
 10 38  1  0
 11 39  1  0
 12 40  1  0
 14 41  1  0
 15 42  1  0
 19 43  1  0
 20 44  1  6
 21 45  1  0
 21 46  1  0
 22 47  1  0
 22 48  1  0
 25 49  1  0
 28 50  1  0
 30 51  1  0
M  END
>  <meeko>  (1242) 
{"is_sidechain": [true], "free_energy": -10.16, "intermolecular_energy": 0.0, "internal_energy": -10.16, "cluster_size": 17, "cluster_id": 1, "rank_in_cluster": 1}

>  <_RMSD_MCS_to_ref>  (1242) 
0.78136668017576

$$$$
ligand
     RDKit          3D

 49 52  0  0  0  0  0  0  0  0999 V2000
   18.7970   18.8170    7.7190 C   0  0  0  0  0  0  0  0  0  0  0  0
   18.5280   17.3290    7.8810 C   0  0  0  0  0  0  0  0  0  0  0  0
   19.7840   16.5360    7.9690 C   0  0  0  0  0  0  0  0  0  0  0  0
   20.2360   15.7350    8.9980 C   0  0  0  0  0  0  0  0  0  0  0  0
   21.4190   15.2320    8.5370 N   0  0  0  0  0  0  0  0  0  0  0  0
   22.5350   14.3740    9.4420 S   0  0  0  0  0  6  0  0  0  0  0  0
   23.5710   15.3110    9.8260 O   0  0  0  0  0  0  0  0  0  0  0  0
   22.8070   13.1510    8.7120 O   0  0  0  0  0  0  0  0  0  0  0  0
   21.8460   13.8510   10.9320 C   0  0  0  0  0  0  0  0  0  0  0  0
   20.6660   13.0810   11.0860 C   0  0  0  0  0  0  0  0  0  0  0  0
   20.4790   12.8970   12.4380 C   0  0  0  0  0  0  0  0  0  0  0  0
   21.5000   13.5270   13.1270 N   0  0  0  0  0  0  0  0  0  0  0  0
   21.6640   13.5760   14.5260 C   0  0  0  0  0  0  0  0  0  0  0  0
   20.8630   13.0350   15.2700 O   0  0  0  0  0  0  0  0  0  0  0  0
   22.7860   14.2770   14.8870 N   0  0  0  0  0  0  0  0  0  0  0  0
   23.6750   14.8790   14.0190 C   0  0  0  0  0  0  0  0  0  0  0  0
   24.8170   15.6160   14.6620 C   0  0  0  0  0  0  0  0  0  0  0  0
   25.8280   14.9990   14.9950 O   0  0  0  0  0  0  0  0  0  0  0  0
   24.6930   16.9730   14.7860 N   0  0  0  0  0  0  0  0  0  0  0  0
   25.8050   17.7930   15.2520 C   0  0  2  0  0  0  0  0  0  0  0  0
   25.9520   17.7560   16.7690 C   0  0  0  0  0  0  0  0  0  0  0  0
   27.1000   18.6610   17.1890 C   0  0  0  0  0  0  0  0  0  0  0  0
   26.9050   20.0700   16.6760 C   0  0  0  0  0  0  0  0  0  0  0  0
   27.2860   21.0550   17.2990 O   0  0  0  0  0  0  0  0  0  0  0  0
   26.3040   20.1990   15.4500 N   0  0  0  0  0  0  0  0  0  0  0  0
   25.5610   19.2390   14.8090 C   0  0  0  0  0  0  0  0  0  0  0  0
   24.7620   19.5340   13.9210 O   0  0  0  0  0  0  0  0  0  0  0  0
   23.4720   14.8290   12.6920 C   0  0  0  0  0  0  0  0  0  0  0  0
   22.3470   14.1170   12.1960 C   0  0  0  0  0  0  0  0  0  0  0  0
   21.6810   15.7600    7.3150 C   0  0  0  0  0  0  0  0  0  0  0  0
   20.6990   16.5510    6.9340 N   0  0  0  0  0  0  0  0  0  0  0  0
   18.8815   19.2845    8.7111 H   0  0  0  0  0  0  0  0  0  0  0  0
   19.7359   18.9616    7.1643 H   0  0  0  0  0  0  0  0  0  0  0  0
   17.9682   19.2812    7.1643 H   0  0  0  0  0  0  0  0  0  0  0  0
   17.9454   17.1726    8.8008 H   0  0  0  0  0  0  0  0  0  0  0  0
   17.9752   16.9877    6.9934 H   0  0  0  0  0  0  0  0  0  0  0  0
   19.7535   15.5451    9.9681 H   0  0  0  0  0  0  0  0  0  0  0  0
   20.0218   12.7022   10.2788 H   0  0  0  0  0  0  0  0  0  0  0  0
   19.6500   12.3382   12.8969 H   0  0  0  0  0  0  0  0  0  0  0  0
   22.9828   14.3619   15.8944 H   0  0  0  0  0  0  0  0  0  0  0  0
   23.7983   17.4233   14.5459 H   0  0  0  0  0  0  0  0  0  0  0  0
   26.7326   17.3915   14.8180 H   0  0  0  0  0  0  0  0  0  0  0  0
   25.0196   18.1055   17.2364 H   0  0  0  0  0  0  0  0  0  0  0  0
   26.1602   16.7254   17.0923 H   0  0  0  0  0  0  0  0  0  0  0  0
   27.1547   18.6840   18.2874 H   0  0  0  0  0  0  0  0  0  0  0  0
   28.0313   18.2616   16.7611 H   0  0  0  0  0  0  0  0  0  0  0  0
   26.4210   21.1001   14.9650 H   0  0  0  0  0  0  0  0  0  0  0  0
   24.1652   15.3309   12.0010 H   0  0  0  0  0  0  0  0  0  0  0  0
   22.5867   15.5561    6.7250 H   0  0  0  0  0  0  0  0  0  0  0  0
  1  2  1  0
  2  3  1  0
  3  4  2  0
  4  5  1  0
  5  6  1  0
  6  7  2  0
  6  8  2  0
  6  9  1  0
  9 10  1  0
 10 11  2  0
 11 12  1  0
 12 13  1  0
 13 14  2  0
 13 15  1  0
 15 16  1  0
 16 17  1  0
 17 18  2  0
 17 19  1  0
 19 20  1  0
 20 21  1  0
 21 22  1  0
 22 23  1  0
 23 24  2  0
 23 25  1  0
 25 26  1  0
 26 27  2  0
 16 28  2  0
 28 29  1  0
  5 30  1  0
 30 31  2  0
 31  3  1  0
 29  9  2  0
 29 12  1  0
 26 20  1  0
  1 32  1  0
  1 33  1  0
  1 34  1  0
  2 35  1  0
  2 36  1  0
  4 37  1  0
 10 38  1  0
 11 39  1  0
 15 40  1  0
 19 41  1  0
 20 42  1  6
 21 43  1  0
 21 44  1  0
 22 45  1  0
 22 46  1  0
 25 47  1  0
 28 48  1  0
 30 49  1  0
M  END
>  <meeko>  (1243) 
{"is_sidechain": [true], "free_energy": -10.16, "intermolecular_energy": 0.0, "internal_energy": -10.16, "cluster_size": 8, "cluster_id": 1, "rank_in_cluster": 1}

>  <_RMSD_MCS_to_ref>  (1243) 
0.6784927740547013

$$$$
ligand
     RDKit          3D

 48 51  0  0  0  0  0  0  0  0999 V2000
   18.7970   18.8170    7.7190 C   0  0  0  0  0  0  0  0  0  0  0  0
   18.5280   17.3290    7.8810 C   0  0  0  0  0  0  0  0  0  0  0  0
   19.7860   16.5370    7.9610 C   0  0  0  0  0  0  0  0  0  0  0  0
   20.2880   15.8090    9.0220 C   0  0  0  0  0  0  0  0  0  0  0  0
   21.4480   15.2730    8.5410 N   0  0  0  0  0  0  0  0  0  0  0  0
   22.6180   14.4880    9.4480 S   0  0  0  0  0  6  0  0  0  0  0  0
   22.9510   13.2730    8.7360 O   0  0  0  0  0  0  0  0  0  0  0  0
   23.5950   15.4960    9.8170 O   0  0  0  0  0  0  0  0  0  0  0  0
   21.9330   13.9690   10.9170 C   0  0  0  0  0  0  0  0  0  0  0  0
   21.0200   12.9150   11.0760 C   0  0  0  0  0  0  0  0  0  0  0  0
   20.6320   12.7610   12.3460 N   0  0  0  0  0  0  0  0  0  0  0  0
   21.3270   13.7170   13.0240 N   0  0  0  0  0  0  0  0  0  0  0  0
   21.2130   13.9320   14.4110 C   0  0  0  0  0  0  0  0  0  0  0  0
   20.4800   13.2520   15.1170 O   0  0  0  0  0  0  0  0  0  0  0  0
   22.0500   15.0480   14.9260 C   0  0  0  0  0  0  0  0  0  0  0  0
   22.8370   15.7290   14.0740 C   0  0  0  0  0  0  0  0  0  0  0  0
   23.6730   16.8390   14.6490 C   0  0  0  0  0  0  0  0  0  0  0  0
   23.2060   17.7080   15.3740 O   0  0  0  0  0  0  0  0  0  0  0  0
   25.0010   16.7640   14.3040 N   0  0  0  0  0  0  0  0  0  0  0  0
   25.9810   17.6590   14.9080 C   0  0  2  0  0  0  0  0  0  0  0  0
   25.8920   17.6670   16.4300 C   0  0  0  0  0  0  0  0  0  0  0  0
   26.9050   18.6540   16.9900 C   0  0  0  0  0  0  0  0  0  0  0  0
   26.7070   20.0340   16.4080 C   0  0  0  0  0  0  0  0  0  0  0  0
   26.9240   21.0570   17.0500 O   0  0  0  0  0  0  0  0  0  0  0  0
   26.2970   20.0960   15.1000 N   0  0  0  0  0  0  0  0  0  0  0  0
   25.7290   19.0740   14.3820 C   0  0  0  0  0  0  0  0  0  0  0  0
   25.0700   19.2930   13.3660 O   0  0  0  0  0  0  0  0  0  0  0  0
   22.8950   15.4470   12.7160 N   0  0  0  0  0  0  0  0  0  0  0  0
   22.1360   14.4610   12.1800 C   0  0  0  0  0  0  0  0  0  0  0  0
   21.6510   15.7140    7.2740 C   0  0  0  0  0  0  0  0  0  0  0  0
   20.6480   16.4730    6.8850 N   0  0  0  0  0  0  0  0  0  0  0  0
   18.8815   19.2845    8.7111 H   0  0  0  0  0  0  0  0  0  0  0  0
   19.7359   18.9616    7.1643 H   0  0  0  0  0  0  0  0  0  0  0  0
   17.9682   19.2812    7.1643 H   0  0  0  0  0  0  0  0  0  0  0  0
   17.9506   17.1715    8.8040 H   0  0  0  0  0  0  0  0  0  0  0  0
   17.9692   16.9880    6.9970 H   0  0  0  0  0  0  0  0  0  0  0  0
   19.8528   15.6886   10.0250 H   0  0  0  0  0  0  0  0  0  0  0  0
   20.6632   12.2855   10.2475 H   0  0  0  0  0  0  0  0  0  0  0  0
   22.0258   15.3139   15.9931 H   0  0  0  0  0  0  0  0  0  0  0  0
   25.3079   16.0672   13.6104 H   0  0  0  0  0  0  0  0  0  0  0  0
   26.9865   17.3040   14.6380 H   0  0  0  0  0  0  0  0  0  0  0  0
   24.8791   17.9668   16.7369 H   0  0  0  0  0  0  0  0  0  0  0  0
   26.1080   16.6599   16.8161 H   0  0  0  0  0  0  0  0  0  0  0  0
   26.7884   18.7059   18.0826 H   0  0  0  0  0  0  0  0  0  0  0  0
   27.9135   18.3058   16.7221 H   0  0  0  0  0  0  0  0  0  0  0  0
   26.4278   20.9934   14.6116 H   0  0  0  0  0  0  0  0  0  0  0  0
   23.5223   15.9937   12.1089 H   0  0  0  0  0  0  0  0  0  0  0  0
   22.5298   15.4715    6.6585 H   0  0  0  0  0  0  0  0  0  0  0  0
  1  2  1  0
  2  3  1  0
  3  4  2  0
  4  5  1  0
  5  6  1  0
  6  7  2  0
  6  8  2  0
  6  9  1  0
  9 10  1  0
 10 11  2  0
 11 12  1  0
 12 13  1  0
 13 14  2  0
 13 15  1  0
 15 16  2  0
 16 17  1  0
 17 18  2  0
 17 19  1  0
 19 20  1  0
 20 21  1  0
 21 22  1  0
 22 23  1  0
 23 24  2  0
 23 25  1  0
 25 26  1  0
 26 27  2  0
 16 28  1  0
 28 29  1  0
  5 30  1  0
 30 31  2  0
 31  3  1  0
 29  9  2  0
 29 12  1  0
 26 20  1  0
  1 32  1  0
  1 33  1  0
  1 34  1  0
  2 35  1  0
  2 36  1  0
  4 37  1  0
 10 38  1  0
 15 39  1  0
 19 40  1  0
 20 41  1  1
 21 42  1  0
 21 43  1  0
 22 44  1  0
 22 45  1  0
 25 46  1  0
 28 47  1  0
 30 48  1  0
M  END
>  <meeko>  (1244) 
{"is_sidechain": [true], "free_energy": -10.16, "intermolecular_energy": 0.0, "internal_energy": -10.16, "cluster_size": 13, "cluster_id": 1, "rank_in_cluster": 1}

>  <_RMSD_MCS_to_ref>  (1244) 
0.7058327626916233

$$$$
ligand
     RDKit          3D

 52 56  0  0  0  0  0  0  0  0999 V2000
   18.7970   18.8170    7.7190 C   0  0  0  0  0  0  0  0  0  0  0  0
   18.5280   17.3290    7.8810 C   0  0  0  0  0  0  0  0  0  0  0  0
   19.7600   16.5690    8.2240 C   0  0  0  0  0  0  0  0  0  0  0  0
   20.2790   16.2720    9.4690 C   0  0  0  0  0  0  0  0  0  0  0  0
   21.4080   15.5520    9.1970 N   0  0  0  0  0  0  0  0  0  0  0  0
   22.5230   14.9930   10.3250 S   0  0  0  0  0  6  0  0  0  0  0  0
   23.2020   16.1820   10.8140 O   0  0  0  0  0  0  0  0  0  0  0  0
   23.2340   13.9250    9.6460 O   0  0  0  0  0  0  0  0  0  0  0  0
   21.5590   14.3090   11.6520 C   0  0  0  0  0  0  0  0  0  0  0  0
   20.6270   13.4160   11.2290 N   0  0  0  0  0  0  0  0  0  0  0  0
   19.8680   12.8470   12.1870 C   0  0  0  0  0  0  0  0  0  0  0  0
   19.9820   13.1210   13.5500 C   0  0  0  0  0  0  0  0  0  0  0  0
   19.1500   12.4840   14.4890 C   0  0  0  0  0  0  0  0  0  0  0  0
   19.2680   12.7650   15.8480 C   0  0  0  0  0  0  0  0  0  0  0  0
   20.2170   13.6820   16.2820 C   0  0  0  0  0  0  0  0  0  0  0  0
   21.0480   14.3190   15.3570 C   0  0  0  0  0  0  0  0  0  0  0  0
   20.9570   14.0580   13.9670 C   0  0  0  0  0  0  0  0  0  0  0  0
   21.7710   14.6790   12.9800 C   0  0  0  0  0  0  0  0  0  0  0  0
   22.7810   15.6420   13.3510 C   0  0  0  0  0  0  0  0  0  0  0  0
   24.1420   15.4930   13.2250 C   0  0  0  0  0  0  0  0  0  0  0  0
   24.6420   16.6550   13.7380 N   0  0  0  0  0  0  0  0  0  0  0  0
   26.0340   16.9990   13.9560 C   0  0  2  0  0  0  0  0  0  0  0  0
   26.4520   16.9720   15.4280 C   0  0  0  0  0  0  0  0  0  0  0  0
   25.9660   18.1940   16.1930 C   0  0  0  0  0  0  0  0  0  0  0  0
   26.3470   19.4760   15.4930 C   0  0  0  0  0  0  0  0  0  0  0  0
   26.5300   20.5270   16.1010 O   0  0  0  0  0  0  0  0  0  0  0  0
   26.4560   19.4250   14.1270 N   0  0  0  0  0  0  0  0  0  0  0  0
   26.3660   18.3250   13.3070 C   0  0  0  0  0  0  0  0  0  0  0  0
   26.5470   18.4340   12.0940 O   0  0  0  0  0  0  0  0  0  0  0  0
   23.6540   17.4890   14.1070 N   0  0  0  0  0  0  0  0  0  0  0  0
   22.5020   16.8720   13.8780 N   0  0  0  0  0  0  0  0  0  0  0  0
   21.5670   15.4650    7.8510 C   0  0  0  0  0  0  0  0  0  0  0  0
   20.5700   16.0580    7.2280 N   0  0  0  0  0  0  0  0  0  0  0  0
   18.8815   19.2845    8.7111 H   0  0  0  0  0  0  0  0  0  0  0  0
   19.7359   18.9616    7.1643 H   0  0  0  0  0  0  0  0  0  0  0  0
   17.9682   19.2812    7.1643 H   0  0  0  0  0  0  0  0  0  0  0  0
   17.7897   17.1879    8.6841 H   0  0  0  0  0  0  0  0  0  0  0  0
   18.1524   16.9473    6.9201 H   0  0  0  0  0  0  0  0  0  0  0  0
   19.8759   16.5511   10.4537 H   0  0  0  0  0  0  0  0  0  0  0  0
   19.1073   12.1173   11.8725 H   0  0  0  0  0  0  0  0  0  0  0  0
   18.3990   11.7569   14.1464 H   0  0  0  0  0  0  0  0  0  0  0  0
   18.6124   12.2629   16.5747 H   0  0  0  0  0  0  0  0  0  0  0  0
   20.3142   13.9067   17.3544 H   0  0  0  0  0  0  0  0  0  0  0  0
   21.7935   15.0431   15.7175 H   0  0  0  0  0  0  0  0  0  0  0  0
   24.6969   14.6391   12.8091 H   0  0  0  0  0  0  0  0  0  0  0  0
   26.6271   16.2101   13.4703 H   0  0  0  0  0  0  0  0  0  0  0  0
   26.0311   16.0709   15.8980 H   0  0  0  0  0  0  0  0  0  0  0  0
   27.5514   16.9701   15.4638 H   0  0  0  0  0  0  0  0  0  0  0  0
   24.8705   18.1475   16.2812 H   0  0  0  0  0  0  0  0  0  0  0  0
   26.4407   18.1898   17.1853 H   0  0  0  0  0  0  0  0  0  0  0  0
   26.6269   20.3247   13.6555 H   0  0  0  0  0  0  0  0  0  0  0  0
   22.4114   14.9682    7.3508 H   0  0  0  0  0  0  0  0  0  0  0  0
  1  2  1  0
  2  3  1  0
  3  4  2  0
  4  5  1  0
  5  6  1  0
  6  7  2  0
  6  8  2  0
  6  9  1  0
  9 10  2  0
 10 11  1  0
 11 12  2  0
 12 13  1  0
 13 14  2  0
 14 15  1  0
 15 16  2  0
 16 17  1  0
 17 18  2  0
 18 19  1  0
 19 20  2  0
 20 21  1  0
 21 22  1  0
 22 23  1  0
 23 24  1  0
 24 25  1  0
 25 26  2  0
 25 27  1  0
 27 28  1  0
 28 29  2  0
 21 30  1  0
 30 31  2  0
  5 32  1  0
 32 33  2  0
 33  3  1  0
 18  9  1  0
 31 19  1  0
 17 12  1  0
 28 22  1  0
  1 34  1  0
  1 35  1  0
  1 36  1  0
  2 37  1  0
  2 38  1  0
  4 39  1  0
 11 40  1  0
 13 41  1  0
 14 42  1  0
 15 43  1  0
 16 44  1  0
 20 45  1  0
 22 46  1  6
 23 47  1  0
 23 48  1  0
 24 49  1  0
 24 50  1  0
 27 51  1  0
 32 52  1  0
M  END
>  <meeko>  (1245) 
{"is_sidechain": [true], "free_energy": -10.16, "intermolecular_energy": 0.0, "internal_energy": -10.16, "cluster_size": 15, "cluster_id": 1, "rank_in_cluster": 1}

>  <_RMSD_MCS_to_ref>  (1245) 
1.668918645244412

$$$$
ligand
     RDKit          3D

 62 66  0  0  0  0  0  0  0  0999 V2000
   18.9090   19.1540    7.5370 C   0  0  0  0  0  0  0  0  0  0  0  0
   18.7730   17.6460    7.6780 C   0  0  0  0  0  0  0  0  0  0  0  0
   20.0400   16.9350    7.3560 C   0  0  0  0  0  0  0  0  0  0  0  0
   21.1810   16.8020    8.1210 C   0  0  0  0  0  0  0  0  0  0  0  0
   22.0110   16.0340    7.3540 N   0  0  0  0  0  0  0  0  0  0  0  0
   23.6280   15.7080    7.6770 S   0  0  0  0  0  6  0  0  0  0  0  0
   23.9850   14.6070    6.8040 O   0  0  0  0  0  0  0  0  0  0  0  0
   24.3070   16.9880    7.6340 O   0  0  0  0  0  0  0  0  0  0  0  0
   23.6050   15.1280    9.3510 C   0  0  0  0  0  0  0  0  0  0  0  0
   22.7210   14.1140    9.7160 C   0  0  0  0  0  0  0  0  0  0  0  0
   22.7110   13.6680   11.0350 C   0  0  0  0  0  0  0  0  0  0  0  0
   23.5520   14.2510   11.9900 C   0  0  0  0  0  0  0  0  0  0  0  0
   24.4670   15.2440   11.6280 C   0  0  0  0  0  0  0  0  0  0  0  0
   24.4700   15.6950   10.2940 C   0  0  0  0  0  0  0  0  0  0  0  0
   25.4860   15.7890   12.5970 C   0  0  0  0  0  0  0  0  0  0  0  0
   24.8800   16.4690   13.7450 N   0  0  0  0  0  0  0  0  0  0  0  0
   25.7760   17.5040   14.3170 C   0  0  2  0  0  0  0  0  0  0  0  0
   25.7040   17.6470   15.8430 C   0  0  0  0  0  0  0  0  0  0  0  0
   26.7110   18.6890   16.3040 C   0  0  0  0  0  0  0  0  0  0  0  0
   26.4640   20.0190   15.6350 C   0  0  0  0  0  0  0  0  0  0  0  0
   26.7710   21.0840   16.1600 O   0  0  0  0  0  0  0  0  0  0  0  0
   25.9250   19.9790   14.3750 N   0  0  0  0  0  0  0  0  0  0  0  0
   25.5270   18.8780   13.6500 C   0  0  0  0  0  0  0  0  0  0  0  0
   25.0470   19.0320   12.5280 O   0  0  0  0  0  0  0  0  0  0  0  0
   24.3970   15.4870   14.7370 C   0  0  0  0  0  0  0  0  0  0  0  0
   23.1300   14.6920   14.3070 C   0  0  0  0  0  0  0  0  0  0  0  0
   22.7270   13.7960   15.5050 C   0  0  0  0  0  0  0  0  0  0  0  0
   21.3920   13.1100   15.2520 C   0  0  0  0  0  0  0  0  0  0  0  0
   20.3750   14.0820   15.0300 O   0  0  0  0  0  0  0  0  0  0  0  0
   20.6290   14.8590   13.8620 C   0  0  0  0  0  0  0  0  0  0  0  0
   21.9380   15.6270   13.9950 C   0  0  0  0  0  0  0  0  0  0  0  0
   23.4480   13.7480   13.2540 O   0  0  0  0  0  0  0  0  0  0  0  0
   21.4040   15.7710    6.1680 C   0  0  0  0  0  0  0  0  0  0  0  0
   20.1980   16.2970    6.1400 N   0  0  0  0  0  0  0  0  0  0  0  0
   18.9504   19.6134    8.5356 H   0  0  0  0  0  0  0  0  0  0  0  0
   19.8320   19.3891    6.9867 H   0  0  0  0  0  0  0  0  0  0  0  0
   18.0430   19.5504    6.9867 H   0  0  0  0  0  0  0  0  0  0  0  0
   18.4885   17.4113    8.7143 H   0  0  0  0  0  0  0  0  0  0  0  0
   18.0056   17.3080    6.9660 H   0  0  0  0  0  0  0  0  0  0  0  0
   21.3773   17.2189    9.1198 H   0  0  0  0  0  0  0  0  0  0  0  0
   22.0410   13.6724    8.9726 H   0  0  0  0  0  0  0  0  0  0  0  0
   22.0364   12.8504   11.3290 H   0  0  0  0  0  0  0  0  0  0  0  0
   25.1571   16.4987    9.9909 H   0  0  0  0  0  0  0  0  0  0  0  0
   26.0984   14.9539   12.9678 H   0  0  0  0  0  0  0  0  0  0  0  0
   26.0891   16.5327   12.0556 H   0  0  0  0  0  0  0  0  0  0  0  0
   26.7929   17.1489   14.0940 H   0  0  0  0  0  0  0  0  0  0  0  0
   24.6912   17.9623   16.1341 H   0  0  0  0  0  0  0  0  0  0  0  0
   25.9369   16.6800   16.3127 H   0  0  0  0  0  0  0  0  0  0  0  0
   26.6251   18.8138   17.3935 H   0  0  0  0  0  0  0  0  0  0  0  0
   27.7193   18.3438   16.0318 H   0  0  0  0  0  0  0  0  0  0  0  0
   25.8019   20.8902   13.9107 H   0  0  0  0  0  0  0  0  0  0  0  0
   25.2057   14.7656   14.9257 H   0  0  0  0  0  0  0  0  0  0  0  0
   24.1119   16.0637   15.6292 H   0  0  0  0  0  0  0  0  0  0  0  0
   23.5015   13.0298   15.6570 H   0  0  0  0  0  0  0  0  0  0  0  0
   22.6299   14.4304   16.3984 H   0  0  0  0  0  0  0  0  0  0  0  0
   21.4773   12.4642   14.3657 H   0  0  0  0  0  0  0  0  0  0  0  0
   21.1259   12.5059   16.1319 H   0  0  0  0  0  0  0  0  0  0  0  0
   20.6905   14.1903   12.9908 H   0  0  0  0  0  0  0  0  0  0  0  0
   19.8089   15.5810   13.7345 H   0  0  0  0  0  0  0  0  0  0  0  0
   22.1380   16.1540   13.0504 H   0  0  0  0  0  0  0  0  0  0  0  0
   21.8333   16.3341   14.8311 H   0  0  0  0  0  0  0  0  0  0  0  0
   21.8572   15.1982    5.3455 H   0  0  0  0  0  0  0  0  0  0  0  0
  1  2  1  0
  2  3  1  0
  3  4  2  0
  4  5  1  0
  5  6  1  0
  6  7  2  0
  6  8  2  0
  6  9  1  0
  9 10  2  0
 10 11  1  0
 11 12  2  0
 12 13  1  0
 13 14  2  0
 13 15  1  0
 15 16  1  0
 16 17  1  0
 17 18  1  0
 18 19  1  0
 19 20  1  0
 20 21  2  0
 20 22  1  0
 22 23  1  0
 23 24  2  0
 16 25  1  0
 25 26  1  0
 26 27  1  0
 27 28  1  0
 28 29  1  0
 29 30  1  0
 30 31  1  0
 26 32  1  0
  5 33  1  0
 33 34  2  0
 34  3  1  0
 14  9  1  0
 23 17  1  0
 31 26  1  0
 32 12  1  0
  1 35  1  0
  1 36  1  0
  1 37  1  0
  2 38  1  0
  2 39  1  0
  4 40  1  0
 10 41  1  0
 11 42  1  0
 14 43  1  0
 15 44  1  0
 15 45  1  0
 17 46  1  1
 18 47  1  0
 18 48  1  0
 19 49  1  0
 19 50  1  0
 22 51  1  0
 25 52  1  0
 25 53  1  0
 27 54  1  0
 27 55  1  0
 28 56  1  0
 28 57  1  0
 30 58  1  0
 30 59  1  0
 31 60  1  0
 31 61  1  0
 33 62  1  0
M  END
>  <meeko>  (1246) 
{"is_sidechain": [true], "free_energy": -10.16, "intermolecular_energy": 0.07, "internal_energy": -10.23, "cluster_size": 13, "cluster_id": 1, "rank_in_cluster": 1}

>  <_RMSD_MCS_to_ref>  (1246) 
1.0721998155402022

$$$$
ligand
     RDKit          3D

 46 49  0  0  0  0  0  0  0  0999 V2000
   18.9090   19.1540    7.5370 C   0  0  0  0  0  0  0  0  0  0  0  0
   18.7730   17.6460    7.6780 C   0  0  0  0  0  0  0  0  0  0  0  0
   20.0270   16.9320    7.3130 C   0  0  0  0  0  0  0  0  0  0  0  0
   21.0270   16.4540    8.1370 C   0  0  0  0  0  0  0  0  0  0  0  0
   21.9100   15.8600    7.2810 N   0  0  0  0  0  0  0  0  0  0  0  0
   23.4490   15.3060    7.6850 S   0  0  0  0  0  6  0  0  0  0  0  0
   24.2790   15.6450    6.5440 O   0  0  0  0  0  0  0  0  0  0  0  0
   23.2540   13.9300    8.1000 O   0  0  0  0  0  0  0  0  0  0  0  0
   23.9260   16.1870    8.9700 O   0  0  0  0  0  0  0  0  0  0  0  0
   23.4500   15.9480   10.2310 C   0  0  0  0  0  0  0  0  0  0  0  0
   22.2960   15.2480   10.5600 C   0  0  0  0  0  0  0  0  0  0  0  0
   21.8790   15.0450   11.8330 N   0  0  0  0  0  0  0  0  0  0  0  0
   22.6420   15.5650   12.8240 C   0  0  0  0  0  0  0  0  0  0  0  0
   23.8100   16.2790   12.6000 C   0  0  0  0  0  0  0  0  0  0  0  0
   24.6230   16.8230   13.7040 C   0  0  0  0  0  0  0  0  0  0  0  0
   25.8820   16.5520   13.8510 N   0  0  0  0  0  0  0  0  0  0  0  0
   26.3310   17.2420   14.9970 O   0  0  0  0  0  0  0  0  0  0  0  0
   25.3460   18.2170   15.3540 C   0  0  1  0  0  0  0  0  0  0  0  0
   25.2880   18.3380   16.8760 C   0  0  0  0  0  0  0  0  0  0  0  0
   26.6330   18.8010   17.4230 C   0  0  0  0  0  0  0  0  0  0  0  0
   27.0920   20.0750   16.7550 C   0  0  0  0  0  0  0  0  0  0  0  0
   27.6980   20.9530   17.3600 O   0  0  0  0  0  0  0  0  0  0  0  0
   26.7980   20.2100   15.4220 N   0  0  0  0  0  0  0  0  0  0  0  0
   25.7640   19.5750   14.7760 C   0  0  0  0  0  0  0  0  0  0  0  0
   25.2070   20.1090   13.8190 O   0  0  0  0  0  0  0  0  0  0  0  0
   24.0480   17.7020   14.7620 C   0  0  0  0  0  0  0  0  0  0  0  0
   24.2150   16.4680   11.2750 C   0  0  0  0  0  0  0  0  0  0  0  0
   21.4910   16.0540    6.0050 C   0  0  0  0  0  0  0  0  0  0  0  0
   20.3340   16.6820    5.9900 N   0  0  0  0  0  0  0  0  0  0  0  0
   18.9504   19.6134    8.5356 H   0  0  0  0  0  0  0  0  0  0  0  0
   19.8320   19.3891    6.9867 H   0  0  0  0  0  0  0  0  0  0  0  0
   18.0430   19.5504    6.9867 H   0  0  0  0  0  0  0  0  0  0  0  0
   18.5215   17.4091    8.7223 H   0  0  0  0  0  0  0  0  0  0  0  0
   17.9820   17.3124    6.9903 H   0  0  0  0  0  0  0  0  0  0  0  0
   21.0964   16.5335    9.2319 H   0  0  0  0  0  0  0  0  0  0  0  0
   21.6872   14.8358    9.7418 H   0  0  0  0  0  0  0  0  0  0  0  0
   22.3175   15.4127   13.8639 H   0  0  0  0  0  0  0  0  0  0  0  0
   24.5133   19.0684   17.1524 H   0  0  0  0  0  0  0  0  0  0  0  0
   25.0484   17.3533   17.3037 H   0  0  0  0  0  0  0  0  0  0  0  0
   26.5373   18.9786   18.5043 H   0  0  0  0  0  0  0  0  0  0  0  0
   27.3771   18.0168   17.2198 H   0  0  0  0  0  0  0  0  0  0  0  0
   27.3971   20.8341   14.8630 H   0  0  0  0  0  0  0  0  0  0  0  0
   23.4542   17.1354   15.4944 H   0  0  0  0  0  0  0  0  0  0  0  0
   23.3428   18.4710   14.4138 H   0  0  0  0  0  0  0  0  0  0  0  0
   25.1369   17.0268   11.0560 H   0  0  0  0  0  0  0  0  0  0  0  0
   22.0411   15.7317    5.1086 H   0  0  0  0  0  0  0  0  0  0  0  0
  1  2  1  0
  2  3  1  0
  3  4  2  0
  4  5  1  0
  5  6  1  0
  6  7  2  0
  6  8  2  0
  6  9  1  0
  9 10  1  0
 10 11  2  0
 11 12  1  0
 12 13  2  0
 13 14  1  0
 14 15  1  0
 15 16  2  0
 16 17  1  0
 18 17  1  1
 18 19  1  0
 19 20  1  0
 20 21  1  0
 21 22  2  0
 21 23  1  0
 23 24  1  0
 24 25  2  0
 18 26  1  0
 14 27  2  0
  5 28  1  0
 28 29  2  0
 29  3  1  0
 27 10  1  0
 26 15  1  0
 24 18  1  0
  1 30  1  0
  1 31  1  0
  1 32  1  0
  2 33  1  0
  2 34  1  0
  4 35  1  0
 11 36  1  0
 13 37  1  0
 19 38  1  0
 19 39  1  0
 20 40  1  0
 20 41  1  0
 23 42  1  0
 26 43  1  0
 26 44  1  0
 27 45  1  0
 28 46  1  0
M  END
>  <meeko>  (1247) 
{"is_sidechain": [true], "free_energy": -10.16, "intermolecular_energy": 0.0, "internal_energy": -10.16, "cluster_size": 20, "cluster_id": 1, "rank_in_cluster": 1}

>  <_RMSD_MCS_to_ref>  (1247) 
0.8538815052453116

$$$$
ligand
     RDKit          3D

 50 53  0  0  0  0  0  0  0  0999 V2000
   18.9090   19.1540    7.5370 C   0  0  0  0  0  0  0  0  0  0  0  0
   18.7730   17.6460    7.6780 C   0  0  0  0  0  0  0  0  0  0  0  0
   20.0170   16.9310    7.2860 C   0  0  0  0  0  0  0  0  0  0  0  0
   21.1760   16.7390    8.0130 C   0  0  0  0  0  0  0  0  0  0  0  0
   21.9920   16.0460    7.1660 N   0  0  0  0  0  0  0  0  0  0  0  0
   23.4640   15.3410    7.5700 S   0  0  0  0  0  6  0  0  0  0  0  0
   23.3290   13.9360    7.2390 O   0  0  0  0  0  0  0  0  0  0  0  0
   24.4870   16.1850    6.9840 O   0  0  0  0  0  0  0  0  0  0  0  0
   23.5390   15.5050    9.3320 C   0  0  0  0  0  0  0  0  0  0  0  0
   24.3880   16.4530    9.8980 C   0  0  0  0  0  0  0  0  0  0  0  0
   24.4490   16.5770   11.2890 C   0  0  0  0  0  0  0  0  0  0  0  0
   23.6860   15.7420   12.1460 C   0  0  0  0  0  0  0  0  0  0  0  0
   23.7010   15.7980   13.5620 C   0  0  0  0  0  0  0  0  0  0  0  0
   24.5750   16.6830   14.3560 C   0  0  0  0  0  0  0  0  0  0  0  0
   25.7640   16.4220   14.4850 O   0  0  0  0  0  0  0  0  0  0  0  0
   23.9850   17.8110   14.8740 N   0  0  0  0  0  0  0  0  0  0  0  0
   24.7120   18.7260   15.7390 C   0  0  1  0  0  0  0  0  0  0  0  0
   25.7260   17.9990   16.6150 C   0  0  0  0  0  0  0  0  0  0  0  0
   26.4750   19.0100   17.4690 C   0  0  0  0  0  0  0  0  0  0  0  0
   27.1250   20.0750   16.6170 C   0  0  0  0  0  0  0  0  0  0  0  0
   28.1930   20.5970   16.9160 O   0  0  0  0  0  0  0  0  0  0  0  0
   26.4440   20.4600   15.4890 N   0  0  0  0  0  0  0  0  0  0  0  0
   25.4420   19.7540   14.8700 C   0  0  0  0  0  0  0  0  0  0  0  0
   25.1550   19.9550   13.6900 O   0  0  0  0  0  0  0  0  0  0  0  0
   22.8480   14.9730   14.2860 C   0  0  0  0  0  0  0  0  0  0  0  0
   22.0230   14.0640   13.7220 N   0  0  0  0  0  0  0  0  0  0  0  0
   22.0370   13.9930   12.3740 C   0  0  0  0  0  0  0  0  0  0  0  0
   22.8260   14.7940   11.5420 C   0  0  0  0  0  0  0  0  0  0  0  0
   22.7650   14.6710   10.1420 C   0  0  0  0  0  0  0  0  0  0  0  0
   21.3260   15.7960    6.0100 C   0  0  0  0  0  0  0  0  0  0  0  0
   20.1230   16.3300    6.0460 N   0  0  0  0  0  0  0  0  0  0  0  0
   18.9504   19.6134    8.5356 H   0  0  0  0  0  0  0  0  0  0  0  0
   19.8320   19.3891    6.9867 H   0  0  0  0  0  0  0  0  0  0  0  0
   18.0430   19.5504    6.9867 H   0  0  0  0  0  0  0  0  0  0  0  0
   18.5428   17.4075    8.7269 H   0  0  0  0  0  0  0  0  0  0  0  0
   17.9672   17.3151    7.0063 H   0  0  0  0  0  0  0  0  0  0  0  0
   21.3920   17.0691    9.0398 H   0  0  0  0  0  0  0  0  0  0  0  0
   25.0052   17.0986    9.2559 H   0  0  0  0  0  0  0  0  0  0  0  0
   25.1052   17.3414   11.7306 H   0  0  0  0  0  0  0  0  0  0  0  0
   23.0018   18.0135   14.6433 H   0  0  0  0  0  0  0  0  0  0  0  0
   23.9863   19.2177   16.4036 H   0  0  0  0  0  0  0  0  0  0  0  0
   25.2019   17.2849   17.2672 H   0  0  0  0  0  0  0  0  0  0  0  0
   26.4399   17.4573   15.9772 H   0  0  0  0  0  0  0  0  0  0  0  0
   25.7669   19.4882   18.1617 H   0  0  0  0  0  0  0  0  0  0  0  0
   27.2637   18.4796   18.0228 H   0  0  0  0  0  0  0  0  0  0  0  0
   26.7091   21.3619   15.0680 H   0  0  0  0  0  0  0  0  0  0  0  0
   22.8446   15.0657   15.3821 H   0  0  0  0  0  0  0  0  0  0  0  0
   21.3804   13.2516   11.8953 H   0  0  0  0  0  0  0  0  0  0  0  0
   22.1071   13.9173    9.6848 H   0  0  0  0  0  0  0  0  0  0  0  0
   21.7342   15.2269    5.1618 H   0  0  0  0  0  0  0  0  0  0  0  0
  1  2  1  0
  2  3  1  0
  3  4  2  0
  4  5  1  0
  5  6  1  0
  6  7  2  0
  6  8  2  0
  6  9  1  0
  9 10  2  0
 10 11  1  0
 11 12  2  0
 12 13  1  0
 13 14  1  0
 14 15  2  0
 14 16  1  0
 16 17  1  0
 17 18  1  0
 18 19  1  0
 19 20  1  0
 20 21  2  0
 20 22  1  0
 22 23  1  0
 23 24  2  0
 13 25  2  0
 25 26  1  0
 26 27  2  0
 27 28  1  0
 28 29  2  0
  5 30  1  0
 30 31  2  0
 31  3  1  0
 29  9  1  0
 28 12  1  0
 23 17  1  0
  1 32  1  0
  1 33  1  0
  1 34  1  0
  2 35  1  0
  2 36  1  0
  4 37  1  0
 10 38  1  0
 11 39  1  0
 16 40  1  0
 17 41  1  1
 18 42  1  0
 18 43  1  0
 19 44  1  0
 19 45  1  0
 22 46  1  0
 25 47  1  0
 27 48  1  0
 29 49  1  0
 30 50  1  0
M  END
>  <meeko>  (1248) 
{"is_sidechain": [true], "free_energy": -10.16, "intermolecular_energy": 0.0, "internal_energy": -10.16, "cluster_size": 18, "cluster_id": 1, "rank_in_cluster": 1}

>  <_RMSD_MCS_to_ref>  (1248) 
0.894117193412338

$$$$
ligand
     RDKit          3D

 44 46  0  0  0  0  0  0  0  0999 V2000
   18.9090   19.1540    7.5370 C   0  0  0  0  0  0  0  0  0  0  0  0
   18.7730   17.6460    7.6780 C   0  0  0  0  0  0  0  0  0  0  0  0
   20.0360   17.0090    8.1400 C   0  0  0  0  0  0  0  0  0  0  0  0
   20.2360   16.1650    9.2150 C   0  0  0  0  0  0  0  0  0  0  0  0
   21.5720   15.8760    9.1730 N   0  0  0  0  0  0  0  0  0  0  0  0
   22.3340   14.6350   10.0220 S   0  0  0  0  0  6  0  0  0  0  0  0
   23.7570   14.8520    9.8370 O   0  0  0  0  0  0  0  0  0  0  0  0
   21.6710   13.4110    9.6130 O   0  0  0  0  0  0  0  0  0  0  0  0
   21.9260   14.9590   11.7180 C   0  0  0  0  0  0  0  0  0  0  0  0
   20.9870   14.1880   12.3820 C   0  0  0  0  0  0  0  0  0  0  0  0
   20.7570   14.4790   13.7260 C   0  0  0  0  0  0  0  0  0  0  0  0
   21.4730   15.5070   14.3450 C   0  0  0  0  0  0  0  0  0  0  0  0
   22.3940   16.2180   13.5870 C   0  0  0  0  0  0  0  0  0  0  0  0
   23.2270   17.3050   14.1960 C   0  0  0  0  0  0  0  0  0  0  0  0
   22.8550   17.9250   15.1840 O   0  0  0  0  0  0  0  0  0  0  0  0
   24.4340   17.5130   13.5530 N   0  0  0  0  0  0  0  0  0  0  0  0
   25.5240   18.2150   14.2030 C   0  0  2  0  0  0  0  0  0  0  0  0
   25.5750   17.8740   15.6860 C   0  0  0  0  0  0  0  0  0  0  0  0
   26.7100   18.6380   16.3480 C   0  0  0  0  0  0  0  0  0  0  0  0
   26.5770   20.1250   16.1130 C   0  0  0  0  0  0  0  0  0  0  0  0
   26.9040   20.9570   16.9530 O   0  0  0  0  0  0  0  0  0  0  0  0
   26.0950   20.5120   14.8890 N   0  0  0  0  0  0  0  0  0  0  0  0
   25.3270   19.7340   14.0540 C   0  0  0  0  0  0  0  0  0  0  0  0
   24.5480   20.2560   13.2590 O   0  0  0  0  0  0  0  0  0  0  0  0
   22.6330   15.9710   12.2730 N   0  0  0  0  0  0  0  0  0  0  0  0
   22.1270   16.5100    8.1050 C   0  0  0  0  0  0  0  0  0  0  0  0
   21.2170   17.2010    7.4490 N   0  0  0  0  0  0  0  0  0  0  0  0
   18.9504   19.6134    8.5356 H   0  0  0  0  0  0  0  0  0  0  0  0
   19.8320   19.3891    6.9867 H   0  0  0  0  0  0  0  0  0  0  0  0
   18.0430   19.5504    6.9867 H   0  0  0  0  0  0  0  0  0  0  0  0
   17.9790   17.4285    8.4075 H   0  0  0  0  0  0  0  0  0  0  0  0
   18.5297   17.2345    6.6873 H   0  0  0  0  0  0  0  0  0  0  0  0
   19.4903   15.8068    9.9400 H   0  0  0  0  0  0  0  0  0  0  0  0
   20.4448   13.3792   11.8703 H   0  0  0  0  0  0  0  0  0  0  0  0
   20.0148   13.9016   14.2968 H   0  0  0  0  0  0  0  0  0  0  0  0
   21.3111   15.7470   15.4062 H   0  0  0  0  0  0  0  0  0  0  0  0
   24.5612   17.1622   12.5930 H   0  0  0  0  0  0  0  0  0  0  0  0
   26.4652   17.9046   13.7257 H   0  0  0  0  0  0  0  0  0  0  0  0
   24.6217   18.1532   16.1585 H   0  0  0  0  0  0  0  0  0  0  0  0
   25.7440   16.7937   15.8060 H   0  0  0  0  0  0  0  0  0  0  0  0
   26.6910   18.4425   17.4303 H   0  0  0  0  0  0  0  0  0  0  0  0
   27.6604   18.2994   15.9098 H   0  0  0  0  0  0  0  0  0  0  0  0
   26.3270   21.4630   14.5686 H   0  0  0  0  0  0  0  0  0  0  0  0
   23.1898   16.4535    7.8272 H   0  0  0  0  0  0  0  0  0  0  0  0
  1  2  1  0
  2  3  1  0
  3  4  2  0
  4  5  1  0
  5  6  1  0
  6  7  2  0
  6  8  2  0
  6  9  1  0
  9 10  2  0
 10 11  1  0
 11 12  2  0
 12 13  1  0
 13 14  1  0
 14 15  2  0
 14 16  1  0
 16 17  1  0
 17 18  1  0
 18 19  1  0
 19 20  1  0
 20 21  2  0
 20 22  1  0
 22 23  1  0
 23 24  2  0
 13 25  2  0
  5 26  1  0
 26 27  2  0
 27  3  1  0
 25  9  1  0
 23 17  1  0
  1 28  1  0
  1 29  1  0
  1 30  1  0
  2 31  1  0
  2 32  1  0
  4 33  1  0
 10 34  1  0
 11 35  1  0
 12 36  1  0
 16 37  1  0
 17 38  1  6
 18 39  1  0
 18 40  1  0
 19 41  1  0
 19 42  1  0
 22 43  1  0
 26 44  1  0
M  END
>  <meeko>  (1249) 
{"is_sidechain": [true], "free_energy": -10.16, "intermolecular_energy": 0.0, "internal_energy": -10.16, "cluster_size": 20, "cluster_id": 1, "rank_in_cluster": 1}

>  <_RMSD_MCS_to_ref>  (1249) 
0.49882918474720017

$$$$
ligand
     RDKit          3D

 50 53  0  0  0  0  0  0  0  0999 V2000
   18.9090   19.1540    7.5370 C   0  0  0  0  0  0  0  0  0  0  0  0
   18.7730   17.6460    7.6780 C   0  0  0  0  0  0  0  0  0  0  0  0
   19.9350   16.9210    7.0970 C   0  0  0  0  0  0  0  0  0  0  0  0
   21.2830   17.1950    7.2230 C   0  0  0  0  0  0  0  0  0  0  0  0
   21.8920   16.2350    6.4670 N   0  0  0  0  0  0  0  0  0  0  0  0
   23.5420   15.9230    6.4160 S   0  0  0  0  0  6  0  0  0  0  0  0
   24.1980   17.2110    6.5200 O   0  0  0  0  0  0  0  0  0  0  0  0
   23.7410   15.0330    5.2900 O   0  0  0  0  0  0  0  0  0  0  0  0
   23.8420   15.0230    7.9150 C   0  0  0  0  0  0  0  0  0  0  0  0
   23.8700   13.6240    7.8930 C   0  0  0  0  0  0  0  0  0  0  0  0
   24.1180   12.9230    9.0750 C   0  0  0  0  0  0  0  0  0  0  0  0
   24.3420   13.6260   10.2640 C   0  0  0  0  0  0  0  0  0  0  0  0
   24.6040   12.9110   11.5230 C   0  0  0  0  0  0  0  0  0  0  0  0
   24.6340   11.6890   11.5820 O   0  0  0  0  0  0  0  0  0  0  0  0
   24.8310   13.7400   12.7150 C   0  0  0  0  0  0  0  0  0  0  0  0
   24.7890   15.0730   12.5980 C   0  0  0  0  0  0  0  0  0  0  0  0
   25.0190   15.8860   13.8340 C   0  0  0  0  0  0  0  0  0  0  0  0
   25.0140   15.4050   14.9600 O   0  0  0  0  0  0  0  0  0  0  0  0
   25.2180   17.2200   13.5840 N   0  0  0  0  0  0  0  0  0  0  0  0
   25.2970   18.2030   14.6530 C   0  0  1  0  0  0  0  0  0  0  0  0
   26.2030   17.7480   15.7920 C   0  0  0  0  0  0  0  0  0  0  0  0
   26.2700   18.8380   16.8510 C   0  0  0  0  0  0  0  0  0  0  0  0
   26.7250   20.1510   16.2590 C   0  0  0  0  0  0  0  0  0  0  0  0
   27.4140   20.9530   16.8830 O   0  0  0  0  0  0  0  0  0  0  0  0
   26.3050   20.4280   14.9820 N   0  0  0  0  0  0  0  0  0  0  0  0
   25.8480   19.5090   14.0710 C   0  0  0  0  0  0  0  0  0  0  0  0
   25.8780   19.7390   12.8620 O   0  0  0  0  0  0  0  0  0  0  0  0
   24.5460   15.7540   11.4140 O   0  0  0  0  0  0  0  0  0  0  0  0
   24.3260   15.0200   10.2770 C   0  0  0  0  0  0  0  0  0  0  0  0
   24.0800   15.7270    9.1010 C   0  0  0  0  0  0  0  0  0  0  0  0
   20.9490   15.4010    5.9610 C   0  0  0  0  0  0  0  0  0  0  0  0
   19.7440   15.7950    6.3190 N   0  0  0  0  0  0  0  0  0  0  0  0
   18.9504   19.6134    8.5356 H   0  0  0  0  0  0  0  0  0  0  0  0
   19.8320   19.3891    6.9867 H   0  0  0  0  0  0  0  0  0  0  0  0
   18.0430   19.5504    6.9867 H   0  0  0  0  0  0  0  0  0  0  0  0
   18.6970   17.3954    8.7464 H   0  0  0  0  0  0  0  0  0  0  0  0
   17.8718   17.3351    7.1292 H   0  0  0  0  0  0  0  0  0  0  0  0
   21.7574   18.0022    7.8005 H   0  0  0  0  0  0  0  0  0  0  0  0
   23.6980   13.0808    6.9520 H   0  0  0  0  0  0  0  0  0  0  0  0
   24.1372   11.8232    9.0714 H   0  0  0  0  0  0  0  0  0  0  0  0
   25.0326   13.2718   13.6898 H   0  0  0  0  0  0  0  0  0  0  0  0
   25.3145   17.5355   12.6083 H   0  0  0  0  0  0  0  0  0  0  0  0
   24.2868   18.3400   15.0662 H   0  0  0  0  0  0  0  0  0  0  0  0
   25.7978   16.8276   16.2379 H   0  0  0  0  0  0  0  0  0  0  0  0
   27.2128   17.5520   15.4022 H   0  0  0  0  0  0  0  0  0  0  0  0
   25.2712   18.9708   17.2922 H   0  0  0  0  0  0  0  0  0  0  0  0
   26.9968   18.5326   17.6181 H   0  0  0  0  0  0  0  0  0  0  0  0
   26.3355   21.4125   14.6809 H   0  0  0  0  0  0  0  0  0  0  0  0
   24.0730   16.8270    9.1051 H   0  0  0  0  0  0  0  0  0  0  0  0
   21.1610   14.5190    5.3388 H   0  0  0  0  0  0  0  0  0  0  0  0
  1  2  1  0
  2  3  1  0
  3  4  2  0
  4  5  1  0
  5  6  1  0
  6  7  2  0
  6  8  2  0
  6  9  1  0
  9 10  2  0
 10 11  1  0
 11 12  2  0
 12 13  1  0
 13 14  2  0
 13 15  1  0
 15 16  2  0
 16 17  1  0
 17 18  2  0
 17 19  1  0
 19 20  1  0
 20 21  1  0
 21 22  1  0
 22 23  1  0
 23 24  2  0
 23 25  1  0
 25 26  1  0
 26 27  2  0
 16 28  1  0
 28 29  1  0
 29 30  2  0
  5 31  1  0
 31 32  2  0
 32  3  1  0
 30  9  1  0
 29 12  1  0
 26 20  1  0
  1 33  1  0
  1 34  1  0
  1 35  1  0
  2 36  1  0
  2 37  1  0
  4 38  1  0
 10 39  1  0
 11 40  1  0
 15 41  1  0
 19 42  1  0
 20 43  1  1
 21 44  1  0
 21 45  1  0
 22 46  1  0
 22 47  1  0
 25 48  1  0
 30 49  1  0
 31 50  1  0
M  END
>  <meeko>  (1250) 
{"is_sidechain": [true], "free_energy": -10.16, "intermolecular_energy": 0.0, "internal_energy": -10.16, "cluster_size": 17, "cluster_id": 1, "rank_in_cluster": 1}

>  <_RMSD_MCS_to_ref>  (1250) 
0.6523687607480907

$$$$
ligand
     RDKit          3D

 45 48  0  0  0  0  0  0  0  0999 V2000
   18.9090   19.1540    7.5370 C   0  0  0  0  0  0  0  0  0  0  0  0
   18.7730   17.6460    7.6780 C   0  0  0  0  0  0  0  0  0  0  0  0
   20.0880   16.9540    7.5980 C   0  0  0  0  0  0  0  0  0  0  0  0
   20.8240   16.3660    8.6080 C   0  0  0  0  0  0  0  0  0  0  0  0
   21.9270   15.8710    7.9750 N   0  0  0  0  0  0  0  0  0  0  0  0
   23.2890   15.2380    8.7170 S   0  0  0  0  0  6  0  0  0  0  0  0
   24.4050   16.0570    8.2880 O   0  0  0  0  0  0  0  0  0  0  0  0
   23.2350   13.8030    8.5360 O   0  0  0  0  0  0  0  0  0  0  0  0
   23.1870   15.4720   10.4190 C   0  0  0  0  0  0  0  0  0  0  0  0
   23.9030   16.4480   11.1630 C   0  0  0  0  0  0  0  0  0  0  0  0
   23.5380   16.2830   12.4840 C   0  0  0  0  0  0  0  0  0  0  0  0
   23.9030   16.9430   13.6990 C   0  0  0  0  0  0  0  0  0  0  0  0
   24.7890   17.9920   13.7160 N   0  0  0  0  0  0  0  0  0  0  0  0
   25.0620   18.7760   14.9190 C   0  0  1  0  0  0  0  0  0  0  0  0
   26.0120   18.0180   15.8410 C   0  0  0  0  0  0  0  0  0  0  0  0
   26.3340   18.8730   17.0570 C   0  0  0  0  0  0  0  0  0  0  0  0
   26.9160   20.2060   16.6500 C   0  0  0  0  0  0  0  0  0  0  0  0
   27.7350   20.8050   17.3390 O   0  0  0  0  0  0  0  0  0  0  0  0
   26.4500   20.7460   15.4770 N   0  0  0  0  0  0  0  0  0  0  0  0
   25.7160   20.1020   14.5110 C   0  0  0  0  0  0  0  0  0  0  0  0
   25.5920   20.5800   13.3830 O   0  0  0  0  0  0  0  0  0  0  0  0
   23.3600   16.5140   14.8000 N   0  0  0  0  0  0  0  0  0  0  0  0
   22.4780   15.4620   14.7510 C   0  0  0  0  0  0  0  0  0  0  0  0
   22.0920   14.8120   13.6970 N   0  0  0  0  0  0  0  0  0  0  0  0
   22.6510   15.2520   12.5630 N   0  0  0  0  0  0  0  0  0  0  0  0
   22.4220   14.7460   11.3110 C   0  0  0  0  0  0  0  0  0  0  0  0
   21.8720   16.2030    6.6590 C   0  0  0  0  0  0  0  0  0  0  0  0
   20.7560   16.8490    6.3930 N   0  0  0  0  0  0  0  0  0  0  0  0
   18.9504   19.6134    8.5356 H   0  0  0  0  0  0  0  0  0  0  0  0
   19.8320   19.3891    6.9867 H   0  0  0  0  0  0  0  0  0  0  0  0
   18.0430   19.5504    6.9867 H   0  0  0  0  0  0  0  0  0  0  0  0
   18.3128   17.4211    8.6515 H   0  0  0  0  0  0  0  0  0  0  0  0
   18.1492   17.2837    6.8476 H   0  0  0  0  0  0  0  0  0  0  0  0
   20.5774   16.3096    9.6785 H   0  0  0  0  0  0  0  0  0  0  0  0
   24.6101   17.1902   10.7642 H   0  0  0  0  0  0  0  0  0  0  0  0
   25.2815   18.2364   12.8450 H   0  0  0  0  0  0  0  0  0  0  0  0
   24.1167   18.9610   15.4503 H   0  0  0  0  0  0  0  0  0  0  0  0
   25.5358   17.0818   16.1676 H   0  0  0  0  0  0  0  0  0  0  0  0
   26.9415   17.7890   15.2992 H   0  0  0  0  0  0  0  0  0  0  0  0
   25.4105   19.0446   17.6294 H   0  0  0  0  0  0  0  0  0  0  0  0
   27.0772   18.3412   17.6692 H   0  0  0  0  0  0  0  0  0  0  0  0
   26.6739   21.7363   15.3034 H   0  0  0  0  0  0  0  0  0  0  0  0
   22.0523   15.1349   15.7111 H   0  0  0  0  0  0  0  0  0  0  0  0
   21.7500   13.9118   11.0609 H   0  0  0  0  0  0  0  0  0  0  0  0
   22.6507   15.9655    5.9192 H   0  0  0  0  0  0  0  0  0  0  0  0
  1  2  1  0
  2  3  1  0
  3  4  2  0
  4  5  1  0
  5  6  1  0
  6  7  2  0
  6  8  2  0
  6  9  1  0
  9 10  1  0
 10 11  2  0
 11 12  1  0
 12 13  1  0
 13 14  1  0
 14 15  1  0
 15 16  1  0
 16 17  1  0
 17 18  2  0
 17 19  1  0
 19 20  1  0
 20 21  2  0
 12 22  2  0
 22 23  1  0
 23 24  2  0
 24 25  1  0
 25 26  1  0
  5 27  1  0
 27 28  2  0
 28  3  1  0
 26  9  2  0
 25 11  1  0
 20 14  1  0
  1 29  1  0
  1 30  1  0
  1 31  1  0
  2 32  1  0
  2 33  1  0
  4 34  1  0
 10 35  1  0
 13 36  1  0
 14 37  1  1
 15 38  1  0
 15 39  1  0
 16 40  1  0
 16 41  1  0
 19 42  1  0
 23 43  1  0
 26 44  1  0
 27 45  1  0
M  END
>  <meeko>  (1251) 
{"is_sidechain": [true], "free_energy": -10.16, "intermolecular_energy": 0.0, "internal_energy": -10.16, "cluster_size": 20, "cluster_id": 1, "rank_in_cluster": 1}

>  <_RMSD_MCS_to_ref>  (1251) 
0.5850099714249888

$$$$
ligand
     RDKit          3D

 52 56  0  0  0  0  0  0  0  0999 V2000
   18.9090   19.1540    7.5370 C   0  0  0  0  0  0  0  0  0  0  0  0
   18.7730   17.6460    7.6780 C   0  0  0  0  0  0  0  0  0  0  0  0
   20.0410   16.9350    7.3590 C   0  0  0  0  0  0  0  0  0  0  0  0
   20.6810   15.9390    8.0680 C   0  0  0  0  0  0  0  0  0  0  0  0
   21.7750   15.6360    7.3100 N   0  0  0  0  0  0  0  0  0  0  0  0
   23.0710   14.6900    7.8040 S   0  0  0  0  0  6  0  0  0  0  0  0
   22.7000   14.1700    9.1020 O   0  0  0  0  0  0  0  0  0  0  0  0
   23.4120   13.8550    6.6730 O   0  0  0  0  0  0  0  0  0  0  0  0
   24.4550   15.7060    8.0670 C   0  0  0  0  0  0  0  0  0  0  0  0
   25.0020   16.6900    7.2660 C   0  0  0  0  0  0  0  0  0  0  0  0
   25.9640   17.3620    7.9380 N   0  0  0  0  0  0  0  0  0  0  0  0
   26.0480   16.8320    9.1450 N   0  0  0  0  0  0  0  0  0  0  0  0
   25.2140   15.7580    9.2260 N   0  0  0  0  0  0  0  0  0  0  0  0
   25.2760   14.9290   10.3840 C   0  0  0  0  0  0  0  0  0  0  0  0
   25.2010   13.5280   10.3040 C   0  0  0  0  0  0  0  0  0  0  0  0
   25.2460   12.7200   11.4590 C   0  0  0  0  0  0  0  0  0  0  0  0
   25.3780   13.2880   12.7210 C   0  0  0  0  0  0  0  0  0  0  0  0
   25.4850   14.6630   12.7830 C   0  0  0  0  0  0  0  0  0  0  0  0
   25.4530   15.4890   11.6540 C   0  0  0  0  0  0  0  0  0  0  0  0
   25.5740   16.9170   12.1010 C   0  0  0  0  0  0  0  0  0  0  0  0
   25.7280   16.8050   13.5450 N   0  0  0  0  0  0  0  0  0  0  0  0
   25.6210   17.9400   14.4530 C   0  0  1  0  0  0  0  0  0  0  0  0
   26.1620   17.6280   15.8450 C   0  0  0  0  0  0  0  0  0  0  0  0
   25.9350   18.8260   16.7550 C   0  0  0  0  0  0  0  0  0  0  0  0
   26.5530   20.0770   16.1750 C   0  0  0  0  0  0  0  0  0  0  0  0
   27.0550   20.9480   16.8800 O   0  0  0  0  0  0  0  0  0  0  0  0
   26.5070   20.2100   14.8120 N   0  0  0  0  0  0  0  0  0  0  0  0
   26.3360   19.1870   13.9060 C   0  0  0  0  0  0  0  0  0  0  0  0
   26.7460   19.3050   12.7530 O   0  0  0  0  0  0  0  0  0  0  0  0
   25.6150   15.4990   13.9810 C   0  0  0  0  0  0  0  0  0  0  0  0
   25.6140   15.0870   15.1260 O   0  0  0  0  0  0  0  0  0  0  0  0
   21.8100   16.4600    6.2300 C   0  0  0  0  0  0  0  0  0  0  0  0
   20.7640   17.2580    6.2280 N   0  0  0  0  0  0  0  0  0  0  0  0
   18.9504   19.6134    8.5356 H   0  0  0  0  0  0  0  0  0  0  0  0
   19.8320   19.3891    6.9867 H   0  0  0  0  0  0  0  0  0  0  0  0
   18.0430   19.5504    6.9867 H   0  0  0  0  0  0  0  0  0  0  0  0
   18.4862   17.4115    8.7137 H   0  0  0  0  0  0  0  0  0  0  0  0
   18.0074   17.3077    6.9643 H   0  0  0  0  0  0  0  0  0  0  0  0
   20.3784   15.4911    9.0260 H   0  0  0  0  0  0  0  0  0  0  0  0
   24.6982   16.8972    6.2293 H   0  0  0  0  0  0  0  0  0  0  0  0
   25.1050   13.0505    9.3177 H   0  0  0  0  0  0  0  0  0  0  0  0
   25.1758   11.6267   11.3601 H   0  0  0  0  0  0  0  0  0  0  0  0
   25.3964   12.6691   13.6302 H   0  0  0  0  0  0  0  0  0  0  0  0
   26.4527   17.3987   11.6473 H   0  0  0  0  0  0  0  0  0  0  0  0
   24.7123   17.5343   11.8069 H   0  0  0  0  0  0  0  0  0  0  0  0
   24.5438   18.1481   14.5330 H   0  0  0  0  0  0  0  0  0  0  0  0
   25.6383   16.7516   16.2544 H   0  0  0  0  0  0  0  0  0  0  0  0
   27.2390   17.4135   15.7813 H   0  0  0  0  0  0  0  0  0  0  0  0
   24.8533   18.9837   16.8776 H   0  0  0  0  0  0  0  0  0  0  0  0
   26.4093   18.6209   17.7261 H   0  0  0  0  0  0  0  0  0  0  0  0
   26.6096   21.1612   14.4305 H   0  0  0  0  0  0  0  0  0  0  0  0
   22.6010   16.4598    5.4656 H   0  0  0  0  0  0  0  0  0  0  0  0
  1  2  1  0
  2  3  1  0
  3  4  2  0
  4  5  1  0
  5  6  1  0
  6  7  2  0
  6  8  2  0
  6  9  1  0
  9 10  2  0
 10 11  1  0
 11 12  2  0
 12 13  1  0
 13 14  1  0
 14 15  2  0
 15 16  1  0
 16 17  2  0
 17 18  1  0
 18 19  2  0
 19 20  1  0
 20 21  1  0
 21 22  1  0
 22 23  1  0
 23 24  1  0
 24 25  1  0
 25 26  2  0
 25 27  1  0
 27 28  1  0
 28 29  2  0
 21 30  1  0
 30 31  2  0
  5 32  1  0
 32 33  2  0
 33  3  1  0
 13  9  1  0
 19 14  1  0
 28 22  1  0
 30 18  1  0
  1 34  1  0
  1 35  1  0
  1 36  1  0
  2 37  1  0
  2 38  1  0
  4 39  1  0
 10 40  1  0
 15 41  1  0
 16 42  1  0
 17 43  1  0
 20 44  1  0
 20 45  1  0
 22 46  1  1
 23 47  1  0
 23 48  1  0
 24 49  1  0
 24 50  1  0
 27 51  1  0
 32 52  1  0
M  END
>  <meeko>  (1252) 
{"is_sidechain": [true], "free_energy": -10.16, "intermolecular_energy": 0.0, "internal_energy": -10.16, "cluster_size": 8, "cluster_id": 1, "rank_in_cluster": 1}

>  <_RMSD_MCS_to_ref>  (1252) 
1.8196399875278968

$$$$
ligand
     RDKit          3D

 49 53  0  0  0  0  0  0  0  0999 V2000
   18.9090   19.1540    7.5370 C   0  0  0  0  0  0  0  0  0  0  0  0
   18.7730   17.6460    7.6780 C   0  0  0  0  0  0  0  0  0  0  0  0
   20.0710   16.9390    7.4920 C   0  0  0  0  0  0  0  0  0  0  0  0
   21.2940   17.2030    8.0770 C   0  0  0  0  0  0  0  0  0  0  0  0
   22.1370   16.2750    7.5310 N   0  0  0  0  0  0  0  0  0  0  0  0
   23.7350   15.9930    7.9760 S   0  0  0  0  0  6  0  0  0  0  0  0
   24.0100   14.6540    7.4790 O   0  0  0  0  0  0  0  0  0  0  0  0
   24.4800   17.1550    7.5200 O   0  0  0  0  0  0  0  0  0  0  0  0
   23.6830   15.9840    9.7560 C   0  0  0  0  0  0  0  0  0  0  0  0
   24.6430   16.7120   10.3700 N   0  0  0  0  0  0  0  0  0  0  0  0
   24.5540   16.8330   11.7110 C   0  0  0  0  0  0  0  0  0  0  0  0
   25.7200   17.8630   12.5390 S   0  0  0  0  0  0  0  0  0  0  0  0
   24.6370   18.5580   13.8520 C   0  0  1  0  0  0  0  0  0  0  0  0
   24.9540   17.9550   15.2190 C   0  0  0  0  0  0  0  0  0  0  0  0
   26.3320   18.3660   15.7180 C   0  0  0  0  0  0  0  0  0  0  0  0
   26.5500   19.8600   15.6380 C   0  0  0  0  0  0  0  0  0  0  0  0
   27.4190   20.4170   16.3040 O   0  0  0  0  0  0  0  0  0  0  0  0
   25.7630   20.5580   14.7570 N   0  0  0  0  0  0  0  0  0  0  0  0
   24.7850   20.0700   13.9240 C   0  0  0  0  0  0  0  0  0  0  0  0
   24.0860   20.8210   13.2420 O   0  0  0  0  0  0  0  0  0  0  0  0
   23.5230   16.1830   12.3630 C   0  0  0  0  0  0  0  0  0  0  0  0
   23.2270   16.1610   13.6920 O   0  0  0  0  0  0  0  0  0  0  0  0
   22.1140   15.3830   13.8300 C   0  0  0  0  0  0  0  0  0  0  0  0
   21.4800   15.0940   15.0350 C   0  0  0  0  0  0  0  0  0  0  0  0
   20.3450   14.2780   14.9640 C   0  0  0  0  0  0  0  0  0  0  0  0
   19.8820   13.7850   13.7410 C   0  0  0  0  0  0  0  0  0  0  0  0
   20.5410   14.0930   12.5430 C   0  0  0  0  0  0  0  0  0  0  0  0
   21.6850   14.9100   12.5920 C   0  0  0  0  0  0  0  0  0  0  0  0
   22.6010   15.4360   11.6440 C   0  0  0  0  0  0  0  0  0  0  0  0
   22.6450   15.3100   10.2950 N   0  0  0  0  0  0  0  0  0  0  0  0
   21.4310   15.4770    6.6880 C   0  0  0  0  0  0  0  0  0  0  0  0
   20.1620   15.8350    6.6620 N   0  0  0  0  0  0  0  0  0  0  0  0
   18.9504   19.6134    8.5356 H   0  0  0  0  0  0  0  0  0  0  0  0
   19.8320   19.3891    6.9867 H   0  0  0  0  0  0  0  0  0  0  0  0
   18.0430   19.5504    6.9867 H   0  0  0  0  0  0  0  0  0  0  0  0
   18.3876   17.4185    8.6828 H   0  0  0  0  0  0  0  0  0  0  0  0
   18.0853   17.2965    6.8939 H   0  0  0  0  0  0  0  0  0  0  0  0
   21.5351   17.9826    8.8146 H   0  0  0  0  0  0  0  0  0  0  0  0
   23.6006   18.3014   13.5875 H   0  0  0  0  0  0  0  0  0  0  0  0
   24.1982   18.2965   15.9416 H   0  0  0  0  0  0  0  0  0  0  0  0
   24.9420   16.8597   15.1182 H   0  0  0  0  0  0  0  0  0  0  0  0
   26.4377   18.0489   16.7660 H   0  0  0  0  0  0  0  0  0  0  0  0
   27.0809   17.8820   15.0739 H   0  0  0  0  0  0  0  0  0  0  0  0
   25.9255   21.5742   14.7148 H   0  0  0  0  0  0  0  0  0  0  0  0
   21.8516   15.4864   15.9931 H   0  0  0  0  0  0  0  0  0  0  0  0
   19.8073   14.0199   15.8883 H   0  0  0  0  0  0  0  0  0  0  0  0
   18.9871   13.1458   13.7183 H   0  0  0  0  0  0  0  0  0  0  0  0
   20.1708   13.7034   11.5832 H   0  0  0  0  0  0  0  0  0  0  0  0
   21.8589   14.6466    6.1072 H   0  0  0  0  0  0  0  0  0  0  0  0
  1  2  1  0
  2  3  1  0
  3  4  2  0
  4  5  1  0
  5  6  1  0
  6  7  2  0
  6  8  2  0
  6  9  1  0
  9 10  2  0
 10 11  1  0
 11 12  1  0
 12 13  1  0
 13 14  1  0
 14 15  1  0
 15 16  1  0
 16 17  2  0
 16 18  1  0
 18 19  1  0
 19 20  2  0
 11 21  2  0
 21 22  1  0
 22 23  1  0
 23 24  2  0
 24 25  1  0
 25 26  2  0
 26 27  1  0
 27 28  2  0
 28 29  1  0
 29 30  2  0
  5 31  1  0
 31 32  2  0
 32  3  1  0
 30  9  1  0
 19 13  1  0
 29 21  1  0
 28 23  1  0
  1 33  1  0
  1 34  1  0
  1 35  1  0
  2 36  1  0
  2 37  1  0
  4 38  1  0
 13 39  1  6
 14 40  1  0
 14 41  1  0
 15 42  1  0
 15 43  1  0
 18 44  1  0
 24 45  1  0
 25 46  1  0
 26 47  1  0
 27 48  1  0
 31 49  1  0
M  END
>  <meeko>  (1253) 
{"is_sidechain": [true], "free_energy": -10.16, "intermolecular_energy": 0.0, "internal_energy": -10.16, "cluster_size": 7, "cluster_id": 1, "rank_in_cluster": 1}

>  <_RMSD_MCS_to_ref>  (1253) 
0.8861373341644065

$$$$
ligand
     RDKit          3D

 55 59  0  0  0  0  0  0  0  0999 V2000
   18.8250   19.0170    7.5350 C   0  0  0  0  0  0  0  0  0  0  0  0
   18.5200   17.5420    7.7330 C   0  0  0  0  0  0  0  0  0  0  0  0
   19.7480   16.7020    7.6880 C   0  0  0  0  0  0  0  0  0  0  0  0
   20.3110   15.9310    8.6860 C   0  0  0  0  0  0  0  0  0  0  0  0
   21.4100   15.3750    8.0970 N   0  0  0  0  0  0  0  0  0  0  0  0
   22.5160   14.3680    8.8590 S   0  0  0  0  0  6  0  0  0  0  0  0
   21.7380   13.1990    9.2250 O   0  0  0  0  0  0  0  0  0  0  0  0
   23.6770   14.2680    7.9980 O   0  0  0  0  0  0  0  0  0  0  0  0
   22.9820   15.2240   10.3570 C   0  0  0  0  0  0  0  0  0  0  0  0
   21.9630   15.3860   11.3330 C   0  0  0  0  0  0  0  0  0  0  0  0
   22.2160   16.0540   12.5300 C   0  0  0  0  0  0  0  0  0  0  0  0
   23.4930   16.5350   12.7230 C   0  0  0  0  0  0  0  0  0  0  0  0
   24.5130   16.3780   11.7820 C   0  0  0  0  0  0  0  0  0  0  0  0
   24.2910   15.7180   10.5690 C   0  0  0  0  0  0  0  0  0  0  0  0
   25.4090   15.5720    9.6320 C   0  0  0  0  0  0  0  0  0  0  0  0
   26.3440   14.5420    9.7830 C   0  0  0  0  0  0  0  0  0  0  0  0
   27.3670   14.4270    8.8560 C   0  0  0  0  0  0  0  0  0  0  0  0
   27.5030   15.2450    7.7910 N   0  0  0  0  0  0  0  0  0  0  0  0
   26.5920   16.2270    7.6530 C   0  0  0  0  0  0  0  0  0  0  0  0
   25.5380   16.4230    8.5300 C   0  0  0  0  0  0  0  0  0  0  0  0
   25.7680   17.0140   12.3030 C   0  0  0  0  0  0  0  0  0  0  0  0
   25.3770   17.4670   13.6310 N   0  0  0  0  0  0  0  0  0  0  0  0
   26.1680   18.4030   14.4220 C   0  0  1  0  0  0  0  0  0  0  0  0
   25.5300   19.7870   14.5040 C   0  0  0  0  0  0  0  0  0  0  0  0
   26.4530   20.7230   15.2710 C   0  0  0  0  0  0  0  0  0  0  0  0
   26.7830   20.1670   16.6370 C   0  0  0  0  0  0  0  0  0  0  0  0
   26.9270   20.8860   17.6220 O   0  0  0  0  0  0  0  0  0  0  0  0
   26.9350   18.8070   16.7270 N   0  0  0  0  0  0  0  0  0  0  0  0
   26.4170   17.8830   15.8480 C   0  0  0  0  0  0  0  0  0  0  0  0
   26.1730   16.7370   16.2200 O   0  0  0  0  0  0  0  0  0  0  0  0
   24.0270   17.2700   13.8730 C   0  0  0  0  0  0  0  0  0  0  0  0
   23.3750   17.6290   14.8350 O   0  0  0  0  0  0  0  0  0  0  0  0
   21.4810   15.7800    6.8040 C   0  0  0  0  0  0  0  0  0  0  0  0
   20.4940   16.6090    6.5300 N   0  0  0  0  0  0  0  0  0  0  0  0
   18.9260   19.5054    8.5155 H   0  0  0  0  0  0  0  0  0  0  0  0
   19.7645   19.1250    6.9731 H   0  0  0  0  0  0  0  0  0  0  0  0
   18.0054   19.4887    6.9731 H   0  0  0  0  0  0  0  0  0  0  0  0
   18.0356   17.4089    8.7116 H   0  0  0  0  0  0  0  0  0  0  0  0
   17.8613   17.2207    6.9127 H   0  0  0  0  0  0  0  0  0  0  0  0
   19.9556   15.7959    9.7182 H   0  0  0  0  0  0  0  0  0  0  0  0
   20.9594   14.9784   11.1415 H   0  0  0  0  0  0  0  0  0  0  0  0
   21.4305   16.1913   13.2877 H   0  0  0  0  0  0  0  0  0  0  0  0
   26.2681   13.8360   10.6231 H   0  0  0  0  0  0  0  0  0  0  0  0
   28.1081   13.6262    8.9953 H   0  0  0  0  0  0  0  0  0  0  0  0
   26.6902   16.9109    6.7970 H   0  0  0  0  0  0  0  0  0  0  0  0
   24.8146   17.2345    8.3624 H   0  0  0  0  0  0  0  0  0  0  0  0
   26.5879   16.2829   12.3599 H   0  0  0  0  0  0  0  0  0  0  0  0
   26.1428   17.8246   11.6607 H   0  0  0  0  0  0  0  0  0  0  0  0
   27.1291   18.4908   13.8942 H   0  0  0  0  0  0  0  0  0  0  0  0
   25.3710   20.1788   13.4885 H   0  0  0  0  0  0  0  0  0  0  0  0
   24.5631   19.7163   15.0237 H   0  0  0  0  0  0  0  0  0  0  0  0
   27.3853   20.8534   14.7019 H   0  0  0  0  0  0  0  0  0  0  0  0
   25.9404   21.6874   15.4020 H   0  0  0  0  0  0  0  0  0  0  0  0
   27.4838   18.4460   17.5203 H   0  0  0  0  0  0  0  0  0  0  0  0
   22.2522   15.4618    6.0870 H   0  0  0  0  0  0  0  0  0  0  0  0
  1  2  1  0
  2  3  1  0
  3  4  2  0
  4  5  1  0
  5  6  1  0
  6  7  2  0
  6  8  2  0
  6  9  1  0
  9 10  2  0
 10 11  1  0
 11 12  2  0
 12 13  1  0
 13 14  2  0
 14 15  1  0
 15 16  2  0
 16 17  1  0
 17 18  2  0
 18 19  1  0
 19 20  2  0
 13 21  1  0
 21 22  1  0
 22 23  1  0
 23 24  1  0
 24 25  1  0
 25 26  1  0
 26 27  2  0
 26 28  1  0
 28 29  1  0
 29 30  2  0
 22 31  1  0
 31 32  2  0
  5 33  1  0
 33 34  2  0
 34  3  1  0
 14  9  1  0
 20 15  1  0
 29 23  1  0
 31 12  1  0
  1 35  1  0
  1 36  1  0
  1 37  1  0
  2 38  1  0
  2 39  1  0
  4 40  1  0
 10 41  1  0
 11 42  1  0
 16 43  1  0
 17 44  1  0
 19 45  1  0
 20 46  1  0
 21 47  1  0
 21 48  1  0
 23 49  1  6
 24 50  1  0
 24 51  1  0
 25 52  1  0
 25 53  1  0
 28 54  1  0
 33 55  1  0
M  END
>  <meeko>  (1254) 
{"is_sidechain": [true], "free_energy": -10.15, "intermolecular_energy": 0.0, "internal_energy": -10.15, "cluster_size": 18, "cluster_id": 1, "rank_in_cluster": 1}

>  <_RMSD_MCS_to_ref>  (1254) 
1.7942700465648977

$$$$
ligand
     RDKit          3D

 44 46  0  0  0  0  0  0  0  0999 V2000
   18.9090   19.1540    7.5370 C   0  0  0  0  0  0  0  0  0  0  0  0
   18.7730   17.6460    7.6780 C   0  0  0  0  0  0  0  0  0  0  0  0
   20.0940   16.9610    7.6890 C   0  0  0  0  0  0  0  0  0  0  0  0
   20.9620   16.7640    8.7450 C   0  0  0  0  0  0  0  0  0  0  0  0
   22.0200   16.1040    8.1900 N   0  0  0  0  0  0  0  0  0  0  0  0
   23.3090   15.4340    9.0240 S   0  0  0  0  0  6  0  0  0  0  0  0
   23.4790   14.0930    8.4940 O   0  0  0  0  0  0  0  0  0  0  0  0
   24.3710   16.4230    8.9840 O   0  0  0  0  0  0  0  0  0  0  0  0
   22.8560   15.2450   10.7330 C   0  0  0  0  0  0  0  0  0  0  0  0
   23.7900   15.7770   11.7470 C   0  0  0  0  0  0  0  0  0  0  0  0
   23.4630   15.6320   13.0400 C   0  0  0  0  0  0  0  0  0  0  0  0
   24.4180   16.1810   14.0450 C   0  0  0  0  0  0  0  0  0  0  0  0
   25.0830   15.4420   14.7640 O   0  0  0  0  0  0  0  0  0  0  0  0
   24.5030   17.5510   14.1060 N   0  0  0  0  0  0  0  0  0  0  0  0
   25.6220   18.1950   14.7750 C   0  0  2  0  0  0  0  0  0  0  0  0
   25.5740   17.9430   16.2770 C   0  0  0  0  0  0  0  0  0  0  0  0
   26.7500   18.6380   16.9460 C   0  0  0  0  0  0  0  0  0  0  0  0
   26.7700   20.1140   16.6220 C   0  0  0  0  0  0  0  0  0  0  0  0
   27.1560   20.9570   17.4250 O   0  0  0  0  0  0  0  0  0  0  0  0
   26.3580   20.4720   15.3630 N   0  0  0  0  0  0  0  0  0  0  0  0
   25.5790   19.7110   14.5230 C   0  0  0  0  0  0  0  0  0  0  0  0
   24.9120   20.2420   13.6380 O   0  0  0  0  0  0  0  0  0  0  0  0
   22.1890   14.9580   13.3910 C   0  0  0  0  0  0  0  0  0  0  0  0
   21.8340   14.8010   14.5560 O   0  0  0  0  0  0  0  0  0  0  0  0
   21.4270   14.5150   12.3360 N   0  0  0  0  0  0  0  0  0  0  0  0
   21.7370   14.6450   11.0120 N   0  0  0  0  0  0  0  0  0  0  0  0
   21.7610   15.8720    6.8780 C   0  0  0  0  0  0  0  0  0  0  0  0
   20.6040   16.3990    6.5360 N   0  0  0  0  0  0  0  0  0  0  0  0
   18.9504   19.6134    8.5356 H   0  0  0  0  0  0  0  0  0  0  0  0
   19.8320   19.3891    6.9867 H   0  0  0  0  0  0  0  0  0  0  0  0
   18.0430   19.5504    6.9867 H   0  0  0  0  0  0  0  0  0  0  0  0
   18.2510   17.4240    8.6205 H   0  0  0  0  0  0  0  0  0  0  0  0
   18.2077   17.2753    6.8102 H   0  0  0  0  0  0  0  0  0  0  0  0
   20.8307   17.0692    9.7936 H   0  0  0  0  0  0  0  0  0  0  0  0
   24.7243   16.2764   11.4509 H   0  0  0  0  0  0  0  0  0  0  0  0
   23.7670   18.1274   13.6737 H   0  0  0  0  0  0  0  0  0  0  0  0
   26.5523   17.7710   14.3691 H   0  0  0  0  0  0  0  0  0  0  0  0
   24.6329   18.3400   16.6854 H   0  0  0  0  0  0  0  0  0  0  0  0
   25.6300   16.8613   16.4691 H   0  0  0  0  0  0  0  0  0  0  0  0
   26.6690   18.5111   18.0356 H   0  0  0  0  0  0  0  0  0  0  0  0
   27.6803   18.1867   16.5706 H   0  0  0  0  0  0  0  0  0  0  0  0
   26.6593   21.3937   15.0158 H   0  0  0  0  0  0  0  0  0  0  0  0
   20.5412   14.0417   12.5648 H   0  0  0  0  0  0  0  0  0  0  0  0
   22.4249   15.3208    6.1959 H   0  0  0  0  0  0  0  0  0  0  0  0
  1  2  1  0
  2  3  1  0
  3  4  2  0
  4  5  1  0
  5  6  1  0
  6  7  2  0
  6  8  2  0
  6  9  1  0
  9 10  1  0
 10 11  2  0
 11 12  1  0
 12 13  2  0
 12 14  1  0
 14 15  1  0
 15 16  1  0
 16 17  1  0
 17 18  1  0
 18 19  2  0
 18 20  1  0
 20 21  1  0
 21 22  2  0
 11 23  1  0
 23 24  2  0
 23 25  1  0
 25 26  1  0
  5 27  1  0
 27 28  2  0
 28  3  1  0
 26  9  2  0
 21 15  1  0
  1 29  1  0
  1 30  1  0
  1 31  1  0
  2 32  1  0
  2 33  1  0
  4 34  1  0
 10 35  1  0
 14 36  1  0
 15 37  1  6
 16 38  1  0
 16 39  1  0
 17 40  1  0
 17 41  1  0
 20 42  1  0
 25 43  1  0
 27 44  1  0
M  END
>  <meeko>  (1255) 
{"is_sidechain": [true], "free_energy": -10.15, "intermolecular_energy": 0.0, "internal_energy": -10.15, "cluster_size": 19, "cluster_id": 1, "rank_in_cluster": 1}

>  <_RMSD_MCS_to_ref>  (1255) 
0.5319825602822378

$$$$
ligand
     RDKit          3D

 57 61  0  0  0  0  0  0  0  0999 V2000
   18.9090   19.1540    7.5370 C   0  0  0  0  0  0  0  0  0  0  0  0
   18.7730   17.6460    7.6780 C   0  0  0  0  0  0  0  0  0  0  0  0
   20.0660   16.9430    7.4650 C   0  0  0  0  0  0  0  0  0  0  0  0
   20.5850   15.8530    8.1370 C   0  0  0  0  0  0  0  0  0  0  0  0
   21.7860   15.6250    7.5280 N   0  0  0  0  0  0  0  0  0  0  0  0
   22.9270   14.4990    8.0230 S   0  0  0  0  0  6  0  0  0  0  0  0
   22.2370   13.4470    8.7420 O   0  0  0  0  0  0  0  0  0  0  0  0
   23.6900   14.2030    6.8230 O   0  0  0  0  0  0  0  0  0  0  0  0
   24.0070   15.3470    9.1480 C   0  0  0  0  0  0  0  0  0  0  0  0
   23.4860   15.7640   10.3820 C   0  0  0  0  0  0  0  0  0  0  0  0
   24.3210   16.4890   11.2110 C   0  0  0  0  0  0  0  0  0  0  0  0
   25.6280   16.8280   10.8650 C   0  0  0  0  0  0  0  0  0  0  0  0
   26.1480   16.4350    9.6450 C   0  0  0  0  0  0  0  0  0  0  0  0
   25.3240   15.6930    8.7780 C   0  0  0  0  0  0  0  0  0  0  0  0
   25.9150   15.2260    7.5130 C   0  0  0  0  0  0  0  0  0  0  0  0
   26.2630   14.0560    7.4480 O   0  0  0  0  0  0  0  0  0  0  0  0
   26.0600   16.1560    6.5140 N   0  0  0  0  0  0  0  0  0  0  0  0
   25.2070   17.3040    6.2170 C   0  0  0  0  0  0  0  0  0  0  0  0
   25.8070   17.2630    4.8070 C   0  0  0  0  0  0  0  0  0  0  0  0
   26.2560   15.8290    5.1020 C   0  0  0  0  0  0  0  0  0  0  0  0
   26.2530   17.6290   11.9580 C   0  0  0  0  0  0  0  0  0  0  0  0
   25.2220   17.6230   12.9870 N   0  0  0  0  0  0  0  0  0  0  0  0
   25.3140   18.5010   14.1510 C   0  0  2  0  0  0  0  0  0  0  0  0
   25.9890   19.8410   13.8650 C   0  0  0  0  0  0  0  0  0  0  0  0
   25.9730   20.6920   15.1260 C   0  0  0  0  0  0  0  0  0  0  0  0
   26.6360   19.9760   16.2800 C   0  0  0  0  0  0  0  0  0  0  0  0
   27.1110   20.5800   17.2380 O   0  0  0  0  0  0  0  0  0  0  0  0
   26.6130   18.6050   16.2500 N   0  0  0  0  0  0  0  0  0  0  0  0
   26.0060   17.7880   15.3250 C   0  0  0  0  0  0  0  0  0  0  0  0
   25.9470   16.5730   15.5070 O   0  0  0  0  0  0  0  0  0  0  0  0
   24.0440   17.0460   12.5400 C   0  0  0  0  0  0  0  0  0  0  0  0
   22.9630   16.9970   13.0900 O   0  0  0  0  0  0  0  0  0  0  0  0
   21.9830   16.5610    6.5640 C   0  0  0  0  0  0  0  0  0  0  0  0
   20.9480   17.3750    6.4950 N   0  0  0  0  0  0  0  0  0  0  0  0
   18.9504   19.6134    8.5356 H   0  0  0  0  0  0  0  0  0  0  0  0
   19.8320   19.3891    6.9867 H   0  0  0  0  0  0  0  0  0  0  0  0
   18.0430   19.5504    6.9867 H   0  0  0  0  0  0  0  0  0  0  0  0
   18.4074   17.4164    8.6897 H   0  0  0  0  0  0  0  0  0  0  0  0
   18.0682   17.2971    6.9088 H   0  0  0  0  0  0  0  0  0  0  0  0
   20.1340   15.2962    8.9716 H   0  0  0  0  0  0  0  0  0  0  0  0
   22.4542   15.5236   10.6779 H   0  0  0  0  0  0  0  0  0  0  0  0
   27.1780   16.6954    9.3599 H   0  0  0  0  0  0  0  0  0  0  0  0
   24.1266   17.1030    6.2664 H   0  0  0  0  0  0  0  0  0  0  0  0
   25.2132   18.2158    6.8323 H   0  0  0  0  0  0  0  0  0  0  0  0
   25.0715   17.3539    3.9941 H   0  0  0  0  0  0  0  0  0  0  0  0
   26.5170   18.0287    4.4612 H   0  0  0  0  0  0  0  0  0  0  0  0
   25.5898   15.0457    4.7114 H   0  0  0  0  0  0  0  0  0  0  0  0
   27.2022   15.4187    4.7194 H   0  0  0  0  0  0  0  0  0  0  0  0
   27.1772   17.1543   12.3193 H   0  0  0  0  0  0  0  0  0  0  0  0
   26.5508   18.6401   11.6435 H   0  0  0  0  0  0  0  0  0  0  0  0
   24.2755   18.7357   14.4275 H   0  0  0  0  0  0  0  0  0  0  0  0
   27.0291   19.6688   13.5512 H   0  0  0  0  0  0  0  0  0  0  0  0
   25.4472   20.3623   13.0621 H   0  0  0  0  0  0  0  0  0  0  0  0
   26.5105   21.6317   14.9310 H   0  0  0  0  0  0  0  0  0  0  0  0
   24.9257   20.8917   15.3969 H   0  0  0  0  0  0  0  0  0  0  0  0
   27.1120   18.1284   17.0147 H   0  0  0  0  0  0  0  0  0  0  0  0
   22.8794   16.6303    5.9302 H   0  0  0  0  0  0  0  0  0  0  0  0
  1  2  1  0
  2  3  1  0
  3  4  2  0
  4  5  1  0
  5  6  1  0
  6  7  2  0
  6  8  2  0
  6  9  1  0
  9 10  2  0
 10 11  1  0
 11 12  2  0
 12 13  1  0
 13 14  2  0
 14 15  1  0
 15 16  2  0
 15 17  1  0
 17 18  1  0
 18 19  1  0
 19 20  1  0
 12 21  1  0
 21 22  1  0
 22 23  1  0
 23 24  1  0
 24 25  1  0
 25 26  1  0
 26 27  2  0
 26 28  1  0
 28 29  1  0
 29 30  2  0
 22 31  1  0
 31 32  2  0
  5 33  1  0
 33 34  2  0
 34  3  1  0
 14  9  1  0
 20 17  1  0
 29 23  1  0
 31 11  1  0
  1 35  1  0
  1 36  1  0
  1 37  1  0
  2 38  1  0
  2 39  1  0
  4 40  1  0
 10 41  1  0
 13 42  1  0
 18 43  1  0
 18 44  1  0
 19 45  1  0
 19 46  1  0
 20 47  1  0
 20 48  1  0
 21 49  1  0
 21 50  1  0
 23 51  1  1
 24 52  1  0
 24 53  1  0
 25 54  1  0
 25 55  1  0
 28 56  1  0
 33 57  1  0
M  END
>  <meeko>  (1256) 
{"is_sidechain": [true], "free_energy": -10.15, "intermolecular_energy": 0.0, "internal_energy": -10.15, "cluster_size": 18, "cluster_id": 2, "rank_in_cluster": 1}

>  <_RMSD_MCS_to_ref>  (1256) 
1.7411424569964273

$$$$
ligand
     RDKit          3D

 47 50  0  0  0  0  0  0  0  0999 V2000
   18.9090   19.1540    7.5370 C   0  0  0  0  0  0  0  0  0  0  0  0
   18.7730   17.6460    7.6780 C   0  0  0  0  0  0  0  0  0  0  0  0
   20.0640   16.9420    7.4490 C   0  0  0  0  0  0  0  0  0  0  0  0
   20.8670   16.2810    8.3570 C   0  0  0  0  0  0  0  0  0  0  0  0
   21.9260   15.8470    7.6140 N   0  0  0  0  0  0  0  0  0  0  0  0
   23.1270   14.7910    8.1300 S   0  0  0  0  0  6  0  0  0  0  0  0
   24.3860   15.3750    7.7100 O   0  0  0  0  0  0  0  0  0  0  0  0
   22.6990   13.4730    7.7020 O   0  0  0  0  0  0  0  0  0  0  0  0
   23.0290   14.8740    9.8960 C   0  0  0  0  0  0  0  0  0  0  0  0
   22.6760   13.7410   10.6280 C   0  0  0  0  0  0  0  0  0  0  0  0
   22.6110   13.8300   12.0160 C   0  0  0  0  0  0  0  0  0  0  0  0
   22.9060   15.0530   12.6540 C   0  0  0  0  0  0  0  0  0  0  0  0
   22.8660   15.2360   14.0250 C   0  0  0  0  0  0  0  0  0  0  0  0
   23.1490   16.4030   14.6330 N   0  0  0  0  0  0  0  0  0  0  0  0
   23.4770   17.4300   13.8400 C   0  0  0  0  0  0  0  0  0  0  0  0
   23.7620   18.6710   14.3870 N   0  0  0  0  0  0  0  0  0  0  0  0
   25.1270   18.8300   14.8870 C   0  0  2  0  0  0  0  0  0  0  0  0
   25.1610   18.5590   16.3900 C   0  0  0  0  0  0  0  0  0  0  0  0
   26.5630   18.8000   16.9240 C   0  0  0  0  0  0  0  0  0  0  0  0
   27.0280   20.2040   16.6250 C   0  0  0  0  0  0  0  0  0  0  0  0
   27.8320   20.7970   17.3370 O   0  0  0  0  0  0  0  0  0  0  0  0
   26.5470   20.7750   15.4740 N   0  0  0  0  0  0  0  0  0  0  0  0
   25.5870   20.2750   14.6290 C   0  0  0  0  0  0  0  0  0  0  0  0
   25.1550   20.9530   13.6970 O   0  0  0  0  0  0  0  0  0  0  0  0
   23.5530   17.3550   12.5060 N   0  0  0  0  0  0  0  0  0  0  0  0
   23.2700   16.1850   11.9220 C   0  0  0  0  0  0  0  0  0  0  0  0
   23.3340   16.0790   10.5410 C   0  0  0  0  0  0  0  0  0  0  0  0
   21.7330   16.1940    6.3160 C   0  0  0  0  0  0  0  0  0  0  0  0
   20.6110   16.8710    6.1820 N   0  0  0  0  0  0  0  0  0  0  0  0
   18.9504   19.6134    8.5356 H   0  0  0  0  0  0  0  0  0  0  0  0
   19.8320   19.3891    6.9867 H   0  0  0  0  0  0  0  0  0  0  0  0
   18.0430   19.5504    6.9867 H   0  0  0  0  0  0  0  0  0  0  0  0
   18.4190   17.4155    8.6937 H   0  0  0  0  0  0  0  0  0  0  0  0
   18.0588   17.2984    6.9170 H   0  0  0  0  0  0  0  0  0  0  0  0
   20.6928   16.1371    9.4335 H   0  0  0  0  0  0  0  0  0  0  0  0
   22.4526   12.7926   10.1174 H   0  0  0  0  0  0  0  0  0  0  0  0
   22.3306   12.9497   12.6130 H   0  0  0  0  0  0  0  0  0  0  0  0
   22.5868   14.3781   14.6544 H   0  0  0  0  0  0  0  0  0  0  0  0
   23.0634   19.4262   14.4377 H   0  0  0  0  0  0  0  0  0  0  0  0
   25.7916   18.1207   14.3721 H   0  0  0  0  0  0  0  0  0  0  0  0
   24.4555   19.2324   16.8987 H   0  0  0  0  0  0  0  0  0  0  0  0
   24.8753   17.5134   16.5774 H   0  0  0  0  0  0  0  0  0  0  0  0
   26.5632   18.6465   18.0132 H   0  0  0  0  0  0  0  0  0  0  0  0
   27.2487   18.0943   16.4322 H   0  0  0  0  0  0  0  0  0  0  0  0
   26.9534   21.6848   15.2133 H   0  0  0  0  0  0  0  0  0  0  0  0
   23.6286   16.9542    9.9433 H   0  0  0  0  0  0  0  0  0  0  0  0
   22.4175   15.9448    5.4917 H   0  0  0  0  0  0  0  0  0  0  0  0
  1  2  1  0
  2  3  1  0
  3  4  2  0
  4  5  1  0
  5  6  1  0
  6  7  2  0
  6  8  2  0
  6  9  1  0
  9 10  2  0
 10 11  1  0
 11 12  2  0
 12 13  1  0
 13 14  2  0
 14 15  1  0
 15 16  1  0
 16 17  1  0
 17 18  1  0
 18 19  1  0
 19 20  1  0
 20 21  2  0
 20 22  1  0
 22 23  1  0
 23 24  2  0
 15 25  2  0
 25 26  1  0
 26 27  2  0
  5 28  1  0
 28 29  2  0
 29  3  1  0
 27  9  1  0
 26 12  1  0
 23 17  1  0
  1 30  1  0
  1 31  1  0
  1 32  1  0
  2 33  1  0
  2 34  1  0
  4 35  1  0
 10 36  1  0
 11 37  1  0
 13 38  1  0
 16 39  1  0
 17 40  1  6
 18 41  1  0
 18 42  1  0
 19 43  1  0
 19 44  1  0
 22 45  1  0
 27 46  1  0
 28 47  1  0
M  END
>  <meeko>  (1257) 
{"is_sidechain": [true], "free_energy": -10.15, "intermolecular_energy": 0.0, "internal_energy": -10.15, "cluster_size": 20, "cluster_id": 1, "rank_in_cluster": 1}

>  <_RMSD_MCS_to_ref>  (1257) 
0.9261544747562964

$$$$
ligand
     RDKit          3D

 46 49  0  0  0  0  0  0  0  0999 V2000
   18.9090   19.1540    7.5370 C   0  0  0  0  0  0  0  0  0  0  0  0
   18.7730   17.6460    7.6780 C   0  0  0  0  0  0  0  0  0  0  0  0
   20.0950   16.9660    7.7480 C   0  0  0  0  0  0  0  0  0  0  0  0
   21.1700   17.0650    6.8880 C   0  0  0  0  0  0  0  0  0  0  0  0
   22.1150   16.2470    7.4380 N   0  0  0  0  0  0  0  0  0  0  0  0
   23.5640   15.7990    6.7140 S   0  0  0  0  0  6  0  0  0  0  0  0
   24.0580   16.9800    6.0360 O   0  0  0  0  0  0  0  0  0  0  0  0
   23.2850   14.5590    6.0140 O   0  0  0  0  0  0  0  0  0  0  0  0
   24.6280   15.4480    8.0800 C   0  0  0  0  0  0  0  0  0  0  0  0
   25.4050   14.2930    8.0700 C   0  0  0  0  0  0  0  0  0  0  0  0
   26.2290   14.0740    9.1550 C   0  0  0  0  0  0  0  0  0  0  0  0
   26.3180   14.9140   10.2070 N   0  0  0  0  0  0  0  0  0  0  0  0
   25.5610   16.0420   10.1870 C   0  0  0  0  0  0  0  0  0  0  0  0
   25.6820   16.9320   11.3260 C   0  0  0  0  0  0  0  0  0  0  0  0
   24.7040   17.2090   12.2570 C   0  0  0  0  0  0  0  0  0  0  0  0
   25.2970   18.0960   13.1050 N   0  0  0  0  0  0  0  0  0  0  0  0
   24.7300   18.6980   14.2950 C   0  0  1  0  0  0  0  0  0  0  0  0
   25.2090   18.0650   15.6030 C   0  0  0  0  0  0  0  0  0  0  0  0
   26.6130   18.5110   15.9880 C   0  0  0  0  0  0  0  0  0  0  0  0
   26.7460   20.0140   15.9710 C   0  0  0  0  0  0  0  0  0  0  0  0
   27.5310   20.6120   16.7000 O   0  0  0  0  0  0  0  0  0  0  0  0
   25.9570   20.6920   15.0760 N   0  0  0  0  0  0  0  0  0  0  0  0
   24.9440   20.1970   14.2910 C   0  0  0  0  0  0  0  0  0  0  0  0
   24.2470   20.9570   13.6200 O   0  0  0  0  0  0  0  0  0  0  0  0
   26.5660   18.3490   12.7360 N   0  0  0  0  0  0  0  0  0  0  0  0
   26.8130   17.6420   11.6420 N   0  0  0  0  0  0  0  0  0  0  0  0
   24.7060   16.3490    9.1390 C   0  0  0  0  0  0  0  0  0  0  0  0
   21.6030   15.6570    8.5470 C   0  0  0  0  0  0  0  0  0  0  0  0
   20.3760   16.0810    8.7700 N   0  0  0  0  0  0  0  0  0  0  0  0
   18.9504   19.6134    8.5356 H   0  0  0  0  0  0  0  0  0  0  0  0
   19.8320   19.3891    6.9867 H   0  0  0  0  0  0  0  0  0  0  0  0
   18.0430   19.5504    6.9867 H   0  0  0  0  0  0  0  0  0  0  0  0
   18.2121   17.4255    8.5982 H   0  0  0  0  0  0  0  0  0  0  0  0
   18.2467   17.2699    6.7883 H   0  0  0  0  0  0  0  0  0  0  0  0
   21.2477   17.6655    5.9696 H   0  0  0  0  0  0  0  0  0  0  0  0
   25.3638   13.5832    7.2307 H   0  0  0  0  0  0  0  0  0  0  0  0
   26.8474   13.1643    9.1626 H   0  0  0  0  0  0  0  0  0  0  0  0
   23.6812   16.8070   12.3046 H   0  0  0  0  0  0  0  0  0  0  0  0
   23.6501   18.4926   14.2553 H   0  0  0  0  0  0  0  0  0  0  0  0
   24.5153   18.3505   16.4076 H   0  0  0  0  0  0  0  0  0  0  0  0
   25.2333   16.9750   15.4570 H   0  0  0  0  0  0  0  0  0  0  0  0
   26.8382   18.1447   17.0005 H   0  0  0  0  0  0  0  0  0  0  0  0
   27.3181   18.0962   15.2526 H   0  0  0  0  0  0  0  0  0  0  0  0
   26.1485   21.6995   14.9807 H   0  0  0  0  0  0  0  0  0  0  0  0
   24.1095   17.2732    9.1441 H   0  0  0  0  0  0  0  0  0  0  0  0
   22.1376   14.9268    9.1724 H   0  0  0  0  0  0  0  0  0  0  0  0
  1  2  1  0
  2  3  1  0
  3  4  2  0
  4  5  1  0
  5  6  1  0
  6  7  2  0
  6  8  2  0
  6  9  1  0
  9 10  2  0
 10 11  1  0
 11 12  2  0
 12 13  1  0
 13 14  1  0
 14 15  2  0
 15 16  1  0
 16 17  1  0
 17 18  1  0
 18 19  1  0
 19 20  1  0
 20 21  2  0
 20 22  1  0
 22 23  1  0
 23 24  2  0
 16 25  1  0
 25 26  2  0
 13 27  2  0
  5 28  1  0
 28 29  2  0
 29  3  1  0
 27  9  1  0
 26 14  1  0
 23 17  1  0
  1 30  1  0
  1 31  1  0
  1 32  1  0
  2 33  1  0
  2 34  1  0
  4 35  1  0
 10 36  1  0
 11 37  1  0
 15 38  1  0
 17 39  1  6
 18 40  1  0
 18 41  1  0
 19 42  1  0
 19 43  1  0
 22 44  1  0
 27 45  1  0
 28 46  1  0
M  END
>  <meeko>  (1258) 
{"is_sidechain": [true], "free_energy": -10.15, "intermolecular_energy": 0.0, "internal_energy": -10.15, "cluster_size": 20, "cluster_id": 1, "rank_in_cluster": 1}

>  <_RMSD_MCS_to_ref>  (1258) 
0.69138042269715

$$$$
ligand
     RDKit          3D

 48 51  0  0  0  0  0  0  0  0999 V2000
   18.9090   19.1540    7.5370 C   0  0  0  0  0  0  0  0  0  0  0  0
   18.7730   17.6460    7.6780 C   0  0  0  0  0  0  0  0  0  0  0  0
   19.9270   16.9200    7.0830 C   0  0  0  0  0  0  0  0  0  0  0  0
   20.6230   15.8380    7.5850 C   0  0  0  0  0  0  0  0  0  0  0  0
   21.5700   15.5790    6.6340 N   0  0  0  0  0  0  0  0  0  0  0  0
   22.7970   14.4380    6.7400 S   0  0  0  0  0  6  0  0  0  0  0  0
   23.9170   14.9930    6.0010 O   0  0  0  0  0  0  0  0  0  0  0  0
   22.1830   13.1730    6.3750 O   0  0  0  0  0  0  0  0  0  0  0  0
   23.2410   14.3640    8.4550 C   0  0  0  0  0  0  0  0  0  0  0  0
   23.3330   13.1200    9.0690 C   0  0  0  0  0  0  0  0  0  0  0  0
   23.6810   13.0700   10.4160 C   0  0  0  0  0  0  0  0  0  0  0  0
   23.9070   14.3020   11.0330 C   0  0  0  0  0  0  0  0  0  0  0  0
   24.2610   14.6240   12.3190 N   0  0  0  0  0  0  0  0  0  0  0  0
   24.3690   15.9940   12.4730 C   0  0  0  0  0  0  0  0  0  0  0  0
   24.7320   16.5750   13.7450 C   0  0  0  0  0  0  0  0  0  0  0  0
   24.7580   15.9140   14.7780 O   0  0  0  0  0  0  0  0  0  0  0  0
   25.0320   17.9120   13.7220 N   0  0  0  0  0  0  0  0  0  0  0  0
   25.2780   18.6630   14.9420 C   0  0  1  0  0  0  0  0  0  0  0  0
   26.3350   18.0060   15.8220 C   0  0  0  0  0  0  0  0  0  0  0  0
   26.5670   18.8590   17.0590 C   0  0  0  0  0  0  0  0  0  0  0  0
   26.9440   20.2740   16.6890 C   0  0  0  0  0  0  0  0  0  0  0  0
   27.7140   20.9490   17.3650 O   0  0  0  0  0  0  0  0  0  0  0  0
   26.3550   20.7920   15.5630 N   0  0  0  0  0  0  0  0  0  0  0  0
   25.7500   20.0700   14.5640 C   0  0  0  0  0  0  0  0  0  0  0  0
   25.5920   20.5450   13.4400 O   0  0  0  0  0  0  0  0  0  0  0  0
   24.0800   16.5530   11.2390 C   0  0  0  0  0  0  0  0  0  0  0  0
   23.7900   15.5010   10.3390 C   0  0  0  0  0  0  0  0  0  0  0  0
   23.4550   15.5720    9.0300 N   0  0  0  0  0  0  0  0  0  0  0  0
   21.4600   16.4940    5.6360 C   0  0  0  0  0  0  0  0  0  0  0  0
   20.4550   17.3140    5.8680 N   0  0  0  0  0  0  0  0  0  0  0  0
   18.9504   19.6134    8.5356 H   0  0  0  0  0  0  0  0  0  0  0  0
   19.8320   19.3891    6.9867 H   0  0  0  0  0  0  0  0  0  0  0  0
   18.0430   19.5504    6.9867 H   0  0  0  0  0  0  0  0  0  0  0  0
   18.7091   17.3944    8.7469 H   0  0  0  0  0  0  0  0  0  0  0  0
   17.8652   17.3368    7.1392 H   0  0  0  0  0  0  0  0  0  0  0  0
   20.4540   15.3064    8.5330 H   0  0  0  0  0  0  0  0  0  0  0  0
   23.1355   12.1972    8.5039 H   0  0  0  0  0  0  0  0  0  0  0  0
   23.7723   12.1187   10.9606 H   0  0  0  0  0  0  0  0  0  0  0  0
   24.4244   13.9373   13.0691 H   0  0  0  0  0  0  0  0  0  0  0  0
   25.0846   18.3980   12.8154 H   0  0  0  0  0  0  0  0  0  0  0  0
   24.3398   18.6956   15.5154 H   0  0  0  0  0  0  0  0  0  0  0  0
   25.9898   17.0066   16.1254 H   0  0  0  0  0  0  0  0  0  0  0  0
   27.2753   17.9141   15.2586 H   0  0  0  0  0  0  0  0  0  0  0  0
   25.6447   18.8792   17.6581 H   0  0  0  0  0  0  0  0  0  0  0  0
   27.3954   18.4186   17.6332 H   0  0  0  0  0  0  0  0  0  0  0  0
   26.3679   21.8165   15.4576 H   0  0  0  0  0  0  0  0  0  0  0  0
   24.0766   17.6269   11.0007 H   0  0  0  0  0  0  0  0  0  0  0  0
   22.1185   16.5435    4.7563 H   0  0  0  0  0  0  0  0  0  0  0  0
  1  2  1  0
  2  3  1  0
  3  4  2  0
  4  5  1  0
  5  6  1  0
  6  7  2  0
  6  8  2  0
  6  9  1  0
  9 10  2  0
 10 11  1  0
 11 12  2  0
 12 13  1  0
 13 14  1  0
 14 15  1  0
 15 16  2  0
 15 17  1  0
 17 18  1  0
 18 19  1  0
 19 20  1  0
 20 21  1  0
 21 22  2  0
 21 23  1  0
 23 24  1  0
 24 25  2  0
 14 26  2  0
 26 27  1  0
 27 28  2  0
  5 29  1  0
 29 30  2  0
 30  3  1  0
 28  9  1  0
 27 12  1  0
 24 18  1  0
  1 31  1  0
  1 32  1  0
  1 33  1  0
  2 34  1  0
  2 35  1  0
  4 36  1  0
 10 37  1  0
 11 38  1  0
 13 39  1  0
 17 40  1  0
 18 41  1  1
 19 42  1  0
 19 43  1  0
 20 44  1  0
 20 45  1  0
 23 46  1  0
 26 47  1  0
 29 48  1  0
M  END
>  <meeko>  (1259) 
{"is_sidechain": [true], "free_energy": -10.15, "intermolecular_energy": 0.0, "internal_energy": -10.15, "cluster_size": 16, "cluster_id": 1, "rank_in_cluster": 1}

>  <_RMSD_MCS_to_ref>  (1259) 
0.6268031766210364

$$$$
ligand
     RDKit          3D

 47 50  0  0  0  0  0  0  0  0999 V2000
   18.9090   19.1540    7.5370 C   0  0  0  0  0  0  0  0  0  0  0  0
   18.7730   17.6460    7.6780 C   0  0  0  0  0  0  0  0  0  0  0  0
   20.0010   16.9280    7.2410 C   0  0  0  0  0  0  0  0  0  0  0  0
   21.0510   16.4610    8.0060 C   0  0  0  0  0  0  0  0  0  0  0  0
   21.8920   15.8760    7.1000 N   0  0  0  0  0  0  0  0  0  0  0  0
   23.4180   15.2550    7.4240 S   0  0  0  0  0  6  0  0  0  0  0  0
   23.3110   13.8270    7.1850 O   0  0  0  0  0  0  0  0  0  0  0  0
   24.3520   16.0950    6.6970 O   0  0  0  0  0  0  0  0  0  0  0  0
   23.6690   15.5110    9.1640 C   0  0  0  0  0  0  0  0  0  0  0  0
   24.6560   16.4010    9.5780 C   0  0  0  0  0  0  0  0  0  0  0  0
   24.8460   16.5860   10.9480 C   0  0  0  0  0  0  0  0  0  0  0  0
   24.0230   15.8570   11.8260 C   0  0  0  0  0  0  0  0  0  0  0  0
   23.8510   15.7170   13.2340 C   0  0  0  0  0  0  0  0  0  0  0  0
   24.6070   16.4000   14.2930 C   0  0  0  0  0  0  0  0  0  0  0  0
   25.2850   15.8070   15.1260 O   0  0  0  0  0  0  0  0  0  0  0  0
   24.4740   17.7690   14.2690 N   0  0  0  0  0  0  0  0  0  0  0  0
   24.9970   18.6260   15.3140 C   0  0  1  0  0  0  0  0  0  0  0  0
   26.1660   17.9790   16.0500 C   0  0  0  0  0  0  0  0  0  0  0  0
   26.6840   18.9300   17.1180 C   0  0  0  0  0  0  0  0  0  0  0  0
   27.0650   20.2660   16.5240 C   0  0  0  0  0  0  0  0  0  0  0  0
   27.9840   20.9460   16.9700 O   0  0  0  0  0  0  0  0  0  0  0  0
   26.3060   20.7100   15.4710 N   0  0  0  0  0  0  0  0  0  0  0  0
   25.4620   19.9500   14.6980 C   0  0  0  0  0  0  0  0  0  0  0  0
   25.0970   20.3420   13.5910 O   0  0  0  0  0  0  0  0  0  0  0  0
   22.8670   14.8340   13.5270 N   0  0  0  0  0  0  0  0  0  0  0  0
   22.4280   14.4280   12.3180 N   0  0  0  0  0  0  0  0  0  0  0  0
   23.0810   15.0050   11.2690 C   0  0  0  0  0  0  0  0  0  0  0  0
   22.8450   14.7790    9.9630 N   0  0  0  0  0  0  0  0  0  0  0  0
   21.3760   16.0300    5.8530 C   0  0  0  0  0  0  0  0  0  0  0  0
   20.2190   16.6570    5.9040 N   0  0  0  0  0  0  0  0  0  0  0  0
   18.9504   19.6134    8.5356 H   0  0  0  0  0  0  0  0  0  0  0  0
   19.8320   19.3891    6.9867 H   0  0  0  0  0  0  0  0  0  0  0  0
   18.0430   19.5504    6.9867 H   0  0  0  0  0  0  0  0  0  0  0  0
   18.5783   17.4049    8.7334 H   0  0  0  0  0  0  0  0  0  0  0  0
   17.9434   17.3198    7.0334 H   0  0  0  0  0  0  0  0  0  0  0  0
   21.1814   16.5411    9.0953 H   0  0  0  0  0  0  0  0  0  0  0  0
   25.2700   16.9442    8.8445 H   0  0  0  0  0  0  0  0  0  0  0  0
   25.6123   17.2775   11.3282 H   0  0  0  0  0  0  0  0  0  0  0  0
   23.9821   18.2031   13.4750 H   0  0  0  0  0  0  0  0  0  0  0  0
   24.1909   18.7984   16.0424 H   0  0  0  0  0  0  0  0  0  0  0  0
   25.8290   17.0450   16.5234 H   0  0  0  0  0  0  0  0  0  0  0  0
   26.9719   17.7585   15.3345 H   0  0  0  0  0  0  0  0  0  0  0  0
   25.8984   19.0840   17.8724 H   0  0  0  0  0  0  0  0  0  0  0  0
   27.5799   18.4846   17.5751 H   0  0  0  0  0  0  0  0  0  0  0  0
   26.3757   21.7107   15.2371 H   0  0  0  0  0  0  0  0  0  0  0  0
   21.6677   13.7435   12.1978 H   0  0  0  0  0  0  0  0  0  0  0  0
   21.8579   15.6795    4.9284 H   0  0  0  0  0  0  0  0  0  0  0  0
  1  2  1  0
  2  3  1  0
  3  4  2  0
  4  5  1  0
  5  6  1  0
  6  7  2  0
  6  8  2  0
  6  9  1  0
  9 10  2  0
 10 11  1  0
 11 12  2  0
 12 13  1  0
 13 14  1  0
 14 15  2  0
 14 16  1  0
 16 17  1  0
 17 18  1  0
 18 19  1  0
 19 20  1  0
 20 21  2  0
 20 22  1  0
 22 23  1  0
 23 24  2  0
 13 25  2  0
 25 26  1  0
 26 27  1  0
 27 28  2  0
  5 29  1  0
 29 30  2  0
 30  3  1  0
 28  9  1  0
 27 12  1  0
 23 17  1  0
  1 31  1  0
  1 32  1  0
  1 33  1  0
  2 34  1  0
  2 35  1  0
  4 36  1  0
 10 37  1  0
 11 38  1  0
 16 39  1  0
 17 40  1  1
 18 41  1  0
 18 42  1  0
 19 43  1  0
 19 44  1  0
 22 45  1  0
 26 46  1  0
 29 47  1  0
M  END
>  <meeko>  (1260) 
{"is_sidechain": [true], "free_energy": -10.15, "intermolecular_energy": 0.0, "internal_energy": -10.15, "cluster_size": 9, "cluster_id": 1, "rank_in_cluster": 1}

>  <_RMSD_MCS_to_ref>  (1260) 
0.5974413034860511

$$$$
ligand
     RDKit          3D

 46 49  0  0  0  0  0  0  0  0999 V2000
   18.9090   19.1540    7.5370 C   0  0  0  0  0  0  0  0  0  0  0  0
   18.7730   17.6460    7.6780 C   0  0  0  0  0  0  0  0  0  0  0  0
   20.0470   16.9370    7.3820 C   0  0  0  0  0  0  0  0  0  0  0  0
   21.1740   16.8110    8.1720 C   0  0  0  0  0  0  0  0  0  0  0  0
   22.0400   16.0840    7.4060 N   0  0  0  0  0  0  0  0  0  0  0  0
   23.5430   15.5070    7.8830 S   0  0  0  0  0  6  0  0  0  0  0  0
   24.0110   14.6900    6.7780 O   0  0  0  0  0  0  0  0  0  0  0  0
   24.2700   16.6700    8.3550 O   0  0  0  0  0  0  0  0  0  0  0  0
   23.2350   14.4490    9.2590 C   0  0  0  0  0  0  0  0  0  0  0  0
   22.6680   13.2550    8.9600 N   0  0  0  0  0  0  0  0  0  0  0  0
   22.4200   12.4170    9.9730 C   0  0  0  0  0  0  0  0  0  0  0  0
   22.6710   12.6270   11.2660 N   0  0  0  0  0  0  0  0  0  0  0  0
   23.2390   13.8230   11.5510 C   0  0  0  0  0  0  0  0  0  0  0  0
   23.6010   14.2710   12.8520 C   0  0  0  0  0  0  0  0  0  0  0  0
   24.1660   15.5310   12.8520 C   0  0  0  0  0  0  0  0  0  0  0  0
   24.6420   16.2650   14.0170 C   0  0  0  0  0  0  0  0  0  0  0  0
   24.8850   15.7180   15.0910 O   0  0  0  0  0  0  0  0  0  0  0  0
   24.8020   17.6220   13.8590 N   0  0  0  0  0  0  0  0  0  0  0  0
   25.1270   18.4980   14.9740 C   0  0  1  0  0  0  0  0  0  0  0  0
   26.2070   17.9060   15.8740 C   0  0  0  0  0  0  0  0  0  0  0  0
   26.5240   18.8840   16.9950 C   0  0  0  0  0  0  0  0  0  0  0  0
   26.9220   20.2360   16.4500 C   0  0  0  0  0  0  0  0  0  0  0  0
   27.7460   20.9540   17.0070 O   0  0  0  0  0  0  0  0  0  0  0  0
   26.2910   20.6440   15.3020 N   0  0  0  0  0  0  0  0  0  0  0  0
   25.6200   19.8360   14.4180 C   0  0  0  0  0  0  0  0  0  0  0  0
   25.4250   20.1870   13.2560 O   0  0  0  0  0  0  0  0  0  0  0  0
   24.2510   16.1640   11.2650 S   0  0  0  0  0  0  0  0  0  0  0  0
   23.5380   14.7660   10.5730 C   0  0  0  0  0  0  0  0  0  0  0  0
   21.4340   15.7610    6.2330 C   0  0  0  0  0  0  0  0  0  0  0  0
   20.2230   16.2750    6.1830 N   0  0  0  0  0  0  0  0  0  0  0  0
   18.9504   19.6134    8.5356 H   0  0  0  0  0  0  0  0  0  0  0  0
   19.8320   19.3891    6.9867 H   0  0  0  0  0  0  0  0  0  0  0  0
   18.0430   19.5504    6.9867 H   0  0  0  0  0  0  0  0  0  0  0  0
   18.4689   17.4126    8.7090 H   0  0  0  0  0  0  0  0  0  0  0  0
   18.0202   17.3053    6.9519 H   0  0  0  0  0  0  0  0  0  0  0  0
   21.3363   17.2059    9.1858 H   0  0  0  0  0  0  0  0  0  0  0  0
   21.9603   11.4524    9.7118 H   0  0  0  0  0  0  0  0  0  0  0  0
   23.4467   13.6752   13.7637 H   0  0  0  0  0  0  0  0  0  0  0  0
   24.6880   18.0312   12.9207 H   0  0  0  0  0  0  0  0  0  0  0  0
   24.2192   18.6286   15.5814 H   0  0  0  0  0  0  0  0  0  0  0  0
   25.8479   16.9592   16.3038 H   0  0  0  0  0  0  0  0  0  0  0  0
   27.1154   17.7186   15.2827 H   0  0  0  0  0  0  0  0  0  0  0  0
   25.6334   19.0019   17.6298 H   0  0  0  0  0  0  0  0  0  0  0  0
   27.3671   18.4830   17.5766 H   0  0  0  0  0  0  0  0  0  0  0  0
   26.3238   21.6499   15.0831 H   0  0  0  0  0  0  0  0  0  0  0  0
   21.8913   15.1550    5.4370 H   0  0  0  0  0  0  0  0  0  0  0  0
  1  2  1  0
  2  3  1  0
  3  4  2  0
  4  5  1  0
  5  6  1  0
  6  7  2  0
  6  8  2  0
  6  9  1  0
  9 10  2  0
 10 11  1  0
 11 12  2  0
 12 13  1  0
 13 14  1  0
 14 15  2  0
 15 16  1  0
 16 17  2  0
 16 18  1  0
 18 19  1  0
 19 20  1  0
 20 21  1  0
 21 22  1  0
 22 23  2  0
 22 24  1  0
 24 25  1  0
 25 26  2  0
 15 27  1  0
 27 28  1  0
  5 29  1  0
 29 30  2  0
 30  3  1  0
 28  9  1  0
 28 13  2  0
 25 19  1  0
  1 31  1  0
  1 32  1  0
  1 33  1  0
  2 34  1  0
  2 35  1  0
  4 36  1  0
 11 37  1  0
 14 38  1  0
 18 39  1  0
 19 40  1  1
 20 41  1  0
 20 42  1  0
 21 43  1  0
 21 44  1  0
 24 45  1  0
 29 46  1  0
M  END
>  <meeko>  (1261) 
{"is_sidechain": [true], "free_energy": -10.15, "intermolecular_energy": 0.0, "internal_energy": -10.15, "cluster_size": 19, "cluster_id": 1, "rank_in_cluster": 1}

>  <_RMSD_MCS_to_ref>  (1261) 
0.4771988870248733

$$$$
ligand
     RDKit          3D

 44 47  0  0  0  0  0  0  0  0999 V2000
   18.9090   19.1540    7.5370 C   0  0  0  0  0  0  0  0  0  0  0  0
   18.7730   17.6460    7.6780 C   0  0  0  0  0  0  0  0  0  0  0  0
   20.0860   16.9530    7.5870 C   0  0  0  0  0  0  0  0  0  0  0  0
   20.9300   16.5560    8.6070 C   0  0  0  0  0  0  0  0  0  0  0  0
   21.9790   15.9640    7.9610 N   0  0  0  0  0  0  0  0  0  0  0  0
   23.3930   15.4120    8.6680 S   0  0  0  0  0  6  0  0  0  0  0  0
   23.4790   13.9990    8.3460 O   0  0  0  0  0  0  0  0  0  0  0  0
   24.4200   16.3760    8.3160 O   0  0  0  0  0  0  0  0  0  0  0  0
   23.2160   15.5050   10.4070 C   0  0  0  0  0  0  0  0  0  0  0  0
   22.5380   14.5380   11.1120 N   0  0  0  0  0  0  0  0  0  0  0  0
   22.6160   14.9470   12.3590 C   0  0  0  0  0  0  0  0  0  0  0  0
   22.1190   14.3610   13.4830 N   0  0  0  0  0  0  0  0  0  0  0  0
   22.3470   14.9900   14.5940 C   0  0  0  0  0  0  0  0  0  0  0  0
   23.0890   16.2700   14.7510 C   0  0  0  0  0  0  0  0  0  0  0  0
   23.5710   16.8310   13.6280 C   0  0  0  0  0  0  0  0  0  0  0  0
   24.2840   18.0290   13.5580 N   0  0  0  0  0  0  0  0  0  0  0  0
   25.4470   18.4200   14.3560 C   0  0  2  0  0  0  0  0  0  0  0  0
   25.1960   18.0980   15.8260 C   0  0  0  0  0  0  0  0  0  0  0  0
   26.3820   18.5490   16.6620 C   0  0  0  0  0  0  0  0  0  0  0  0
   26.6580   20.0210   16.4720 C   0  0  0  0  0  0  0  0  0  0  0  0
   27.1550   20.7150   17.3550 O   0  0  0  0  0  0  0  0  0  0  0  0
   26.3740   20.5430   15.2360 N   0  0  0  0  0  0  0  0  0  0  0  0
   25.6950   19.9320   14.2110 C   0  0  0  0  0  0  0  0  0  0  0  0
   25.3310   20.5750   13.2260 O   0  0  0  0  0  0  0  0  0  0  0  0
   23.3280   16.1510   12.4060 N   0  0  0  0  0  0  0  0  0  0  0  0
   23.7180   16.5040   11.1540 N   0  0  0  0  0  0  0  0  0  0  0  0
   21.7860   16.0590    6.6200 C   0  0  0  0  0  0  0  0  0  0  0  0
   20.6300   16.6320    6.3590 N   0  0  0  0  0  0  0  0  0  0  0  0
   18.9504   19.6134    8.5356 H   0  0  0  0  0  0  0  0  0  0  0  0
   19.8320   19.3891    6.9867 H   0  0  0  0  0  0  0  0  0  0  0  0
   18.0430   19.5504    6.9867 H   0  0  0  0  0  0  0  0  0  0  0  0
   18.3205   17.4208    8.6550 H   0  0  0  0  0  0  0  0  0  0  0  0
   18.1424   17.2849    6.8522 H   0  0  0  0  0  0  0  0  0  0  0  0
   20.7897   16.6865    9.6902 H   0  0  0  0  0  0  0  0  0  0  0  0
   21.9522   14.5311   15.5124 H   0  0  0  0  0  0  0  0  0  0  0  0
   23.2361   16.7346   15.7372 H   0  0  0  0  0  0  0  0  0  0  0  0
   23.9539   18.7164   12.8656 H   0  0  0  0  0  0  0  0  0  0  0  0
   26.3265   17.8643   13.9988 H   0  0  0  0  0  0  0  0  0  0  0  0
   24.2901   18.6219   16.1650 H   0  0  0  0  0  0  0  0  0  0  0  0
   25.0620   17.0124   15.9420 H   0  0  0  0  0  0  0  0  0  0  0  0
   26.1652   18.3590   17.7236 H   0  0  0  0  0  0  0  0  0  0  0  0
   27.2693   17.9846   16.3393 H   0  0  0  0  0  0  0  0  0  0  0  0
   26.7075   21.5008   15.0566 H   0  0  0  0  0  0  0  0  0  0  0  0
   22.4967   15.7063    5.8581 H   0  0  0  0  0  0  0  0  0  0  0  0
  1  2  1  0
  2  3  1  0
  3  4  2  0
  4  5  1  0
  5  6  1  0
  6  7  2  0
  6  8  2  0
  6  9  1  0
  9 10  1  0
 10 11  2  0
 11 12  1  0
 12 13  2  0
 13 14  1  0
 14 15  2  0
 15 16  1  0
 16 17  1  0
 17 18  1  0
 18 19  1  0
 19 20  1  0
 20 21  2  0
 20 22  1  0
 22 23  1  0
 23 24  2  0
 15 25  1  0
 25 26  1  0
  5 27  1  0
 27 28  2  0
 28  3  1  0
 26  9  2  0
 25 11  1  0
 23 17  1  0
  1 29  1  0
  1 30  1  0
  1 31  1  0
  2 32  1  0
  2 33  1  0
  4 34  1  0
 13 35  1  0
 14 36  1  0
 16 37  1  0
 17 38  1  6
 18 39  1  0
 18 40  1  0
 19 41  1  0
 19 42  1  0
 22 43  1  0
 27 44  1  0
M  END
>  <meeko>  (1262) 
{"is_sidechain": [true], "free_energy": -10.15, "intermolecular_energy": 0.0, "internal_energy": -10.15, "cluster_size": 20, "cluster_id": 1, "rank_in_cluster": 1}

>  <_RMSD_MCS_to_ref>  (1262) 
0.5798675136040414

$$$$
ligand
     RDKit          3D

 59 63  0  0  0  0  0  0  0  0999 V2000
   18.7970   18.8170    7.7190 C   0  0  0  0  0  0  0  0  0  0  0  0
   18.5280   17.3290    7.8810 C   0  0  0  0  0  0  0  0  0  0  0  0
   19.7790   16.5250    7.8410 C   0  0  0  0  0  0  0  0  0  0  0  0
   20.4430   15.9000    8.8780 C   0  0  0  0  0  0  0  0  0  0  0  0
   21.5300   15.3250    8.2830 N   0  0  0  0  0  0  0  0  0  0  0  0
   22.5690   14.2150    8.9980 S   0  0  0  0  0  6  0  0  0  0  0  0
   23.8640   14.4300    8.3860 O   0  0  0  0  0  0  0  0  0  0  0  0
   21.8820   12.9400    8.9430 O   0  0  0  0  0  0  0  0  0  0  0  0
   22.6360   14.7530   10.6850 C   0  0  0  0  0  0  0  0  0  0  0  0
   21.8700   14.0760   11.6570 C   0  0  0  0  0  0  0  0  0  0  0  0
   21.8900   14.4930   12.9960 C   0  0  0  0  0  0  0  0  0  0  0  0
   21.0780   13.8020   13.9930 C   0  0  0  0  0  0  0  0  0  0  0  0
   19.7410   13.7150   13.9140 C   0  0  0  0  0  0  0  0  0  0  0  0
   18.8870   13.0150   14.9330 C   0  0  0  0  0  0  0  0  0  0  0  0
   17.5590   12.8840   14.2030 C   0  0  0  0  0  0  0  0  0  0  0  0
   17.4880   14.0870   13.3680 N   0  0  0  0  0  0  0  0  0  0  0  0
   18.8460   14.2640   12.8420 C   0  0  0  0  0  0  0  0  0  0  0  0
   22.6810   15.5830   13.3280 C   0  0  0  0  0  0  0  0  0  0  0  0
   23.4380   16.2270   12.3490 C   0  0  0  0  0  0  0  0  0  0  0  0
   23.4480   15.8390   11.0240 C   0  0  0  0  0  0  0  0  0  0  0  0
   24.1670   17.3290   12.9850 C   0  0  0  0  0  0  0  0  0  0  0  0
   24.9540   18.0590   12.4150 O   0  0  0  0  0  0  0  0  0  0  0  0
   23.7760   17.3560   14.3140 N   0  0  0  0  0  0  0  0  0  0  0  0
   24.4830   18.1520   15.3090 C   0  0  1  0  0  0  0  0  0  0  0  0
   25.7240   17.4460   15.8490 C   0  0  0  0  0  0  0  0  0  0  0  0
   26.3560   18.2970   16.9400 C   0  0  0  0  0  0  0  0  0  0  0  0
   26.6710   19.6860   16.4330 C   0  0  0  0  0  0  0  0  0  0  0  0
   27.6590   20.3120   16.8060 O   0  0  0  0  0  0  0  0  0  0  0  0
   25.7820   20.2320   15.5430 N   0  0  0  0  0  0  0  0  0  0  0  0
   24.8900   19.5310   14.7630 C   0  0  0  0  0  0  0  0  0  0  0  0
   24.4800   20.0080   13.7080 O   0  0  0  0  0  0  0  0  0  0  0  0
   22.9060   16.2360   14.6540 C   0  0  0  0  0  0  0  0  0  0  0  0
   21.4820   15.5630    6.9460 C   0  0  0  0  0  0  0  0  0  0  0  0
   20.4320   16.2970    6.6440 N   0  0  0  0  0  0  0  0  0  0  0  0
   18.8815   19.2845    8.7111 H   0  0  0  0  0  0  0  0  0  0  0  0
   19.7359   18.9616    7.1643 H   0  0  0  0  0  0  0  0  0  0  0  0
   17.9682   19.2812    7.1643 H   0  0  0  0  0  0  0  0  0  0  0  0
   18.0302   17.1620    8.8476 H   0  0  0  0  0  0  0  0  0  0  0  0
   17.8924   17.0072    7.0429 H   0  0  0  0  0  0  0  0  0  0  0  0
   20.1610   15.8716    9.9408 H   0  0  0  0  0  0  0  0  0  0  0  0
   21.2524   13.2146   11.3626 H   0  0  0  0  0  0  0  0  0  0  0  0
   21.5850   13.3311   14.8481 H   0  0  0  0  0  0  0  0  0  0  0  0
   19.3001   12.0284   15.1897 H   0  0  0  0  0  0  0  0  0  0  0  0
   18.8136   13.5507   15.8909 H   0  0  0  0  0  0  0  0  0  0  0  0
   17.5431   11.9763   13.5818 H   0  0  0  0  0  0  0  0  0  0  0  0
   16.7059   12.7982   14.8920 H   0  0  0  0  0  0  0  0  0  0  0  0
   16.8161   13.9547   12.5987 H   0  0  0  0  0  0  0  0  0  0  0  0
   18.9752   13.7044   11.9038 H   0  0  0  0  0  0  0  0  0  0  0  0
   19.0698   15.3156   12.6095 H   0  0  0  0  0  0  0  0  0  0  0  0
   24.0632   16.3577   10.2740 H   0  0  0  0  0  0  0  0  0  0  0  0
   23.7683   18.2873   16.1342 H   0  0  0  0  0  0  0  0  0  0  0  0
   25.4381   16.4688   16.2654 H   0  0  0  0  0  0  0  0  0  0  0  0
   26.4469   17.2991   15.0331 H   0  0  0  0  0  0  0  0  0  0  0  0
   25.6573   18.3733   17.7861 H   0  0  0  0  0  0  0  0  0  0  0  0
   27.2951   17.8191   17.2559 H   0  0  0  0  0  0  0  0  0  0  0  0
   25.7816   21.2578   15.4498 H   0  0  0  0  0  0  0  0  0  0  0  0
   23.4000   15.5485   15.3564 H   0  0  0  0  0  0  0  0  0  0  0  0
   21.9754   16.5414   15.1546 H   0  0  0  0  0  0  0  0  0  0  0  0
   22.2185   15.1935    6.2172 H   0  0  0  0  0  0  0  0  0  0  0  0
  1  2  1  0
  2  3  1  0
  3  4  2  0
  4  5  1  0
  5  6  1  0
  6  7  2  0
  6  8  2  0
  6  9  1  0
  9 10  2  0
 10 11  1  0
 11 12  1  0
 12 13  2  0
 13 14  1  0
 14 15  1  0
 15 16  1  0
 16 17  1  0
 11 18  2  0
 18 19  1  0
 19 20  2  0
 19 21  1  0
 21 22  2  0
 21 23  1  0
 23 24  1  0
 24 25  1  0
 25 26  1  0
 26 27  1  0
 27 28  2  0
 27 29  1  0
 29 30  1  0
 30 31  2  0
 23 32  1  0
  5 33  1  0
 33 34  2  0
 34  3  1  0
 20  9  1  0
 30 24  1  0
 17 13  1  0
 32 18  1  0
  1 35  1  0
  1 36  1  0
  1 37  1  0
  2 38  1  0
  2 39  1  0
  4 40  1  0
 10 41  1  0
 12 42  1  0
 14 43  1  0
 14 44  1  0
 15 45  1  0
 15 46  1  0
 16 47  1  0
 17 48  1  0
 17 49  1  0
 20 50  1  0
 24 51  1  1
 25 52  1  0
 25 53  1  0
 26 54  1  0
 26 55  1  0
 29 56  1  0
 32 57  1  0
 32 58  1  0
 33 59  1  0
M  END
>  <meeko>  (1263) 
{"is_sidechain": [true], "free_energy": -10.14, "intermolecular_energy": 0.0, "internal_energy": -10.14, "cluster_size": 18, "cluster_id": 1, "rank_in_cluster": 1}

>  <_RMSD_MCS_to_ref>  (1263) 
1.9404457105406363

$$$$
ligand
     RDKit          3D

 47 50  0  0  0  0  0  0  0  0999 V2000
   18.7970   18.8160    7.7190 C   0  0  0  0  0  0  0  0  0  0  0  0
   18.5280   17.3300    7.8810 C   0  0  0  0  0  0  0  0  0  0  0  0
   19.7640   16.5650    8.1960 C   0  0  0  0  0  0  0  0  0  0  0  0
   20.4870   16.5340    9.3720 C   0  0  0  0  0  0  0  0  0  0  0  0
   21.5010   15.6600    9.1200 N   0  0  0  0  0  0  0  0  0  0  0  0
   22.6580   15.1130   10.2060 S   0  0  0  0  0  6  0  0  0  0  0  0
   22.4320   15.9020   11.4050 O   0  0  0  0  0  0  0  0  0  0  0  0
   22.5590   13.6660   10.2400 O   0  0  0  0  0  0  0  0  0  0  0  0
   24.2160   15.6030    9.5060 C   0  0  0  0  0  0  0  0  0  0  0  0
   24.3620   15.4950    8.1110 C   0  0  0  0  0  0  0  0  0  0  0  0
   25.5650   15.8500    7.4990 C   0  0  0  0  0  0  0  0  0  0  0  0
   26.6250   16.3170    8.2690 C   0  0  0  0  0  0  0  0  0  0  0  0
   26.4800   16.4390    9.6520 C   0  0  0  0  0  0  0  0  0  0  0  0
   25.2730   16.0940   10.2840 C   0  0  0  0  0  0  0  0  0  0  0  0
   25.2070   16.2680   11.7110 C   0  0  0  0  0  0  0  0  0  0  0  0
   25.5700   17.3990   12.4030 C   0  0  0  0  0  0  0  0  0  0  0  0
   25.3100   17.0750   13.7010 N   0  0  0  0  0  0  0  0  0  0  0  0
   25.4040   17.9340   14.8660 C   0  0  1  0  0  0  0  0  0  0  0  0
   26.5060   17.4850   15.8310 C   0  0  0  0  0  0  0  0  0  0  0  0
   26.5820   18.4460   17.0070 C   0  0  0  0  0  0  0  0  0  0  0  0
   26.8150   19.8610   16.5360 C   0  0  0  0  0  0  0  0  0  0  0  0
   27.2860   20.7280   17.2650 O   0  0  0  0  0  0  0  0  0  0  0  0
   26.3850   20.1590   15.2660 N   0  0  0  0  0  0  0  0  0  0  0  0
   25.5950   19.3820   14.4490 C   0  0  0  0  0  0  0  0  0  0  0  0
   25.0120   19.8940   13.4950 O   0  0  0  0  0  0  0  0  0  0  0  0
   24.8490   15.8120   13.8060 N   0  0  0  0  0  0  0  0  0  0  0  0
   24.7940   15.3030   12.5830 N   0  0  0  0  0  0  0  0  0  0  0  0
   21.3890   15.2020    7.8460 C   0  0  0  0  0  0  0  0  0  0  0  0
   20.3420   15.7360    7.2530 N   0  0  0  0  0  0  0  0  0  0  0  0
   18.8816   19.2836    8.7111 H   0  0  0  0  0  0  0  0  0  0  0  0
   19.7359   18.9603    7.1643 H   0  0  0  0  0  0  0  0  0  0  0  0
   17.9683   19.2803    7.1643 H   0  0  0  0  0  0  0  0  0  0  0  0
   17.8058   17.1880    8.6985 H   0  0  0  0  0  0  0  0  0  0  0  0
   18.1323   16.9530    6.9264 H   0  0  0  0  0  0  0  0  0  0  0  0
   20.2891   17.0888   10.3010 H   0  0  0  0  0  0  0  0  0  0  0  0
   23.5240   15.1290    7.4996 H   0  0  0  0  0  0  0  0  0  0  0  0
   25.6748   15.7605    6.4082 H   0  0  0  0  0  0  0  0  0  0  0  0
   27.5763   16.5898    7.7888 H   0  0  0  0  0  0  0  0  0  0  0  0
   27.3217   16.8101   10.2552 H   0  0  0  0  0  0  0  0  0  0  0  0
   25.9741   18.3411   12.0041 H   0  0  0  0  0  0  0  0  0  0  0  0
   24.4527   17.8510   15.4120 H   0  0  0  0  0  0  0  0  0  0  0  0
   26.2792   16.4737   16.1996 H   0  0  0  0  0  0  0  0  0  0  0  0
   27.4712   17.4787   15.3034 H   0  0  0  0  0  0  0  0  0  0  0  0
   25.6361   18.4046   17.5669 H   0  0  0  0  0  0  0  0  0  0  0  0
   27.4238   18.1476   17.6492 H   0  0  0  0  0  0  0  0  0  0  0  0
   26.6875   21.0655   14.8818 H   0  0  0  0  0  0  0  0  0  0  0  0
   22.0774   14.4847    7.3753 H   0  0  0  0  0  0  0  0  0  0  0  0
  1  2  1  0
  2  3  1  0
  3  4  2  0
  4  5  1  0
  5  6  1  0
  6  7  2  0
  6  8  2  0
  6  9  1  0
  9 10  2  0
 10 11  1  0
 11 12  2  0
 12 13  1  0
 13 14  2  0
 14 15  1  0
 15 16  2  0
 16 17  1  0
 17 18  1  0
 18 19  1  0
 19 20  1  0
 20 21  1  0
 21 22  2  0
 21 23  1  0
 23 24  1  0
 24 25  2  0
 17 26  1  0
 26 27  2  0
  5 28  1  0
 28 29  2  0
 29  3  1  0
 14  9  1  0
 27 15  1  0
 24 18  1  0
  1 30  1  0
  1 31  1  0
  1 32  1  0
  2 33  1  0
  2 34  1  0
  4 35  1  0
 10 36  1  0
 11 37  1  0
 12 38  1  0
 13 39  1  0
 16 40  1  0
 18 41  1  1
 19 42  1  0
 19 43  1  0
 20 44  1  0
 20 45  1  0
 23 46  1  0
 28 47  1  0
M  END
>  <meeko>  (1264) 
{"is_sidechain": [true], "free_energy": -10.14, "intermolecular_energy": 0.0, "internal_energy": -10.14, "cluster_size": 6, "cluster_id": 1, "rank_in_cluster": 1}

>  <_RMSD_MCS_to_ref>  (1264) 
0.3930055131080645

$$$$
ligand
     RDKit          3D

 50 53  0  0  0  0  0  0  0  0999 V2000
   18.7970   18.8170    7.7190 C   0  0  0  0  0  0  0  0  0  0  0  0
   18.5280   17.3290    7.8810 C   0  0  0  0  0  0  0  0  0  0  0  0
   19.6470   16.4960    7.3640 C   0  0  0  0  0  0  0  0  0  0  0  0
   20.8340   16.1540    7.9820 C   0  0  0  0  0  0  0  0  0  0  0  0
   21.4890   15.3970    7.0540 N   0  0  0  0  0  0  0  0  0  0  0  0
   22.8910   14.5100    7.3200 S   0  0  0  0  0  6  0  0  0  0  0  0
   22.7010   13.2520    6.6220 O   0  0  0  0  0  0  0  0  0  0  0  0
   23.9920   15.4050    7.0260 O   0  0  0  0  0  0  0  0  0  0  0  0
   22.8610   14.2030    9.0660 C   0  0  0  0  0  0  0  0  0  0  0  0
   21.9520   13.2830    9.5920 C   0  0  0  0  0  0  0  0  0  0  0  0
   21.9350   13.0450   10.9670 C   0  0  0  0  0  0  0  0  0  0  0  0
   22.8300   13.7180   11.8190 C   0  0  0  0  0  0  0  0  0  0  0  0
   22.8510   13.5140   13.2020 C   0  0  0  0  0  0  0  0  0  0  0  0
   23.6960   14.1360   14.0560 N   0  0  0  0  0  0  0  0  0  0  0  0
   24.5750   15.0130   13.5000 C   0  0  0  0  0  0  0  0  0  0  0  0
   25.5050   15.7050   14.4500 C   0  0  0  0  0  0  0  0  0  0  0  0
   26.2400   15.0780   15.2050 O   0  0  0  0  0  0  0  0  0  0  0  0
   25.4700   17.0800   14.3870 N   0  0  0  0  0  0  0  0  0  0  0  0
   26.4080   17.9200   15.1070 C   0  0  2  0  0  0  0  0  0  0  0  0
   26.2730   17.7610   16.6180 C   0  0  0  0  0  0  0  0  0  0  0  0
   27.2660   18.6770   17.3160 C   0  0  0  0  0  0  0  0  0  0  0  0
   27.0850   20.1120   16.8850 C   0  0  0  0  0  0  0  0  0  0  0  0
   27.2880   21.0580   17.6410 O   0  0  0  0  0  0  0  0  0  0  0  0
   26.7110   20.3200   15.5810 N   0  0  0  0  0  0  0  0  0  0  0  0
   26.1650   19.3870   14.7340 C   0  0  0  0  0  0  0  0  0  0  0  0
   25.5430   19.7350   13.7310 O   0  0  0  0  0  0  0  0  0  0  0  0
   24.6440   15.2920   12.1420 C   0  0  0  0  0  0  0  0  0  0  0  0
   23.7560   14.6370   11.2800 C   0  0  0  0  0  0  0  0  0  0  0  0
   23.7680   14.8710    9.8960 C   0  0  0  0  0  0  0  0  0  0  0  0
   20.7030   15.2600    5.9560 C   0  0  0  0  0  0  0  0  0  0  0  0
   19.5760   15.9250    6.1080 N   0  0  0  0  0  0  0  0  0  0  0  0
   18.8815   19.2845    8.7111 H   0  0  0  0  0  0  0  0  0  0  0  0
   19.7359   18.9616    7.1643 H   0  0  0  0  0  0  0  0  0  0  0  0
   17.9682   19.2812    7.1643 H   0  0  0  0  0  0  0  0  0  0  0  0
   18.3868   17.1088    8.9494 H   0  0  0  0  0  0  0  0  0  0  0  0
   17.6274   17.0834    7.2991 H   0  0  0  0  0  0  0  0  0  0  0  0
   21.1738   16.4289    8.9914 H   0  0  0  0  0  0  0  0  0  0  0  0
   21.2551   12.7503    8.9282 H   0  0  0  0  0  0  0  0  0  0  0  0
   21.2167   12.3260   11.3878 H   0  0  0  0  0  0  0  0  0  0  0  0
   22.1307   12.7983   13.6250 H   0  0  0  0  0  0  0  0  0  0  0  0
   24.7489   17.5301   13.8053 H   0  0  0  0  0  0  0  0  0  0  0  0
   27.4239   17.6091   14.8218 H   0  0  0  0  0  0  0  0  0  0  0  0
   25.2507   18.0273   16.9246 H   0  0  0  0  0  0  0  0  0  0  0  0
   26.4797   16.7170   16.8962 H   0  0  0  0  0  0  0  0  0  0  0  0
   27.1144   18.6076   18.4033 H   0  0  0  0  0  0  0  0  0  0  0  0
   28.2830   18.3584   17.0437 H   0  0  0  0  0  0  0  0  0  0  0  0
   26.8535   21.2667   15.2011 H   0  0  0  0  0  0  0  0  0  0  0  0
   25.3794   16.0111   11.7520 H   0  0  0  0  0  0  0  0  0  0  0  0
   24.4903   15.5793    9.4641 H   0  0  0  0  0  0  0  0  0  0  0  0
   20.9699   14.6751    5.0634 H   0  0  0  0  0  0  0  0  0  0  0  0
  1  2  1  0
  2  3  1  0
  3  4  2  0
  4  5  1  0
  5  6  1  0
  6  7  2  0
  6  8  2  0
  6  9  1  0
  9 10  2  0
 10 11  1  0
 11 12  2  0
 12 13  1  0
 13 14  2  0
 14 15  1  0
 15 16  1  0
 16 17  2  0
 16 18  1  0
 18 19  1  0
 19 20  1  0
 20 21  1  0
 21 22  1  0
 22 23  2  0
 22 24  1  0
 24 25  1  0
 25 26  2  0
 15 27  2  0
 27 28  1  0
 28 29  2  0
  5 30  1  0
 30 31  2  0
 31  3  1  0
 29  9  1  0
 28 12  1  0
 25 19  1  0
  1 32  1  0
  1 33  1  0
  1 34  1  0
  2 35  1  0
  2 36  1  0
  4 37  1  0
 10 38  1  0
 11 39  1  0
 13 40  1  0
 18 41  1  0
 19 42  1  6
 20 43  1  0
 20 44  1  0
 21 45  1  0
 21 46  1  0
 24 47  1  0
 27 48  1  0
 29 49  1  0
 30 50  1  0
M  END
>  <meeko>  (1265) 
{"is_sidechain": [true], "free_energy": -10.14, "intermolecular_energy": 0.0, "internal_energy": -10.14, "cluster_size": 11, "cluster_id": 1, "rank_in_cluster": 1}

>  <_RMSD_MCS_to_ref>  (1265) 
0.8397117230203329

$$$$
ligand
     RDKit          3D

 49 52  0  0  0  0  0  0  0  0999 V2000
   18.7970   18.8170    7.7190 C   0  0  0  0  0  0  0  0  0  0  0  0
   18.5280   17.3290    7.8810 C   0  0  0  0  0  0  0  0  0  0  0  0
   19.7770   16.5520    8.1020 C   0  0  0  0  0  0  0  0  0  0  0  0
   20.2850   16.0450    9.2830 C   0  0  0  0  0  0  0  0  0  0  0  0
   21.4370   15.4160    8.9080 N   0  0  0  0  0  0  0  0  0  0  0  0
   22.4970   14.6040    9.9240 S   0  0  0  0  0  6  0  0  0  0  0  0
   21.8680   13.3020   10.0780 O   0  0  0  0  0  0  0  0  0  0  0  0
   22.7280   15.4810   11.0580 O   0  0  0  0  0  0  0  0  0  0  0  0
   24.0130   14.4290    9.0220 C   0  0  0  0  0  0  0  0  0  0  0  0
   23.8680   13.6280    7.9190 N   0  0  0  0  0  0  0  0  0  0  0  0
   24.9660   13.4190    7.1800 C   0  0  0  0  0  0  0  0  0  0  0  0
   26.1900   13.9750    7.4890 C   0  0  0  0  0  0  0  0  0  0  0  0
   26.3000   14.7950    8.6230 C   0  0  0  0  0  0  0  0  0  0  0  0
   27.5320   15.3760    8.9480 C   0  0  0  0  0  0  0  0  0  0  0  0
   27.6440   16.1950   10.0620 C   0  0  0  0  0  0  0  0  0  0  0  0
   26.5100   16.4030   10.8270 C   0  0  0  0  0  0  0  0  0  0  0  0
   26.5940   17.3090   12.0200 C   0  0  0  0  0  0  0  0  0  0  0  0
   27.5220   18.0960   12.1660 O   0  0  0  0  0  0  0  0  0  0  0  0
   25.5570   17.1900   12.9070 N   0  0  0  0  0  0  0  0  0  0  0  0
   25.4180   17.9970   14.1050 C   0  0  1  0  0  0  0  0  0  0  0  0
   26.3720   17.5350   15.2010 C   0  0  0  0  0  0  0  0  0  0  0  0
   26.2220   18.4300   16.4190 C   0  0  0  0  0  0  0  0  0  0  0  0
   26.4490   19.8810   16.0650 C   0  0  0  0  0  0  0  0  0  0  0  0
   26.9090   20.6870   16.8680 O   0  0  0  0  0  0  0  0  0  0  0  0
   26.0630   20.2740   14.8090 N   0  0  0  0  0  0  0  0  0  0  0  0
   25.6990   19.4660   13.7590 C   0  0  0  0  0  0  0  0  0  0  0  0
   25.5680   19.9290   12.6260 O   0  0  0  0  0  0  0  0  0  0  0  0
   25.2920   15.8480   10.5480 N   0  0  0  0  0  0  0  0  0  0  0  0
   25.1820   15.0510    9.4510 C   0  0  0  0  0  0  0  0  0  0  0  0
   21.6470   15.6250    7.5830 C   0  0  0  0  0  0  0  0  0  0  0  0
   20.6230   16.2620    7.0490 N   0  0  0  0  0  0  0  0  0  0  0  0
   18.8815   19.2845    8.7111 H   0  0  0  0  0  0  0  0  0  0  0  0
   19.7359   18.9616    7.1643 H   0  0  0  0  0  0  0  0  0  0  0  0
   17.9682   19.2812    7.1643 H   0  0  0  0  0  0  0  0  0  0  0  0
   17.8619   17.1815    8.7439 H   0  0  0  0  0  0  0  0  0  0  0  0
   18.0655   16.9667    6.9510 H   0  0  0  0  0  0  0  0  0  0  0  0
   19.8587   16.1290   10.2936 H   0  0  0  0  0  0  0  0  0  0  0  0
   24.8881   12.7774    6.2899 H   0  0  0  0  0  0  0  0  0  0  0  0
   27.0676   13.7785    6.8556 H   0  0  0  0  0  0  0  0  0  0  0  0
   28.4130   15.1825    8.3184 H   0  0  0  0  0  0  0  0  0  0  0  0
   28.6028   16.6637   10.3284 H   0  0  0  0  0  0  0  0  0  0  0  0
   24.8319   16.4850   12.7118 H   0  0  0  0  0  0  0  0  0  0  0  0
   24.3907   17.8859   14.4822 H   0  0  0  0  0  0  0  0  0  0  0  0
   26.1356   16.4971   15.4783 H   0  0  0  0  0  0  0  0  0  0  0  0
   27.4067   17.5915   14.8318 H   0  0  0  0  0  0  0  0  0  0  0  0
   25.2063   18.3149   16.8254 H   0  0  0  0  0  0  0  0  0  0  0  0
   26.9750   18.1323   17.1636 H   0  0  0  0  0  0  0  0  0  0  0  0
   26.0438   21.2887   14.6331 H   0  0  0  0  0  0  0  0  0  0  0  0
   22.5448   15.3077    7.0324 H   0  0  0  0  0  0  0  0  0  0  0  0
  1  2  1  0
  2  3  1  0
  3  4  2  0
  4  5  1  0
  5  6  1  0
  6  7  2  0
  6  8  2  0
  6  9  1  0
  9 10  2  0
 10 11  1  0
 11 12  2  0
 12 13  1  0
 13 14  2  0
 14 15  1  0
 15 16  2  0
 16 17  1  0
 17 18  2  0
 17 19  1  0
 19 20  1  0
 20 21  1  0
 21 22  1  0
 22 23  1  0
 23 24  2  0
 23 25  1  0
 25 26  1  0
 26 27  2  0
 16 28  1  0
 28 29  2  0
  5 30  1  0
 30 31  2  0
 31  3  1  0
 29  9  1  0
 29 13  1  0
 26 20  1  0
  1 32  1  0
  1 33  1  0
  1 34  1  0
  2 35  1  0
  2 36  1  0
  4 37  1  0
 11 38  1  0
 12 39  1  0
 14 40  1  0
 15 41  1  0
 19 42  1  0
 20 43  1  1
 21 44  1  0
 21 45  1  0
 22 46  1  0
 22 47  1  0
 25 48  1  0
 30 49  1  0
M  END
>  <meeko>  (1266) 
{"is_sidechain": [true], "free_energy": -10.14, "intermolecular_energy": 0.0, "internal_energy": -10.14, "cluster_size": 11, "cluster_id": 1, "rank_in_cluster": 1}

>  <_RMSD_MCS_to_ref>  (1266) 
0.90114852641874

$$$$
ligand
     RDKit          3D

 49 52  0  0  0  0  0  0  0  0999 V2000
   18.7970   18.8170    7.7190 C   0  0  0  0  0  0  0  0  0  0  0  0
   18.5280   17.3290    7.8810 C   0  0  0  0  0  0  0  0  0  0  0  0
   19.6680   16.4970    7.4100 C   0  0  0  0  0  0  0  0  0  0  0  0
   20.8630   16.2200    8.0460 C   0  0  0  0  0  0  0  0  0  0  0  0
   21.5370   15.4270    7.1640 N   0  0  0  0  0  0  0  0  0  0  0  0
   22.9530   14.5800    7.4800 S   0  0  0  0  0  6  0  0  0  0  0  0
   22.8350   13.3350    6.7460 O   0  0  0  0  0  0  0  0  0  0  0  0
   24.0410   15.5130    7.2610 O   0  0  0  0  0  0  0  0  0  0  0  0
   22.8580   14.2290    9.2130 C   0  0  0  0  0  0  0  0  0  0  0  0
   21.9140   13.3190    9.6890 C   0  0  0  0  0  0  0  0  0  0  0  0
   21.8600   13.0560   11.0550 C   0  0  0  0  0  0  0  0  0  0  0  0
   22.7550   13.7020   11.9310 C   0  0  0  0  0  0  0  0  0  0  0  0
   22.7640   13.4960   13.3050 C   0  0  0  0  0  0  0  0  0  0  0  0
   23.6150   14.1060   14.1500 N   0  0  0  0  0  0  0  0  0  0  0  0
   24.4890   14.9590   13.5690 C   0  0  0  0  0  0  0  0  0  0  0  0
   25.4480   15.6700   14.4970 C   0  0  0  0  0  0  0  0  0  0  0  0
   26.2300   15.0740   15.2310 O   0  0  0  0  0  0  0  0  0  0  0  0
   25.3880   17.0530   14.4450 N   0  0  0  0  0  0  0  0  0  0  0  0
   26.3490   17.8960   15.1340 C   0  0  2  0  0  0  0  0  0  0  0  0
   26.2560   17.7500   16.6490 C   0  0  0  0  0  0  0  0  0  0  0  0
   27.2670   18.6740   17.3110 C   0  0  0  0  0  0  0  0  0  0  0  0
   27.0720   20.1050   16.8720 C   0  0  0  0  0  0  0  0  0  0  0  0
   27.2850   21.0580   17.6160 O   0  0  0  0  0  0  0  0  0  0  0  0
   26.6680   20.3000   15.5750 N   0  0  0  0  0  0  0  0  0  0  0  0
   26.0930   19.3590   14.7570 C   0  0  0  0  0  0  0  0  0  0  0  0
   25.4290   19.6940   13.7760 O   0  0  0  0  0  0  0  0  0  0  0  0
   24.5720   15.2370   12.2530 N   0  0  0  0  0  0  0  0  0  0  0  0
   23.7110   14.6080   11.4500 C   0  0  0  0  0  0  0  0  0  0  0  0
   23.7540   14.8560   10.0880 C   0  0  0  0  0  0  0  0  0  0  0  0
   20.7570   15.2120    6.0730 C   0  0  0  0  0  0  0  0  0  0  0  0
   19.6150   15.8570    6.1870 N   0  0  0  0  0  0  0  0  0  0  0  0
   18.8815   19.2845    8.7111 H   0  0  0  0  0  0  0  0  0  0  0  0
   19.7359   18.9616    7.1643 H   0  0  0  0  0  0  0  0  0  0  0  0
   17.9682   19.2812    7.1643 H   0  0  0  0  0  0  0  0  0  0  0  0
   18.3493   17.1152    8.9451 H   0  0  0  0  0  0  0  0  0  0  0  0
   17.6498   17.0761    7.2687 H   0  0  0  0  0  0  0  0  0  0  0  0
   21.1952   16.5612    9.0376 H   0  0  0  0  0  0  0  0  0  0  0  0
   21.2230   12.8170    8.9958 H   0  0  0  0  0  0  0  0  0  0  0  0
   21.1196   12.3448   11.4500 H   0  0  0  0  0  0  0  0  0  0  0  0
   22.0316   12.7922   13.7272 H   0  0  0  0  0  0  0  0  0  0  0  0
   24.6365   17.4984   13.8993 H   0  0  0  0  0  0  0  0  0  0  0  0
   27.3565   17.5807   14.8248 H   0  0  0  0  0  0  0  0  0  0  0  0
   25.2422   18.0176   16.9815 H   0  0  0  0  0  0  0  0  0  0  0  0
   26.4717   16.7088   16.9307 H   0  0  0  0  0  0  0  0  0  0  0  0
   27.1457   18.6144   18.4027 H   0  0  0  0  0  0  0  0  0  0  0  0
   28.2765   18.3541   17.0135 H   0  0  0  0  0  0  0  0  0  0  0  0
   26.8093   21.2399   15.1782 H   0  0  0  0  0  0  0  0  0  0  0  0
   24.5027   15.5555    9.6878 H   0  0  0  0  0  0  0  0  0  0  0  0
   21.0401   14.5861    5.2139 H   0  0  0  0  0  0  0  0  0  0  0  0
  1  2  1  0
  2  3  1  0
  3  4  2  0
  4  5  1  0
  5  6  1  0
  6  7  2  0
  6  8  2  0
  6  9  1  0
  9 10  2  0
 10 11  1  0
 11 12  2  0
 12 13  1  0
 13 14  2  0
 14 15  1  0
 15 16  1  0
 16 17  2  0
 16 18  1  0
 18 19  1  0
 19 20  1  0
 20 21  1  0
 21 22  1  0
 22 23  2  0
 22 24  1  0
 24 25  1  0
 25 26  2  0
 15 27  2  0
 27 28  1  0
 28 29  2  0
  5 30  1  0
 30 31  2  0
 31  3  1  0
 29  9  1  0
 28 12  1  0
 25 19  1  0
  1 32  1  0
  1 33  1  0
  1 34  1  0
  2 35  1  0
  2 36  1  0
  4 37  1  0
 10 38  1  0
 11 39  1  0
 13 40  1  0
 18 41  1  0
 19 42  1  6
 20 43  1  0
 20 44  1  0
 21 45  1  0
 21 46  1  0
 24 47  1  0
 29 48  1  0
 30 49  1  0
M  END
>  <meeko>  (1267) 
{"is_sidechain": [true], "free_energy": -10.14, "intermolecular_energy": 0.0, "internal_energy": -10.14, "cluster_size": 15, "cluster_id": 1, "rank_in_cluster": 1}

>  <_RMSD_MCS_to_ref>  (1267) 
0.8146172925572674

$$$$
ligand
     RDKit          3D

 51 54  0  0  0  0  0  0  0  0999 V2000
   18.7970   18.8170    7.7190 C   0  0  0  0  0  0  0  0  0  0  0  0
   18.5280   17.3290    7.8810 C   0  0  0  0  0  0  0  0  0  0  0  0
   19.7840   16.5290    7.8820 C   0  0  0  0  0  0  0  0  0  0  0  0
   20.5020   16.0410    8.9550 C   0  0  0  0  0  0  0  0  0  0  0  0
   21.5710   15.4110    8.3850 N   0  0  0  0  0  0  0  0  0  0  0  0
   22.6680   14.4220    9.1870 S   0  0  0  0  0  6  0  0  0  0  0  0
   23.9590   15.0640    9.0300 O   0  0  0  0  0  0  0  0  0  0  0  0
   22.4090   13.0750    8.7200 O   0  0  0  0  0  0  0  0  0  0  0  0
   22.1710   14.5390   10.8760 C   0  0  0  0  0  0  0  0  0  0  0  0
   23.0250   15.1920   11.7650 C   0  0  0  0  0  0  0  0  0  0  0  0
   22.6470   15.2470   13.0950 C   0  0  0  0  0  0  0  0  0  0  0  0
   23.5350   15.9130   14.0990 C   0  0  0  0  0  0  0  0  0  0  0  0
   24.0640   15.2780   15.0030 O   0  0  0  0  0  0  0  0  0  0  0  0
   23.6830   17.2690   13.9260 N   0  0  0  0  0  0  0  0  0  0  0  0
   24.3680   18.1130   14.8870 C   0  0  1  0  0  0  0  0  0  0  0  0
   25.5900   17.4250   15.4840 C   0  0  0  0  0  0  0  0  0  0  0  0
   26.2760   18.3670   16.4620 C   0  0  0  0  0  0  0  0  0  0  0  0
   26.6360   19.6760   15.8010 C   0  0  0  0  0  0  0  0  0  0  0  0
   27.6360   20.3170   16.1100 O   0  0  0  0  0  0  0  0  0  0  0  0
   25.7660   20.1430   14.8480 N   0  0  0  0  0  0  0  0  0  0  0  0
   24.8090   19.4060   14.1930 C   0  0  0  0  0  0  0  0  0  0  0  0
   24.3380   19.7920   13.1230 O   0  0  0  0  0  0  0  0  0  0  0  0
   21.4930   14.7130   13.5780 N   0  0  0  0  0  0  0  0  0  0  0  0
   20.6750   14.1110   12.7000 C   0  0  0  0  0  0  0  0  0  0  0  0
   20.9720   13.9900   11.3320 C   0  0  0  0  0  0  0  0  0  0  0  0
   20.0550   13.3280   10.4950 N   0  0  0  0  0  0  0  0  0  0  0  0
   18.9580   12.6520   10.9820 C   0  0  0  0  0  0  0  0  0  0  0  0
   18.1830   12.0830   10.2150 O   0  0  0  0  0  0  0  0  0  0  0  0
   18.8330   12.5590   12.5060 C   0  0  0  0  0  0  0  0  0  0  0  0
   19.4530   13.6820   13.2010 N   0  0  0  0  0  0  0  0  0  0  0  0
   21.4610   15.4840    7.0330 C   0  0  0  0  0  0  0  0  0  0  0  0
   20.3850   16.1620    6.6950 N   0  0  0  0  0  0  0  0  0  0  0  0
   18.8815   19.2845    8.7111 H   0  0  0  0  0  0  0  0  0  0  0  0
   19.7359   18.9616    7.1643 H   0  0  0  0  0  0  0  0  0  0  0  0
   17.9682   19.2812    7.1643 H   0  0  0  0  0  0  0  0  0  0  0  0
   18.0026   17.1653    8.8334 H   0  0  0  0  0  0  0  0  0  0  0  0
   17.9180   17.0003    7.0267 H   0  0  0  0  0  0  0  0  0  0  0  0
   20.2667   16.1376   10.0252 H   0  0  0  0  0  0  0  0  0  0  0  0
   23.9655   15.6470   11.4209 H   0  0  0  0  0  0  0  0  0  0  0  0
   23.2911   17.7039   13.0785 H   0  0  0  0  0  0  0  0  0  0  0  0
   23.6677   18.3277   15.7077 H   0  0  0  0  0  0  0  0  0  0  0  0
   25.2755   16.5131   16.0128 H   0  0  0  0  0  0  0  0  0  0  0  0
   26.2906   17.1591   14.6788 H   0  0  0  0  0  0  0  0  0  0  0  0
   25.5972   18.5656   17.3044 H   0  0  0  0  0  0  0  0  0  0  0  0
   27.2022   17.8889   16.8134 H   0  0  0  0  0  0  0  0  0  0  0  0
   25.8371   21.1402   14.6003 H   0  0  0  0  0  0  0  0  0  0  0  0
   20.2102   13.3497    9.4770 H   0  0  0  0  0  0  0  0  0  0  0  0
   17.7652   12.5313   12.7686 H   0  0  0  0  0  0  0  0  0  0  0  0
   19.3591   11.6464   12.8230 H   0  0  0  0  0  0  0  0  0  0  0  0
   19.0102   14.1304   14.0157 H   0  0  0  0  0  0  0  0  0  0  0  0
   22.1715   15.0389    6.3209 H   0  0  0  0  0  0  0  0  0  0  0  0
  1  2  1  0
  2  3  1  0
  3  4  2  0
  4  5  1  0
  5  6  1  0
  6  7  2  0
  6  8  2  0
  6  9  1  0
  9 10  2  0
 10 11  1  0
 11 12  1  0
 12 13  2  0
 12 14  1  0
 14 15  1  0
 15 16  1  0
 16 17  1  0
 17 18  1  0
 18 19  2  0
 18 20  1  0
 20 21  1  0
 21 22  2  0
 11 23  2  0
 23 24  1  0
 24 25  2  0
 25 26  1  0
 26 27  1  0
 27 28  2  0
 27 29  1  0
 29 30  1  0
  5 31  1  0
 31 32  2  0
 32  3  1  0
 25  9  1  0
 21 15  1  0
 30 24  1  0
  1 33  1  0
  1 34  1  0
  1 35  1  0
  2 36  1  0
  2 37  1  0
  4 38  1  0
 10 39  1  0
 14 40  1  0
 15 41  1  1
 16 42  1  0
 16 43  1  0
 17 44  1  0
 17 45  1  0
 20 46  1  0
 26 47  1  0
 29 48  1  0
 29 49  1  0
 30 50  1  0
 31 51  1  0
M  END
>  <meeko>  (1268) 
{"is_sidechain": [true], "free_energy": -10.14, "intermolecular_energy": 0.0, "internal_energy": -10.14, "cluster_size": 17, "cluster_id": 1, "rank_in_cluster": 1}

>  <_RMSD_MCS_to_ref>  (1268) 
0.8562234261894243

$$$$
ligand
     RDKit          3D

 54 58  0  0  0  0  0  0  0  0999 V2000
   18.7970   18.8170    7.7190 C   0  0  0  0  0  0  0  0  0  0  0  0
   18.5280   17.3290    7.8810 C   0  0  0  0  0  0  0  0  0  0  0  0
   19.7600   16.5700    8.2260 C   0  0  0  0  0  0  0  0  0  0  0  0
   20.0950   15.9470    9.4120 C   0  0  0  0  0  0  0  0  0  0  0  0
   21.3150   15.3840    9.1640 N   0  0  0  0  0  0  0  0  0  0  0  0
   22.3260   14.6920   10.3110 S   0  0  0  0  0  6  0  0  0  0  0  0
   22.9610   13.5450    9.6930 O   0  0  0  0  0  0  0  0  0  0  0  0
   23.1140   15.8140   10.7930 O   0  0  0  0  0  0  0  0  0  0  0  0
   21.2800   14.1280   11.6290 C   0  0  0  0  0  0  0  0  0  0  0  0
   19.9930   13.6880   11.2500 C   0  0  0  0  0  0  0  0  0  0  0  0
   19.1030   13.1690   12.1820 C   0  0  0  0  0  0  0  0  0  0  0  0
   19.4670   13.0680   13.5200 C   0  0  0  0  0  0  0  0  0  0  0  0
   20.7370   13.5220   13.8950 C   0  0  0  0  0  0  0  0  0  0  0  0
   21.3040   13.5270   15.1490 N   0  0  0  0  0  0  0  0  0  0  0  0
   22.5470   14.0780   15.0990 C   0  0  0  0  0  0  0  0  0  0  0  0
   22.8090   14.4370   13.7920 C   0  0  0  0  0  0  0  0  0  0  0  0
   24.0520   15.1140   13.4790 C   0  0  0  0  0  0  0  0  0  0  0  0
   24.8080   14.7150   12.3770 C   0  0  0  0  0  0  0  0  0  0  0  0
   26.0210   15.3420   12.1100 C   0  0  0  0  0  0  0  0  0  0  0  0
   26.4850   16.3610   12.9480 C   0  0  0  0  0  0  0  0  0  0  0  0
   25.7540   16.7740   14.0710 C   0  0  0  0  0  0  0  0  0  0  0  0
   26.2230   17.8390   14.9140 N   0  0  0  0  0  0  0  0  0  0  0  0
   26.5960   17.5520   16.2980 C   0  0  0  0  0  0  0  0  0  0  0  0
   26.1760   18.6820   17.2150 C   0  0  0  0  0  0  0  0  0  0  0  0
   26.7400   19.9690   16.6970 C   0  0  0  0  0  0  0  0  0  0  0  0
   26.9240   20.9470   17.4160 O   0  0  0  0  0  0  0  0  0  0  0  0
   26.9590   20.0210   15.3480 N   0  0  0  0  0  0  0  0  0  0  0  0
   26.5220   19.1110   14.4150 C   0  0  0  0  0  0  0  0  0  0  0  0
   26.4430   19.4800   13.2450 O   0  0  0  0  0  0  0  0  0  0  0  0
   24.5340   16.1250   14.3240 C   0  0  0  0  0  0  0  0  0  0  0  0
   21.6680   14.0710   12.9950 C   0  0  0  0  0  0  0  0  0  0  0  0
   21.7250   15.7520    7.9230 C   0  0  0  0  0  0  0  0  0  0  0  0
   20.7830   16.4370    7.3070 N   0  0  0  0  0  0  0  0  0  0  0  0
   18.8815   19.2845    8.7111 H   0  0  0  0  0  0  0  0  0  0  0  0
   19.7359   18.9616    7.1643 H   0  0  0  0  0  0  0  0  0  0  0  0
   17.9682   19.2812    7.1643 H   0  0  0  0  0  0  0  0  0  0  0  0
   17.7886   17.1879    8.6831 H   0  0  0  0  0  0  0  0  0  0  0  0
   18.1536   16.9467    6.9199 H   0  0  0  0  0  0  0  0  0  0  0  0
   19.5122   15.9120   10.3443 H   0  0  0  0  0  0  0  0  0  0  0  0
   19.6888   13.7576   10.1952 H   0  0  0  0  0  0  0  0  0  0  0  0
   18.1053   12.8363   11.8597 H   0  0  0  0  0  0  0  0  0  0  0  0
   18.7763   12.6432   14.2633 H   0  0  0  0  0  0  0  0  0  0  0  0
   20.8528   13.1660   16.0017 H   0  0  0  0  0  0  0  0  0  0  0  0
   23.2265   14.2141   15.9533 H   0  0  0  0  0  0  0  0  0  0  0  0
   24.4469   13.9084   11.7220 H   0  0  0  0  0  0  0  0  0  0  0  0
   26.6166   15.0354   11.2375 H   0  0  0  0  0  0  0  0  0  0  0  0
   27.4443   16.8491   12.7212 H   0  0  0  0  0  0  0  0  0  0  0  0
   26.1009   16.6239   16.6196 H   0  0  0  0  0  0  0  0  0  0  0  0
   27.6892   17.4423   16.3524 H   0  0  0  0  0  0  0  0  0  0  0  0
   25.0782   18.7455   17.2423 H   0  0  0  0  0  0  0  0  0  0  0  0
   26.5534   18.4944   18.2311 H   0  0  0  0  0  0  0  0  0  0  0  0
   27.5050   20.8206   14.9966 H   0  0  0  0  0  0  0  0  0  0  0  0
   23.9430   16.4162   15.2049 H   0  0  0  0  0  0  0  0  0  0  0  0
   22.7078   15.5115    7.4915 H   0  0  0  0  0  0  0  0  0  0  0  0
  1  2  1  0
  2  3  1  0
  3  4  2  0
  4  5  1  0
  5  6  1  0
  6  7  2  0
  6  8  2  0
  6  9  1  0
  9 10  2  0
 10 11  1  0
 11 12  2  0
 12 13  1  0
 13 14  1  0
 14 15  1  0
 15 16  2  0
 16 17  1  0
 17 18  2  0
 18 19  1  0
 19 20  2  0
 20 21  1  0
 21 22  1  0
 22 23  1  0
 23 24  1  0
 24 25  1  0
 25 26  2  0
 25 27  1  0
 27 28  1  0
 28 29  2  0
 21 30  2  0
 16 31  1  0
  5 32  1  0
 32 33  2  0
 33  3  1  0
 31  9  1  0
 31 13  2  0
 30 17  1  0
 28 22  1  0
  1 34  1  0
  1 35  1  0
  1 36  1  0
  2 37  1  0
  2 38  1  0
  4 39  1  0
 10 40  1  0
 11 41  1  0
 12 42  1  0
 14 43  1  0
 15 44  1  0
 18 45  1  0
 19 46  1  0
 20 47  1  0
 23 48  1  0
 23 49  1  0
 24 50  1  0
 24 51  1  0
 27 52  1  0
 30 53  1  0
 32 54  1  0
M  END
>  <meeko>  (1269) 
{"is_sidechain": [true], "free_energy": -10.14, "intermolecular_energy": 0.0, "internal_energy": -10.14, "cluster_size": 15, "cluster_id": 1, "rank_in_cluster": 1}

>  <_RMSD_MCS_to_ref>  (1269) 
0.9865449178826068

$$$$
ligand
     RDKit          3D

 48 51  0  0  0  0  0  0  0  0999 V2000
   18.9090   19.1540    7.5370 C   0  0  0  0  0  0  0  0  0  0  0  0
   18.7730   17.6460    7.6780 C   0  0  0  0  0  0  0  0  0  0  0  0
   20.0560   16.9400    7.4120 C   0  0  0  0  0  0  0  0  0  0  0  0
   20.6640   15.9390    8.1410 C   0  0  0  0  0  0  0  0  0  0  0  0
   21.8080   15.6660    7.4470 N   0  0  0  0  0  0  0  0  0  0  0  0
   22.9040   14.4460    7.8060 S   0  0  0  0  0  6  0  0  0  0  0  0
   23.4890   14.0920    6.5250 O   0  0  0  0  0  0  0  0  0  0  0  0
   22.1970   13.4810    8.6240 O   0  0  0  0  0  0  0  0  0  0  0  0
   24.1550   15.1930    8.7910 C   0  0  0  0  0  0  0  0  0  0  0  0
   25.3080   15.6980    8.1690 C   0  0  0  0  0  0  0  0  0  0  0  0
   26.3180   16.3090    8.9150 C   0  0  0  0  0  0  0  0  0  0  0  0
   26.2060   16.4340   10.3060 C   0  0  0  0  0  0  0  0  0  0  0  0
   25.0610   15.9300   10.9550 C   0  0  0  0  0  0  0  0  0  0  0  0
   24.5960   15.8690   12.3110 C   0  0  0  0  0  0  0  0  0  0  0  0
   25.2720   16.3690   13.4990 C   0  0  0  0  0  0  0  0  0  0  0  0
   25.6090   15.6300   14.4190 O   0  0  0  0  0  0  0  0  0  0  0  0
   25.5250   17.7220   13.5250 N   0  0  0  0  0  0  0  0  0  0  0  0
   26.3190   18.3220   14.5880 C   0  0  2  0  0  0  0  0  0  0  0  0
   25.8030   17.9560   15.9740 C   0  0  0  0  0  0  0  0  0  0  0  0
   26.6500   18.6520   17.0300 C   0  0  0  0  0  0  0  0  0  0  0  0
   26.6770   20.1470   16.8140 C   0  0  0  0  0  0  0  0  0  0  0  0
   26.7350   20.9460   17.7450 O   0  0  0  0  0  0  0  0  0  0  0  0
   26.6630   20.5800   15.5130 N   0  0  0  0  0  0  0  0  0  0  0  0
   26.2700   19.8450   14.4240 C   0  0  0  0  0  0  0  0  0  0  0  0
   25.9080   20.3860   13.3800 O   0  0  0  0  0  0  0  0  0  0  0  0
   23.3760   15.2230   12.2450 C   0  0  0  0  0  0  0  0  0  0  0  0
   23.0640   14.8930   10.9670 O   0  0  0  0  0  0  0  0  0  0  0  0
   24.0790   15.3250   10.1750 C   0  0  0  0  0  0  0  0  0  0  0  0
   21.8640   16.4630    6.3490 C   0  0  0  0  0  0  0  0  0  0  0  0
   20.8120   17.2550    6.2990 N   0  0  0  0  0  0  0  0  0  0  0  0
   18.9504   19.6134    8.5356 H   0  0  0  0  0  0  0  0  0  0  0  0
   19.8320   19.3891    6.9867 H   0  0  0  0  0  0  0  0  0  0  0  0
   18.0430   19.5504    6.9867 H   0  0  0  0  0  0  0  0  0  0  0  0
   18.4463   17.4137    8.7024 H   0  0  0  0  0  0  0  0  0  0  0  0
   18.0373   17.3018    6.9362 H   0  0  0  0  0  0  0  0  0  0  0  0
   20.3085   15.4682    9.0694 H   0  0  0  0  0  0  0  0  0  0  0  0
   25.4173   15.6111    7.0779 H   0  0  0  0  0  0  0  0  0  0  0  0
   27.2120   16.6967    8.4046 H   0  0  0  0  0  0  0  0  0  0  0  0
   27.0040   16.9208   10.8859 H   0  0  0  0  0  0  0  0  0  0  0  0
   25.1454   18.3213   12.7783 H   0  0  0  0  0  0  0  0  0  0  0  0
   27.3469   17.9388   14.5064 H   0  0  0  0  0  0  0  0  0  0  0  0
   24.7560   18.2785   16.0726 H   0  0  0  0  0  0  0  0  0  0  0  0
   25.8654   16.8666   16.1130 H   0  0  0  0  0  0  0  0  0  0  0  0
   26.2283   18.4411   18.0238 H   0  0  0  0  0  0  0  0  0  0  0  0
   27.6795   18.2717   16.9555 H   0  0  0  0  0  0  0  0  0  0  0  0
   26.9763   21.5454   15.3377 H   0  0  0  0  0  0  0  0  0  0  0  0
   22.7405   15.0048   13.1159 H   0  0  0  0  0  0  0  0  0  0  0  0
   22.6743   16.4494    5.6052 H   0  0  0  0  0  0  0  0  0  0  0  0
  1  2  1  0
  2  3  1  0
  3  4  2  0
  4  5  1  0
  5  6  1  0
  6  7  2  0
  6  8  2  0
  6  9  1  0
  9 10  2  0
 10 11  1  0
 11 12  2  0
 12 13  1  0
 13 14  1  0
 14 15  1  0
 15 16  2  0
 15 17  1  0
 17 18  1  0
 18 19  1  0
 19 20  1  0
 20 21  1  0
 21 22  2  0
 21 23  1  0
 23 24  1  0
 24 25  2  0
 14 26  2  0
 26 27  1  0
 27 28  1  0
  5 29  1  0
 29 30  2  0
 30  3  1  0
 28  9  1  0
 28 13  2  0
 24 18  1  0
  1 31  1  0
  1 32  1  0
  1 33  1  0
  2 34  1  0
  2 35  1  0
  4 36  1  0
 10 37  1  0
 11 38  1  0
 12 39  1  0
 17 40  1  0
 18 41  1  1
 19 42  1  0
 19 43  1  0
 20 44  1  0
 20 45  1  0
 23 46  1  0
 26 47  1  0
 29 48  1  0
M  END
>  <meeko>  (1270) 
{"is_sidechain": [true], "free_energy": -10.14, "intermolecular_energy": 0.0, "internal_energy": -10.14, "cluster_size": 20, "cluster_id": 1, "rank_in_cluster": 1}

>  <_RMSD_MCS_to_ref>  (1270) 
0.9242511683640015

$$$$
ligand
     RDKit          3D

 48 51  0  0  0  0  0  0  0  0999 V2000
   18.9090   19.1540    7.5370 C   0  0  0  0  0  0  0  0  0  0  0  0
   18.7730   17.6460    7.6780 C   0  0  0  0  0  0  0  0  0  0  0  0
   19.9980   16.9270    7.2350 C   0  0  0  0  0  0  0  0  0  0  0  0
   21.0420   16.4400    7.9960 C   0  0  0  0  0  0  0  0  0  0  0  0
   21.8800   15.8630    7.0850 N   0  0  0  0  0  0  0  0  0  0  0  0
   23.4290   15.2890    7.3920 S   0  0  0  0  0  6  0  0  0  0  0  0
   24.3270   16.2050    6.7170 O   0  0  0  0  0  0  0  0  0  0  0  0
   23.3960   13.8700    7.0960 O   0  0  0  0  0  0  0  0  0  0  0  0
   23.6100   15.5000    9.1470 C   0  0  0  0  0  0  0  0  0  0  0  0
   24.6140   16.3450    9.6280 C   0  0  0  0  0  0  0  0  0  0  0  0
   24.7770   16.5290   11.0070 C   0  0  0  0  0  0  0  0  0  0  0  0
   23.9130   15.8610   11.8980 C   0  0  0  0  0  0  0  0  0  0  0  0
   23.7560   15.7870   13.3130 C   0  0  0  0  0  0  0  0  0  0  0  0
   24.5620   16.4660   14.3390 C   0  0  0  0  0  0  0  0  0  0  0  0
   25.2950   15.8770   15.1270 O   0  0  0  0  0  0  0  0  0  0  0  0
   24.4070   17.8330   14.3420 N   0  0  0  0  0  0  0  0  0  0  0  0
   24.9680   18.6840   15.3730 C   0  0  1  0  0  0  0  0  0  0  0  0
   26.1270   18.0080   16.0990 C   0  0  0  0  0  0  0  0  0  0  0  0
   26.6870   18.9520   17.1520 C   0  0  0  0  0  0  0  0  0  0  0  0
   27.1000   20.2700   16.5430 C   0  0  0  0  0  0  0  0  0  0  0  0
   28.0460   20.9260   16.9700 O   0  0  0  0  0  0  0  0  0  0  0  0
   26.3410   20.7280   15.4960 N   0  0  0  0  0  0  0  0  0  0  0  0
   25.4650   19.9870   14.7390 C   0  0  0  0  0  0  0  0  0  0  0  0
   25.1000   20.3820   13.6320 O   0  0  0  0  0  0  0  0  0  0  0  0
   22.7290   14.9770   13.6500 N   0  0  0  0  0  0  0  0  0  0  0  0
   22.2490   14.5510   12.4700 N   0  0  0  0  0  0  0  0  0  0  0  0
   22.9160   15.0390   11.3790 C   0  0  0  0  0  0  0  0  0  0  0  0
   22.7260   14.8340   10.0080 C   0  0  0  0  0  0  0  0  0  0  0  0
   21.3720   16.0420    5.8380 C   0  0  0  0  0  0  0  0  0  0  0  0
   20.2220   16.6770    5.8950 N   0  0  0  0  0  0  0  0  0  0  0  0
   18.9504   19.6134    8.5356 H   0  0  0  0  0  0  0  0  0  0  0  0
   19.8320   19.3891    6.9867 H   0  0  0  0  0  0  0  0  0  0  0  0
   18.0430   19.5504    6.9867 H   0  0  0  0  0  0  0  0  0  0  0  0
   18.5832   17.4047    8.7343 H   0  0  0  0  0  0  0  0  0  0  0  0
   17.9403   17.3208    7.0370 H   0  0  0  0  0  0  0  0  0  0  0  0
   21.1696   16.5025    9.0868 H   0  0  0  0  0  0  0  0  0  0  0  0
   25.2774   16.8665    8.9224 H   0  0  0  0  0  0  0  0  0  0  0  0
   25.5704   17.1875   11.3903 H   0  0  0  0  0  0  0  0  0  0  0  0
   23.8698   18.2702   13.5797 H   0  0  0  0  0  0  0  0  0  0  0  0
   24.1768   18.8877   16.1096 H   0  0  0  0  0  0  0  0  0  0  0  0
   25.7687   17.0884   16.5847 H   0  0  0  0  0  0  0  0  0  0  0  0
   26.9163   17.7574   15.3750 H   0  0  0  0  0  0  0  0  0  0  0  0
   25.9161   19.1357   17.9149 H   0  0  0  0  0  0  0  0  0  0  0  0
   27.5752   18.4836   17.6011 H   0  0  0  0  0  0  0  0  0  0  0  0
   26.4369   21.7244   15.2535 H   0  0  0  0  0  0  0  0  0  0  0  0
   21.4460   13.9106   12.3927 H   0  0  0  0  0  0  0  0  0  0  0  0
   21.9250   14.1843    9.6255 H   0  0  0  0  0  0  0  0  0  0  0  0
   21.8553   15.7030    4.9098 H   0  0  0  0  0  0  0  0  0  0  0  0
  1  2  1  0
  2  3  1  0
  3  4  2  0
  4  5  1  0
  5  6  1  0
  6  7  2  0
  6  8  2  0
  6  9  1  0
  9 10  2  0
 10 11  1  0
 11 12  2  0
 12 13  1  0
 13 14  1  0
 14 15  2  0
 14 16  1  0
 16 17  1  0
 17 18  1  0
 18 19  1  0
 19 20  1  0
 20 21  2  0
 20 22  1  0
 22 23  1  0
 23 24  2  0
 13 25  2  0
 25 26  1  0
 26 27  1  0
 27 28  2  0
  5 29  1  0
 29 30  2  0
 30  3  1  0
 28  9  1  0
 27 12  1  0
 23 17  1  0
  1 31  1  0
  1 32  1  0
  1 33  1  0
  2 34  1  0
  2 35  1  0
  4 36  1  0
 10 37  1  0
 11 38  1  0
 16 39  1  0
 17 40  1  1
 18 41  1  0
 18 42  1  0
 19 43  1  0
 19 44  1  0
 22 45  1  0
 26 46  1  0
 28 47  1  0
 29 48  1  0
M  END
>  <meeko>  (1271) 
{"is_sidechain": [true], "free_energy": -10.14, "intermolecular_energy": 0.0, "internal_energy": -10.14, "cluster_size": 16, "cluster_id": 1, "rank_in_cluster": 1}

>  <_RMSD_MCS_to_ref>  (1271) 
0.6498810147506494

$$$$
ligand
     RDKit          3D

 48 51  0  0  0  0  0  0  0  0999 V2000
   18.9090   19.1540    7.5370 C   0  0  0  0  0  0  0  0  0  0  0  0
   18.7730   17.6460    7.6780 C   0  0  0  0  0  0  0  0  0  0  0  0
   20.0940   16.9620    7.6780 C   0  0  0  0  0  0  0  0  0  0  0  0
   20.9050   16.6410    8.7470 C   0  0  0  0  0  0  0  0  0  0  0  0
   21.9880   16.0340    8.1750 N   0  0  0  0  0  0  0  0  0  0  0  0
   23.3110   15.4140    9.0000 S   0  0  0  0  0  6  0  0  0  0  0  0
   24.2960   16.4820    8.9720 O   0  0  0  0  0  0  0  0  0  0  0  0
   23.5900   14.1070    8.4360 O   0  0  0  0  0  0  0  0  0  0  0  0
   22.8280   15.1990   10.6760 C   0  0  0  0  0  0  0  0  0  0  0  0
   23.5290   15.8940   11.6810 C   0  0  0  0  0  0  0  0  0  0  0  0
   23.1690   15.7510   13.0280 C   0  0  0  0  0  0  0  0  0  0  0  0
   23.8950   16.4690   14.1150 C   0  0  0  0  0  0  0  0  0  0  0  0
   24.2420   15.8680   15.1250 O   0  0  0  0  0  0  0  0  0  0  0  0
   24.1080   17.8170   13.9350 N   0  0  0  0  0  0  0  0  0  0  0  0
   24.6830   18.6330   14.9960 C   0  0  1  0  0  0  0  0  0  0  0  0
   25.8200   17.9200   15.7170 C   0  0  0  0  0  0  0  0  0  0  0  0
   26.3990   18.8360   16.7840 C   0  0  0  0  0  0  0  0  0  0  0  0
   26.8450   20.1540   16.1920 C   0  0  0  0  0  0  0  0  0  0  0  0
   27.8030   20.7820   16.6350 O   0  0  0  0  0  0  0  0  0  0  0  0
   26.1040   20.6420   15.1460 N   0  0  0  0  0  0  0  0  0  0  0  0
   25.2140   19.9310   14.3810 C   0  0  0  0  0  0  0  0  0  0  0  0
   24.8590   20.3350   13.2730 O   0  0  0  0  0  0  0  0  0  0  0  0
   22.1210   14.8920   13.4040 C   0  0  0  0  0  0  0  0  0  0  0  0
   21.4510   14.2160   12.3810 C   0  0  0  0  0  0  0  0  0  0  0  0
   20.4090   13.3230   12.3950 N   0  0  0  0  0  0  0  0  0  0  0  0
   20.1480   12.9650   11.1030 C   0  0  0  0  0  0  0  0  0  0  0  0
   20.9580   13.5670   10.2640 N   0  0  0  0  0  0  0  0  0  0  0  0
   21.7780   14.3500   11.0340 C   0  0  0  0  0  0  0  0  0  0  0  0
   21.8090   15.9800    6.8310 C   0  0  0  0  0  0  0  0  0  0  0  0
   20.6710   16.5510    6.4920 N   0  0  0  0  0  0  0  0  0  0  0  0
   18.9504   19.6134    8.5356 H   0  0  0  0  0  0  0  0  0  0  0  0
   19.8320   19.3891    6.9867 H   0  0  0  0  0  0  0  0  0  0  0  0
   18.0430   19.5504    6.9867 H   0  0  0  0  0  0  0  0  0  0  0  0
   18.2584   17.4233    8.6244 H   0  0  0  0  0  0  0  0  0  0  0  0
   18.2001   17.2757    6.8151 H   0  0  0  0  0  0  0  0  0  0  0  0
   20.7220   16.8302    9.8150 H   0  0  0  0  0  0  0  0  0  0  0  0
   24.3652   16.5539   11.4065 H   0  0  0  0  0  0  0  0  0  0  0  0
   23.8572   18.2550   13.0372 H   0  0  0  0  0  0  0  0  0  0  0  0
   23.8955   18.8366   15.7365 H   0  0  0  0  0  0  0  0  0  0  0  0
   25.4367   17.0036   16.1895 H   0  0  0  0  0  0  0  0  0  0  0  0
   26.6059   17.6589   14.9930 H   0  0  0  0  0  0  0  0  0  0  0  0
   25.6306   19.0276   17.5475 H   0  0  0  0  0  0  0  0  0  0  0  0
   27.2745   18.3409   17.2295 H   0  0  0  0  0  0  0  0  0  0  0  0
   26.2274   21.6375   14.9124 H   0  0  0  0  0  0  0  0  0  0  0  0
   21.8405   14.7579   14.4591 H   0  0  0  0  0  0  0  0  0  0  0  0
   19.9123   12.9833   13.2309 H   0  0  0  0  0  0  0  0  0  0  0  0
   19.3581   12.2606   10.8033 H   0  0  0  0  0  0  0  0  0  0  0  0
   22.5158   15.5230    6.1228 H   0  0  0  0  0  0  0  0  0  0  0  0
  1  2  1  0
  2  3  1  0
  3  4  2  0
  4  5  1  0
  5  6  1  0
  6  7  2  0
  6  8  2  0
  6  9  1  0
  9 10  2  0
 10 11  1  0
 11 12  1  0
 12 13  2  0
 12 14  1  0
 14 15  1  0
 15 16  1  0
 16 17  1  0
 17 18  1  0
 18 19  2  0
 18 20  1  0
 20 21  1  0
 21 22  2  0
 11 23  2  0
 23 24  1  0
 24 25  1  0
 25 26  1  0
 26 27  2  0
 27 28  1  0
  5 29  1  0
 29 30  2  0
 30  3  1  0
 28  9  1  0
 21 15  1  0
 28 24  2  0
  1 31  1  0
  1 32  1  0
  1 33  1  0
  2 34  1  0
  2 35  1  0
  4 36  1  0
 10 37  1  0
 14 38  1  0
 15 39  1  1
 16 40  1  0
 16 41  1  0
 17 42  1  0
 17 43  1  0
 20 44  1  0
 23 45  1  0
 25 46  1  0
 26 47  1  0
 29 48  1  0
M  END
>  <meeko>  (1272) 
{"is_sidechain": [true], "free_energy": -10.14, "intermolecular_energy": 0.0, "internal_energy": -10.14, "cluster_size": 20, "cluster_id": 1, "rank_in_cluster": 1}

>  <_RMSD_MCS_to_ref>  (1272) 
0.4348801878423273

$$$$
ligand
     RDKit          3D

 47 50  0  0  0  0  0  0  0  0999 V2000
   18.9090   19.1540    7.5370 C   0  0  0  0  0  0  0  0  0  0  0  0
   18.7730   17.6460    7.6780 C   0  0  0  0  0  0  0  0  0  0  0  0
   19.8730   16.9160    6.9920 C   0  0  0  0  0  0  0  0  0  0  0  0
   21.0180   16.3620    7.5310 C   0  0  0  0  0  0  0  0  0  0  0  0
   21.6760   15.8390    6.4550 N   0  0  0  0  0  0  0  0  0  0  0  0
   23.0530   14.8870    6.5070 S   0  0  0  0  0  6  0  0  0  0  0  0
   22.6140   13.5320    6.2290 O   0  0  0  0  0  0  0  0  0  0  0  0
   24.0470   15.5720    5.7010 O   0  0  0  0  0  0  0  0  0  0  0  0
   23.6590   14.8920    8.1780 C   0  0  0  0  0  0  0  0  0  0  0  0
   24.2800   13.8650    8.7510 N   0  0  0  0  0  0  0  0  0  0  0  0
   24.5700   14.3050   10.0150 C   0  0  0  0  0  0  0  0  0  0  0  0
   25.2240   13.6770   11.0800 C   0  0  0  0  0  0  0  0  0  0  0  0
   25.3780   14.3990   12.2750 C   0  0  0  0  0  0  0  0  0  0  0  0
   24.8840   15.7110   12.4110 C   0  0  0  0  0  0  0  0  0  0  0  0
   25.1000   16.4030   13.7140 C   0  0  0  0  0  0  0  0  0  0  0  0
   25.0540   15.7730   14.7640 O   0  0  0  0  0  0  0  0  0  0  0  0
   25.3160   17.7620   13.6660 N   0  0  0  0  0  0  0  0  0  0  0  0
   25.3860   18.5530   14.8880 C   0  0  1  0  0  0  0  0  0  0  0  0
   26.3280   17.9410   15.9200 C   0  0  0  0  0  0  0  0  0  0  0  0
   26.3850   18.8380   17.1480 C   0  0  0  0  0  0  0  0  0  0  0  0
   26.7910   20.2460   16.7810 C   0  0  0  0  0  0  0  0  0  0  0  0
   27.4620   20.9530   17.5240 O   0  0  0  0  0  0  0  0  0  0  0  0
   26.3440   20.7190   15.5720 N   0  0  0  0  0  0  0  0  0  0  0  0
   25.8850   19.9560   14.5280 C   0  0  0  0  0  0  0  0  0  0  0  0
   25.8690   20.3910   13.3770 O   0  0  0  0  0  0  0  0  0  0  0  0
   24.2370   16.3520   11.3410 C   0  0  0  0  0  0  0  0  0  0  0  0
   24.1110   15.5990   10.1790 C   0  0  0  0  0  0  0  0  0  0  0  0
   23.5280   15.9870    9.0120 O   0  0  0  0  0  0  0  0  0  0  0  0
   20.9230   16.0240    5.3400 C   0  0  0  0  0  0  0  0  0  0  0  0
   19.8290   16.6970    5.6290 N   0  0  0  0  0  0  0  0  0  0  0  0
   18.9504   19.6134    8.5356 H   0  0  0  0  0  0  0  0  0  0  0  0
   19.8320   19.3891    6.9867 H   0  0  0  0  0  0  0  0  0  0  0  0
   18.0430   19.5504    6.9867 H   0  0  0  0  0  0  0  0  0  0  0  0
   18.7889   17.3873    8.7470 H   0  0  0  0  0  0  0  0  0  0  0  0
   17.8246   17.3470    7.2078 H   0  0  0  0  0  0  0  0  0  0  0  0
   21.3287   16.3459    8.5861 H   0  0  0  0  0  0  0  0  0  0  0  0
   25.6058   12.6498   10.9847 H   0  0  0  0  0  0  0  0  0  0  0  0
   25.8962   13.9291   13.1239 H   0  0  0  0  0  0  0  0  0  0  0  0
   25.4297   18.2261   12.7535 H   0  0  0  0  0  0  0  0  0  0  0  0
   24.3808   18.5846   15.3337 H   0  0  0  0  0  0  0  0  0  0  0  0
   25.9588   16.9460   16.2093 H   0  0  0  0  0  0  0  0  0  0  0  0
   27.3349   17.8463   15.4874 H   0  0  0  0  0  0  0  0  0  0  0  0
   25.3917   18.8630   17.6199 H   0  0  0  0  0  0  0  0  0  0  0  0
   27.1351   18.4300   17.8414 H   0  0  0  0  0  0  0  0  0  0  0  0
   26.3542   21.7400   15.4363 H   0  0  0  0  0  0  0  0  0  0  0  0
   23.8556   17.3809   11.4176 H   0  0  0  0  0  0  0  0  0  0  0  0
   21.1898   15.6622    4.3360 H   0  0  0  0  0  0  0  0  0  0  0  0
  1  2  1  0
  2  3  1  0
  3  4  2  0
  4  5  1  0
  5  6  1  0
  6  7  2  0
  6  8  2  0
  6  9  1  0
  9 10  2  0
 10 11  1  0
 11 12  2  0
 12 13  1  0
 13 14  2  0
 14 15  1  0
 15 16  2  0
 15 17  1  0
 17 18  1  0
 18 19  1  0
 19 20  1  0
 20 21  1  0
 21 22  2  0
 21 23  1  0
 23 24  1  0
 24 25  2  0
 14 26  1  0
 26 27  2  0
 27 28  1  0
  5 29  1  0
 29 30  2  0
 30  3  1  0
 28  9  1  0
 27 11  1  0
 24 18  1  0
  1 31  1  0
  1 32  1  0
  1 33  1  0
  2 34  1  0
  2 35  1  0
  4 36  1  0
 12 37  1  0
 13 38  1  0
 17 39  1  0
 18 40  1  1
 19 41  1  0
 19 42  1  0
 20 43  1  0
 20 44  1  0
 23 45  1  0
 26 46  1  0
 29 47  1  0
M  END
>  <meeko>  (1273) 
{"is_sidechain": [true], "free_energy": -10.14, "intermolecular_energy": 0.0, "internal_energy": -10.14, "cluster_size": 10, "cluster_id": 1, "rank_in_cluster": 1}

>  <_RMSD_MCS_to_ref>  (1273) 
0.6815099249297677

$$$$
ligand
     RDKit          3D

 41 43  0  0  0  0  0  0  0  0999 V2000
   18.9090   19.1540    7.5370 C   0  0  0  0  0  0  0  0  0  0  0  0
   18.7730   17.6460    7.6780 C   0  0  0  0  0  0  0  0  0  0  0  0
   20.0930   16.9590    7.6570 C   0  0  0  0  0  0  0  0  0  0  0  0
   21.0210   16.8300    8.6720 C   0  0  0  0  0  0  0  0  0  0  0  0
   22.0450   16.1280    8.1030 N   0  0  0  0  0  0  0  0  0  0  0  0
   23.3910   15.5240    8.8960 S   0  0  0  0  0  6  0  0  0  0  0  0
   24.4430   16.5060    8.7090 O   0  0  0  0  0  0  0  0  0  0  0  0
   23.5210   14.1420    8.4740 O   0  0  0  0  0  0  0  0  0  0  0  0
   23.0320   15.4900   10.6380 C   0  0  0  0  0  0  0  0  0  0  0  0
   22.1470   14.6800   11.2070 N   0  0  0  0  0  0  0  0  0  0  0  0
   22.2060   14.9890   12.5430 C   0  0  0  0  0  0  0  0  0  0  0  0
   23.1300   15.9830   12.7620 C   0  0  0  0  0  0  0  0  0  0  0  0
   23.5580   16.6460   13.9660 C   0  0  0  0  0  0  0  0  0  0  0  0
   23.2600   16.2610   15.0920 O   0  0  0  0  0  0  0  0  0  0  0  0
   24.3300   17.7660   13.7570 N   0  0  0  0  0  0  0  0  0  0  0  0
   24.7280   18.6470   14.8440 C   0  0  1  0  0  0  0  0  0  0  0  0
   25.6830   17.9640   15.8170 C   0  0  0  0  0  0  0  0  0  0  0  0
   26.0850   18.9460   16.9070 C   0  0  0  0  0  0  0  0  0  0  0  0
   26.6830   20.2030   16.3190 C   0  0  0  0  0  0  0  0  0  0  0  0
   27.5740   20.8330   16.8800 O   0  0  0  0  0  0  0  0  0  0  0  0
   26.1580   20.6340   15.1270 N   0  0  0  0  0  0  0  0  0  0  0  0
   25.4170   19.8800   14.2520 C   0  0  0  0  0  0  0  0  0  0  0  0
   25.3110   20.1970   13.0680 O   0  0  0  0  0  0  0  0  0  0  0  0
   23.6690   16.3160   11.5460 O   0  0  0  0  0  0  0  0  0  0  0  0
   21.7080   15.8060    6.8280 C   0  0  0  0  0  0  0  0  0  0  0  0
   20.5350   16.3180    6.5170 N   0  0  0  0  0  0  0  0  0  0  0  0
   18.9504   19.6134    8.5356 H   0  0  0  0  0  0  0  0  0  0  0  0
   19.8320   19.3891    6.9867 H   0  0  0  0  0  0  0  0  0  0  0  0
   18.0430   19.5504    6.9867 H   0  0  0  0  0  0  0  0  0  0  0  0
   18.2725   17.4229    8.6318 H   0  0  0  0  0  0  0  0  0  0  0  0
   18.1867   17.2780    6.8231 H   0  0  0  0  0  0  0  0  0  0  0  0
   20.9512   17.2067    9.7031 H   0  0  0  0  0  0  0  0  0  0  0  0
   21.6005   14.5098   13.3264 H   0  0  0  0  0  0  0  0  0  0  0  0
   24.6362   17.9878   12.7989 H   0  0  0  0  0  0  0  0  0  0  0  0
   23.8230   18.9271   15.4030 H   0  0  0  0  0  0  0  0  0  0  0  0
   25.1839   17.0956   16.2718 H   0  0  0  0  0  0  0  0  0  0  0  0
   26.5804   17.6296   15.2758 H   0  0  0  0  0  0  0  0  0  0  0  0
   25.1945   19.2136   17.4946 H   0  0  0  0  0  0  0  0  0  0  0  0
   26.8420   18.4664   17.5449 H   0  0  0  0  0  0  0  0  0  0  0  0
   26.3365   21.6139   14.8646 H   0  0  0  0  0  0  0  0  0  0  0  0
   22.3280   15.2018    6.1494 H   0  0  0  0  0  0  0  0  0  0  0  0
  1  2  1  0
  2  3  1  0
  3  4  2  0
  4  5  1  0
  5  6  1  0
  6  7  2  0
  6  8  2  0
  6  9  1  0
  9 10  2  0
 10 11  1  0
 11 12  2  0
 12 13  1  0
 13 14  2  0
 13 15  1  0
 15 16  1  0
 16 17  1  0
 17 18  1  0
 18 19  1  0
 19 20  2  0
 19 21  1  0
 21 22  1  0
 22 23  2  0
 12 24  1  0
  5 25  1  0
 25 26  2  0
 26  3  1  0
 24  9  1  0
 22 16  1  0
  1 27  1  0
  1 28  1  0
  1 29  1  0
  2 30  1  0
  2 31  1  0
  4 32  1  0
 11 33  1  0
 15 34  1  0
 16 35  1  1
 17 36  1  0
 17 37  1  0
 18 38  1  0
 18 39  1  0
 21 40  1  0
 25 41  1  0
M  END
>  <meeko>  (1274) 
{"is_sidechain": [true], "free_energy": -10.14, "intermolecular_energy": 0.0, "internal_energy": -10.14, "cluster_size": 20, "cluster_id": 1, "rank_in_cluster": 1}

>  <_RMSD_MCS_to_ref>  (1274) 
0.4284287831393012

$$$$
ligand
     RDKit          3D

 42 44  0  0  0  0  0  0  0  0999 V2000
   18.9090   19.1540    7.5370 C   0  0  0  0  0  0  0  0  0  0  0  0
   18.7730   17.6460    7.6780 C   0  0  0  0  0  0  0  0  0  0  0  0
   20.0920   16.9570    7.6480 C   0  0  0  0  0  0  0  0  0  0  0  0
   20.9060   16.5920    8.7040 C   0  0  0  0  0  0  0  0  0  0  0  0
   21.9720   15.9810    8.1080 N   0  0  0  0  0  0  0  0  0  0  0  0
   23.3990   15.5390    8.8660 S   0  0  0  0  0  6  0  0  0  0  0  0
   24.3370   16.6190    8.6370 O   0  0  0  0  0  0  0  0  0  0  0  0
   23.6570   14.1620    8.4960 O   0  0  0  0  0  0  0  0  0  0  0  0
   23.1320   15.5040   10.5760 C   0  0  0  0  0  0  0  0  0  0  0  0
   22.1920   14.7110   11.1960 C   0  0  0  0  0  0  0  0  0  0  0  0
   22.2140   14.9120   12.8940 S   0  0  0  0  0  0  0  0  0  0  0  0
   23.4780   16.0710   12.8170 C   0  0  0  0  0  0  0  0  0  0  0  0
   24.0300   16.7080   14.0050 C   0  0  0  0  0  0  0  0  0  0  0  0
   24.0760   16.1450   15.0970 O   0  0  0  0  0  0  0  0  0  0  0  0
   24.4950   17.9930   13.8470 N   0  0  0  0  0  0  0  0  0  0  0  0
   24.9320   18.8030   14.9720 C   0  0  1  0  0  0  0  0  0  0  0  0
   25.9600   18.0820   15.8360 C   0  0  0  0  0  0  0  0  0  0  0  0
   26.4000   18.9950   16.9710 C   0  0  0  0  0  0  0  0  0  0  0  0
   26.9280   20.3080   16.4440 C   0  0  0  0  0  0  0  0  0  0  0  0
   27.8370   20.9220   16.9950 O   0  0  0  0  0  0  0  0  0  0  0  0
   26.3200   20.8090   15.3210 N   0  0  0  0  0  0  0  0  0  0  0  0
   25.5530   20.0950   14.4340 C   0  0  0  0  0  0  0  0  0  0  0  0
   25.3770   20.4900   13.2820 O   0  0  0  0  0  0  0  0  0  0  0  0
   23.8690   16.2920   11.5080 C   0  0  0  0  0  0  0  0  0  0  0  0
   21.8220   16.0390    6.7600 C   0  0  0  0  0  0  0  0  0  0  0  0
   20.6800   16.6130    6.4470 N   0  0  0  0  0  0  0  0  0  0  0  0
   18.9504   19.6134    8.5356 H   0  0  0  0  0  0  0  0  0  0  0  0
   19.8320   19.3891    6.9867 H   0  0  0  0  0  0  0  0  0  0  0  0
   18.0430   19.5504    6.9867 H   0  0  0  0  0  0  0  0  0  0  0  0
   18.2785   17.4229    8.6349 H   0  0  0  0  0  0  0  0  0  0  0  0
   18.1812   17.2793    6.8264 H   0  0  0  0  0  0  0  0  0  0  0  0
   20.7344   16.7561    9.7781 H   0  0  0  0  0  0  0  0  0  0  0  0
   21.5103   14.0313   10.6638 H   0  0  0  0  0  0  0  0  0  0  0  0
   24.5348   18.3947   12.8994 H   0  0  0  0  0  0  0  0  0  0  0  0
   24.0543   19.0130   15.6009 H   0  0  0  0  0  0  0  0  0  0  0  0
   25.5117   17.1683   16.2534 H   0  0  0  0  0  0  0  0  0  0  0  0
   26.8324   17.8152   15.2214 H   0  0  0  0  0  0  0  0  0  0  0  0
   25.5392   19.1920   17.6269 H   0  0  0  0  0  0  0  0  0  0  0  0
   27.2060   18.4943   17.5275 H   0  0  0  0  0  0  0  0  0  0  0  0
   26.4508   21.8118   15.1255 H   0  0  0  0  0  0  0  0  0  0  0  0
   24.6613   16.9980   11.2184 H   0  0  0  0  0  0  0  0  0  0  0  0
   22.5531   15.6592    6.0311 H   0  0  0  0  0  0  0  0  0  0  0  0
  1  2  1  0
  2  3  1  0
  3  4  2  0
  4  5  1  0
  5  6  1  0
  6  7  2  0
  6  8  2  0
  6  9  1  0
  9 10  2  0
 10 11  1  0
 11 12  1  0
 12 13  1  0
 13 14  2  0
 13 15  1  0
 15 16  1  0
 16 17  1  0
 17 18  1  0
 18 19  1  0
 19 20  2  0
 19 21  1  0
 21 22  1  0
 22 23  2  0
 12 24  2  0
  5 25  1  0
 25 26  2  0
 26  3  1  0
 24  9  1  0
 22 16  1  0
  1 27  1  0
  1 28  1  0
  1 29  1  0
  2 30  1  0
  2 31  1  0
  4 32  1  0
 10 33  1  0
 15 34  1  0
 16 35  1  1
 17 36  1  0
 17 37  1  0
 18 38  1  0
 18 39  1  0
 21 40  1  0
 24 41  1  0
 25 42  1  0
M  END
>  <meeko>  (1275) 
{"is_sidechain": [true], "free_energy": -10.14, "intermolecular_energy": 0.0, "internal_energy": -10.14, "cluster_size": 20, "cluster_id": 1, "rank_in_cluster": 1}

>  <_RMSD_MCS_to_ref>  (1275) 
0.5502260141675115

$$$$
ligand
     RDKit          3D

 50 53  0  0  0  0  0  0  0  0999 V2000
   18.9090   19.1540    7.5370 C   0  0  0  0  0  0  0  0  0  0  0  0
   18.7730   17.6460    7.6780 C   0  0  0  0  0  0  0  0  0  0  0  0
   20.0630   16.9980    8.0390 C   0  0  0  0  0  0  0  0  0  0  0  0
   20.3610   16.2000    9.1260 C   0  0  0  0  0  0  0  0  0  0  0  0
   21.6820   15.8930    8.9650 N   0  0  0  0  0  0  0  0  0  0  0  0
   22.5650   14.7990    9.8830 S   0  0  0  0  0  6  0  0  0  0  0  0
   21.9400   14.8350   11.1920 O   0  0  0  0  0  0  0  0  0  0  0  0
   22.6330   13.5920    9.0830 O   0  0  0  0  0  0  0  0  0  0  0  0
   24.2250   15.4360   10.0440 C   0  0  0  0  0  0  0  0  0  0  0  0
   25.1790   15.1570    9.0550 C   0  0  0  0  0  0  0  0  0  0  0  0
   26.4690   15.6680    9.1670 C   0  0  0  0  0  0  0  0  0  0  0  0
   26.8140   16.4590   10.2570 C   0  0  0  0  0  0  0  0  0  0  0  0
   25.8740   16.7510   11.2590 C   0  0  0  0  0  0  0  0  0  0  0  0
   24.5670   16.2190   11.1750 C   0  0  0  0  0  0  0  0  0  0  0  0
   23.5520   16.5420   12.2540 C   0  0  0  0  0  0  0  0  0  0  0  0
   24.1730   17.0360   13.5610 C   0  0  0  0  0  0  0  0  0  0  0  0
   25.1740   18.1550   13.2740 C   0  0  1  0  0  0  0  0  0  0  0  0
   25.6560   18.8480   14.4860 N   0  0  0  0  0  0  0  0  0  0  0  0
   26.3730   18.1110   15.5190 C   0  0  0  0  0  0  0  0  0  0  0  0
   26.2360   18.8050   16.8560 C   0  0  0  0  0  0  0  0  0  0  0  0
   26.6650   20.2350   16.7140 C   0  0  0  0  0  0  0  0  0  0  0  0
   27.0770   20.8970   17.6640 O   0  0  0  0  0  0  0  0  0  0  0  0
   26.5010   20.7890   15.4740 N   0  0  0  0  0  0  0  0  0  0  0  0
   25.8920   20.2160   14.3910 C   0  0  0  0  0  0  0  0  0  0  0  0
   25.5860   20.9010   13.4200 O   0  0  0  0  0  0  0  0  0  0  0  0
   26.3300   17.5980   12.4280 C   0  0  0  0  0  0  0  0  0  0  0  0
   22.1360   16.4650    7.8200 C   0  0  0  0  0  0  0  0  0  0  0  0
   21.1730   17.1410    7.2280 N   0  0  0  0  0  0  0  0  0  0  0  0
   18.9504   19.6134    8.5356 H   0  0  0  0  0  0  0  0  0  0  0  0
   19.8320   19.3891    6.9867 H   0  0  0  0  0  0  0  0  0  0  0  0
   18.0430   19.5504    6.9867 H   0  0  0  0  0  0  0  0  0  0  0  0
   18.0349   17.4286    8.4641 H   0  0  0  0  0  0  0  0  0  0  0  0
   18.4522   17.2429    6.7061 H   0  0  0  0  0  0  0  0  0  0  0  0
   19.6879   15.8838    9.9366 H   0  0  0  0  0  0  0  0  0  0  0  0
   24.9078   14.5339    8.1900 H   0  0  0  0  0  0  0  0  0  0  0  0
   27.2168   15.4455    8.3916 H   0  0  0  0  0  0  0  0  0  0  0  0
   27.8350   16.8608   10.3356 H   0  0  0  0  0  0  0  0  0  0  0  0
   22.8787   17.3241   11.8732 H   0  0  0  0  0  0  0  0  0  0  0  0
   23.0234   15.6056   12.4856 H   0  0  0  0  0  0  0  0  0  0  0  0
   23.3792   17.4175   14.2201 H   0  0  0  0  0  0  0  0  0  0  0  0
   24.6954   16.2010   14.0508 H   0  0  0  0  0  0  0  0  0  0  0  0
   24.6464   18.9337   12.7037 H   0  0  0  0  0  0  0  0  0  0  0  0
   25.9572   17.0954   15.5939 H   0  0  0  0  0  0  0  0  0  0  0  0
   27.4384   18.0653   15.2492 H   0  0  0  0  0  0  0  0  0  0  0  0
   25.1871   18.7662   17.1852 H   0  0  0  0  0  0  0  0  0  0  0  0
   26.8689   18.3009   17.6013 H   0  0  0  0  0  0  0  0  0  0  0  0
   26.8761   21.7391   15.3415 H   0  0  0  0  0  0  0  0  0  0  0  0
   26.9137   18.4444   12.0370 H   0  0  0  0  0  0  0  0  0  0  0  0
   26.9249   16.9465   13.0849 H   0  0  0  0  0  0  0  0  0  0  0  0
   23.1645   16.3761    7.4400 H   0  0  0  0  0  0  0  0  0  0  0  0
  1  2  1  0
  2  3  1  0
  3  4  2  0
  4  5  1  0
  5  6  1  0
  6  7  2  0
  6  8  2  0
  6  9  1  0
  9 10  2  0
 10 11  1  0
 11 12  2  0
 12 13  1  0
 13 14  2  0
 14 15  1  0
 15 16  1  0
 16 17  1  0
 17 18  1  0
 18 19  1  0
 19 20  1  0
 20 21  1  0
 21 22  2  0
 21 23  1  0
 23 24  1  0
 24 25  2  0
 17 26  1  0
  5 27  1  0
 27 28  2  0
 28  3  1  0
 14  9  1  0
 24 18  1  0
 26 13  1  0
  1 29  1  0
  1 30  1  0
  1 31  1  0
  2 32  1  0
  2 33  1  0
  4 34  1  0
 10 35  1  0
 11 36  1  0
 12 37  1  0
 15 38  1  0
 15 39  1  0
 16 40  1  0
 16 41  1  0
 17 42  1  6
 19 43  1  0
 19 44  1  0
 20 45  1  0
 20 46  1  0
 23 47  1  0
 26 48  1  0
 26 49  1  0
 27 50  1  0
M  END
>  <meeko>  (1276) 
{"is_sidechain": [true], "free_energy": -10.14, "intermolecular_energy": 0.0, "internal_energy": -10.14, "cluster_size": 18, "cluster_id": 1, "rank_in_cluster": 1}

>  <_RMSD_MCS_to_ref>  (1276) 
0.7532436524790631

$$$$
ligand
     RDKit          3D

 53 57  0  0  0  0  0  0  0  0999 V2000
   18.9090   19.1540    7.5370 C   0  0  0  0  0  0  0  0  0  0  0  0
   18.7730   17.6460    7.6780 C   0  0  0  0  0  0  0  0  0  0  0  0
   20.0850   16.9510    7.5870 C   0  0  0  0  0  0  0  0  0  0  0  0
   20.6650   16.0690    8.4780 C   0  0  0  0  0  0  0  0  0  0  0  0
   21.8630   15.7530    7.9020 N   0  0  0  0  0  0  0  0  0  0  0  0
   22.9950   14.6870    8.5340 S   0  0  0  0  0  6  0  0  0  0  0  0
   23.7270   14.2260    7.3680 O   0  0  0  0  0  0  0  0  0  0  0  0
   22.2870   13.7680    9.4020 O   0  0  0  0  0  0  0  0  0  0  0  0
   24.0960   15.6690    9.5280 C   0  0  0  0  0  0  0  0  0  0  0  0
   23.6260   16.0560   10.7950 C   0  0  0  0  0  0  0  0  0  0  0  0
   24.4710   16.8070   11.5890 C   0  0  0  0  0  0  0  0  0  0  0  0
   25.7400   17.1960   11.1790 C   0  0  0  0  0  0  0  0  0  0  0  0
   26.2100   16.8300    9.9300 C   0  0  0  0  0  0  0  0  0  0  0  0
   25.3840   16.0570    9.0850 C   0  0  0  0  0  0  0  0  0  0  0  0
   25.9170   15.7250    7.7850 C   0  0  0  0  0  0  0  0  0  0  0  0
   25.8090   16.3770    6.5380 C   0  0  0  0  0  0  0  0  0  0  0  0
   26.4680   15.7320    5.5730 N   0  0  0  0  0  0  0  0  0  0  0  0
   27.0020   14.6700    6.1990 N   0  0  0  0  0  0  0  0  0  0  0  0
   26.7310   14.6410    7.5390 C   0  0  0  0  0  0  0  0  0  0  0  0
   26.3870   18.0230   12.2380 C   0  0  0  0  0  0  0  0  0  0  0  0
   25.4200   17.9630   13.3250 N   0  0  0  0  0  0  0  0  0  0  0  0
   25.5400   18.8320   14.4930 C   0  0  2  0  0  0  0  0  0  0  0  0
   26.3530   20.1000   14.2390 C   0  0  0  0  0  0  0  0  0  0  0  0
   26.3590   20.9540   15.4970 C   0  0  0  0  0  0  0  0  0  0  0  0
   26.8950   20.1850   16.6810 C   0  0  0  0  0  0  0  0  0  0  0  0
   27.3760   20.7460   17.6620 O   0  0  0  0  0  0  0  0  0  0  0  0
   26.7440   18.8220   16.6510 N   0  0  0  0  0  0  0  0  0  0  0  0
   26.1020   18.0630   15.6990 C   0  0  0  0  0  0  0  0  0  0  0  0
   25.9130   16.8610   15.8830 O   0  0  0  0  0  0  0  0  0  0  0  0
   24.2430   17.3410   12.9360 C   0  0  0  0  0  0  0  0  0  0  0  0
   23.1970   17.2420   13.5450 O   0  0  0  0  0  0  0  0  0  0  0  0
   21.9980   16.4430    6.7420 C   0  0  0  0  0  0  0  0  0  0  0  0
   20.9170   17.1590    6.5040 N   0  0  0  0  0  0  0  0  0  0  0  0
   18.9504   19.6134    8.5356 H   0  0  0  0  0  0  0  0  0  0  0  0
   19.8320   19.3891    6.9867 H   0  0  0  0  0  0  0  0  0  0  0  0
   18.0430   19.5504    6.9867 H   0  0  0  0  0  0  0  0  0  0  0  0
   18.3204   17.4212    8.6551 H   0  0  0  0  0  0  0  0  0  0  0  0
   18.1428   17.2857    6.8516 H   0  0  0  0  0  0  0  0  0  0  0  0
   20.2563   15.7047    9.4321 H   0  0  0  0  0  0  0  0  0  0  0  0
   22.6217   15.7712   11.1417 H   0  0  0  0  0  0  0  0  0  0  0  0
   27.2134   17.1370    9.5999 H   0  0  0  0  0  0  0  0  0  0  0  0
   25.2467   17.3091    6.3796 H   0  0  0  0  0  0  0  0  0  0  0  0
   27.5596   13.9499    5.7179 H   0  0  0  0  0  0  0  0  0  0  0  0
   27.0898   13.9027    8.2713 H   0  0  0  0  0  0  0  0  0  0  0  0
   27.3530   17.5935   12.5420 H   0  0  0  0  0  0  0  0  0  0  0  0
   26.6156   19.0486   11.9127 H   0  0  0  0  0  0  0  0  0  0  0  0
   24.5165   19.1647   14.7202 H   0  0  0  0  0  0  0  0  0  0  0  0
   27.3855   19.8277   13.9749 H   0  0  0  0  0  0  0  0  0  0  0  0
   25.9022   20.6669   13.4111 H   0  0  0  0  0  0  0  0  0  0  0  0
   26.9923   21.8373   15.3272 H   0  0  0  0  0  0  0  0  0  0  0  0
   25.3238   21.2533   15.7178 H   0  0  0  0  0  0  0  0  0  0  0  0
   27.1620   18.3033   17.4366 H   0  0  0  0  0  0  0  0  0  0  0  0
   22.8845   16.4098    6.0916 H   0  0  0  0  0  0  0  0  0  0  0  0
  1  2  1  0
  2  3  1  0
  3  4  2  0
  4  5  1  0
  5  6  1  0
  6  7  2  0
  6  8  2  0
  6  9  1  0
  9 10  2  0
 10 11  1  0
 11 12  2  0
 12 13  1  0
 13 14  2  0
 14 15  1  0
 15 16  1  0
 16 17  2  0
 17 18  1  0
 18 19  1  0
 12 20  1  0
 20 21  1  0
 21 22  1  0
 22 23  1  0
 23 24  1  0
 24 25  1  0
 25 26  2  0
 25 27  1  0
 27 28  1  0
 28 29  2  0
 21 30  1  0
 30 31  2  0
  5 32  1  0
 32 33  2  0
 33  3  1  0
 14  9  1  0
 19 15  2  0
 28 22  1  0
 30 11  1  0
  1 34  1  0
  1 35  1  0
  1 36  1  0
  2 37  1  0
  2 38  1  0
  4 39  1  0
 10 40  1  0
 13 41  1  0
 16 42  1  0
 18 43  1  0
 19 44  1  0
 20 45  1  0
 20 46  1  0
 22 47  1  1
 23 48  1  0
 23 49  1  0
 24 50  1  0
 24 51  1  0
 27 52  1  0
 32 53  1  0
M  END
>  <meeko>  (1277) 
{"is_sidechain": [true], "free_energy": -10.14, "intermolecular_energy": 0.0, "internal_energy": -10.14, "cluster_size": 15, "cluster_id": 2, "rank_in_cluster": 1}

>  <_RMSD_MCS_to_ref>  (1277) 
1.7645299185146548

$$$$
ligand
     RDKit          3D

 53 57  0  0  0  0  0  0  0  0999 V2000
   18.9090   19.1540    7.5370 C   0  0  0  0  0  0  0  0  0  0  0  0
   18.7730   17.6460    7.6780 C   0  0  0  0  0  0  0  0  0  0  0  0
   20.0860   16.9520    7.5940 C   0  0  0  0  0  0  0  0  0  0  0  0
   20.6030   15.9750    8.4220 C   0  0  0  0  0  0  0  0  0  0  0  0
   21.8350   15.7140    7.9010 N   0  0  0  0  0  0  0  0  0  0  0  0
   22.9930   14.6660    8.5150 S   0  0  0  0  0  6  0  0  0  0  0  0
   23.7180   14.2080    7.3460 O   0  0  0  0  0  0  0  0  0  0  0  0
   22.3170   13.7460    9.4110 O   0  0  0  0  0  0  0  0  0  0  0  0
   24.0800   15.6720    9.4970 C   0  0  0  0  0  0  0  0  0  0  0  0
   23.6170   16.0380   10.7740 C   0  0  0  0  0  0  0  0  0  0  0  0
   24.4550   16.7960   11.5650 C   0  0  0  0  0  0  0  0  0  0  0  0
   25.7120   17.2090   11.1450 C   0  0  0  0  0  0  0  0  0  0  0  0
   26.1720   16.8660    9.8850 C   0  0  0  0  0  0  0  0  0  0  0  0
   25.3530   16.0930    9.0320 C   0  0  0  0  0  0  0  0  0  0  0  0
   25.9020   15.7840    7.7140 C   0  0  0  0  0  0  0  0  0  0  0  0
   26.2490   16.6180    6.6680 C   0  0  0  0  0  0  0  0  0  0  0  0
   26.6670   15.7630    5.6340 C   0  0  0  0  0  0  0  0  0  0  0  0
   26.5850   14.4780    5.9790 N   0  0  0  0  0  0  0  0  0  0  0  0
   26.1010   14.5100    7.2320 N   0  0  0  0  0  0  0  0  0  0  0  0
   26.3600   18.0340   12.2060 C   0  0  0  0  0  0  0  0  0  0  0  0
   25.4040   17.9490   13.3020 N   0  0  0  0  0  0  0  0  0  0  0  0
   25.5220   18.8080   14.4770 C   0  0  2  0  0  0  0  0  0  0  0  0
   26.3360   20.0780   14.2370 C   0  0  0  0  0  0  0  0  0  0  0  0
   26.3380   20.9220   15.5020 C   0  0  0  0  0  0  0  0  0  0  0  0
   26.8730   20.1420   16.6810 C   0  0  0  0  0  0  0  0  0  0  0  0
   27.3540   20.6930   17.6660 O   0  0  0  0  0  0  0  0  0  0  0  0
   26.7190   18.7790   16.6390 N   0  0  0  0  0  0  0  0  0  0  0  0
   26.0830   18.0290   15.6770 C   0  0  0  0  0  0  0  0  0  0  0  0
   25.8990   16.8240   15.8470 O   0  0  0  0  0  0  0  0  0  0  0  0
   24.2330   17.3130   12.9190 C   0  0  0  0  0  0  0  0  0  0  0  0
   23.1940   17.1920   13.5360 O   0  0  0  0  0  0  0  0  0  0  0  0
   22.0190   16.4690    6.7870 C   0  0  0  0  0  0  0  0  0  0  0  0
   20.9820   17.2540    6.5860 N   0  0  0  0  0  0  0  0  0  0  0  0
   18.9504   19.6134    8.5356 H   0  0  0  0  0  0  0  0  0  0  0  0
   19.8320   19.3891    6.9867 H   0  0  0  0  0  0  0  0  0  0  0  0
   18.0430   19.5504    6.9867 H   0  0  0  0  0  0  0  0  0  0  0  0
   18.3156   17.4214    8.6528 H   0  0  0  0  0  0  0  0  0  0  0  0
   18.1471   17.2849    6.8487 H   0  0  0  0  0  0  0  0  0  0  0  0
   20.1290   15.5133    9.3007 H   0  0  0  0  0  0  0  0  0  0  0  0
   22.6222   15.7307   11.1290 H   0  0  0  0  0  0  0  0  0  0  0  0
   27.1677   17.1929    9.5506 H   0  0  0  0  0  0  0  0  0  0  0  0
   26.2069   17.7170    6.6489 H   0  0  0  0  0  0  0  0  0  0  0  0
   27.0209   16.1136    4.6533 H   0  0  0  0  0  0  0  0  0  0  0  0
   25.8981   13.6618    7.7799 H   0  0  0  0  0  0  0  0  0  0  0  0
   27.3347   17.6143   12.4956 H   0  0  0  0  0  0  0  0  0  0  0  0
   26.5725   19.0658   11.8895 H   0  0  0  0  0  0  0  0  0  0  0  0
   24.4976   19.1386   14.7038 H   0  0  0  0  0  0  0  0  0  0  0  0
   27.3694   19.8076   13.9743 H   0  0  0  0  0  0  0  0  0  0  0  0
   25.8878   20.6519   13.4126 H   0  0  0  0  0  0  0  0  0  0  0  0
   26.9706   21.8074   15.3412 H   0  0  0  0  0  0  0  0  0  0  0  0
   25.3022   21.2191   15.7231 H   0  0  0  0  0  0  0  0  0  0  0  0
   27.1298   18.2533   17.4237 H   0  0  0  0  0  0  0  0  0  0  0  0
   22.9099   16.4298    6.1430 H   0  0  0  0  0  0  0  0  0  0  0  0
  1  2  1  0
  2  3  1  0
  3  4  2  0
  4  5  1  0
  5  6  1  0
  6  7  2  0
  6  8  2  0
  6  9  1  0
  9 10  2  0
 10 11  1  0
 11 12  2  0
 12 13  1  0
 13 14  2  0
 14 15  1  0
 15 16  2  0
 16 17  1  0
 17 18  2  0
 18 19  1  0
 12 20  1  0
 20 21  1  0
 21 22  1  0
 22 23  1  0
 23 24  1  0
 24 25  1  0
 25 26  2  0
 25 27  1  0
 27 28  1  0
 28 29  2  0
 21 30  1  0
 30 31  2  0
  5 32  1  0
 32 33  2  0
 33  3  1  0
 14  9  1  0
 19 15  1  0
 28 22  1  0
 30 11  1  0
  1 34  1  0
  1 35  1  0
  1 36  1  0
  2 37  1  0
  2 38  1  0
  4 39  1  0
 10 40  1  0
 13 41  1  0
 16 42  1  0
 17 43  1  0
 19 44  1  0
 20 45  1  0
 20 46  1  0
 22 47  1  1
 23 48  1  0
 23 49  1  0
 24 50  1  0
 24 51  1  0
 27 52  1  0
 32 53  1  0
M  END
>  <meeko>  (1278) 
{"is_sidechain": [true], "free_energy": -10.14, "intermolecular_energy": 0.0, "internal_energy": -10.14, "cluster_size": 18, "cluster_id": 2, "rank_in_cluster": 1}

>  <_RMSD_MCS_to_ref>  (1278) 
1.7608174395875213

$$$$
ligand
     RDKit          3D

 58 62  0  0  0  0  0  0  0  0999 V2000
   18.8250   19.0170    7.5350 C   0  0  0  0  0  0  0  0  0  0  0  0
   18.5200   17.5420    7.7330 C   0  0  0  0  0  0  0  0  0  0  0  0
   19.7440   16.6980    7.6550 C   0  0  0  0  0  0  0  0  0  0  0  0
   20.4180   16.0480    8.6700 C   0  0  0  0  0  0  0  0  0  0  0  0
   21.4570   15.4300    8.0360 N   0  0  0  0  0  0  0  0  0  0  0  0
   22.6350   14.4900    8.7720 S   0  0  0  0  0  6  0  0  0  0  0  0
   21.9490   13.2590    9.1180 O   0  0  0  0  0  0  0  0  0  0  0  0
   23.7920   14.4980    7.8990 O   0  0  0  0  0  0  0  0  0  0  0  0
   23.0470   15.3510   10.2750 C   0  0  0  0  0  0  0  0  0  0  0  0
   22.0380   15.4430   11.2660 C   0  0  0  0  0  0  0  0  0  0  0  0
   22.2900   16.0740   12.4840 C   0  0  0  0  0  0  0  0  0  0  0  0
   23.5600   16.5750   12.6840 C   0  0  0  0  0  0  0  0  0  0  0  0
   24.5720   16.4830   11.7270 C   0  0  0  0  0  0  0  0  0  0  0  0
   24.3350   15.8830   10.4910 C   0  0  0  0  0  0  0  0  0  0  0  0
   25.4240   15.8340    9.5130 C   0  0  0  0  0  0  0  0  0  0  0  0
   26.2640   14.7960    9.3720 C   0  0  0  0  0  0  0  0  0  0  0  0
   26.2940   13.4980   10.1090 C   0  0  0  0  0  0  0  0  0  0  0  0
   26.6750   12.5610    8.9840 C   0  0  0  0  0  0  0  0  0  0  0  0
   27.5590   13.2920    8.1210 O   0  0  0  0  0  0  0  0  0  0  0  0
   27.3130   14.6950    8.3070 C   0  0  0  0  0  0  0  0  0  0  0  0
   25.8230   17.1060   12.2680 C   0  0  0  0  0  0  0  0  0  0  0  0
   25.4340   17.5060   13.6140 N   0  0  0  0  0  0  0  0  0  0  0  0
   26.2160   18.4270   14.4310 C   0  0  1  0  0  0  0  0  0  0  0  0
   25.5850   19.8140   14.5160 C   0  0  0  0  0  0  0  0  0  0  0  0
   26.4990   20.7350   15.3100 C   0  0  0  0  0  0  0  0  0  0  0  0
   26.7990   20.1620   16.6760 C   0  0  0  0  0  0  0  0  0  0  0  0
   26.9250   20.8680   17.6720 O   0  0  0  0  0  0  0  0  0  0  0  0
   26.9430   18.8000   16.7540 N   0  0  0  0  0  0  0  0  0  0  0  0
   26.4310   17.8900   15.8580 C   0  0  0  0  0  0  0  0  0  0  0  0
   26.1620   16.7450   16.2170 O   0  0  0  0  0  0  0  0  0  0  0  0
   24.0900   17.2740   13.8590 C   0  0  0  0  0  0  0  0  0  0  0  0
   23.4410   17.5830   14.8370 O   0  0  0  0  0  0  0  0  0  0  0  0
   21.3840   15.6810    6.7050 C   0  0  0  0  0  0  0  0  0  0  0  0
   20.3640   16.4710    6.4420 N   0  0  0  0  0  0  0  0  0  0  0  0
   18.9260   19.5054    8.5155 H   0  0  0  0  0  0  0  0  0  0  0  0
   19.7645   19.1250    6.9731 H   0  0  0  0  0  0  0  0  0  0  0  0
   18.0054   19.4887    6.9731 H   0  0  0  0  0  0  0  0  0  0  0  0
   18.0584   17.4056    8.7221 H   0  0  0  0  0  0  0  0  0  0  0  0
   17.8412   17.2269    6.9268 H   0  0  0  0  0  0  0  0  0  0  0  0
   20.1739   16.0319    9.7424 H   0  0  0  0  0  0  0  0  0  0  0  0
   21.0447   15.0118   11.0723 H   0  0  0  0  0  0  0  0  0  0  0  0
   21.5091   16.1683   13.2529 H   0  0  0  0  0  0  0  0  0  0  0  0
   25.5626   16.7024    8.8522 H   0  0  0  0  0  0  0  0  0  0  0  0
   27.0482   13.5013   10.9097 H   0  0  0  0  0  0  0  0  0  0  0  0
   25.3591   13.2401   10.6281 H   0  0  0  0  0  0  0  0  0  0  0  0
   27.1856   11.6735    9.3861 H   0  0  0  0  0  0  0  0  0  0  0  0
   25.7849   12.2151    8.4380 H   0  0  0  0  0  0  0  0  0  0  0  0
   28.2334   15.2045    8.6283 H   0  0  0  0  0  0  0  0  0  0  0  0
   26.9836   15.1723    7.3723 H   0  0  0  0  0  0  0  0  0  0  0  0
   26.6476   16.3784   12.2945 H   0  0  0  0  0  0  0  0  0  0  0  0
   26.1902   17.9430   11.6560 H   0  0  0  0  0  0  0  0  0  0  0  0
   27.1884   18.5127   13.9240 H   0  0  0  0  0  0  0  0  0  0  0  0
   25.4475   20.2178   13.5021 H   0  0  0  0  0  0  0  0  0  0  0  0
   24.6079   19.7440   15.0164 H   0  0  0  0  0  0  0  0  0  0  0  0
   27.4428   20.8650   14.7602 H   0  0  0  0  0  0  0  0  0  0  0  0
   25.9906   21.7016   15.4416 H   0  0  0  0  0  0  0  0  0  0  0  0
   27.4795   18.4272   17.5503 H   0  0  0  0  0  0  0  0  0  0  0  0
   22.0788   15.2811    5.9518 H   0  0  0  0  0  0  0  0  0  0  0  0
  1  2  1  0
  2  3  1  0
  3  4  2  0
  4  5  1  0
  5  6  1  0
  6  7  2  0
  6  8  2  0
  6  9  1  0
  9 10  2  0
 10 11  1  0
 11 12  2  0
 12 13  1  0
 13 14  2  0
 14 15  1  0
 15 16  2  0
 16 17  1  0
 17 18  1  0
 18 19  1  0
 19 20  1  0
 13 21  1  0
 21 22  1  0
 22 23  1  0
 23 24  1  0
 24 25  1  0
 25 26  1  0
 26 27  2  0
 26 28  1  0
 28 29  1  0
 29 30  2  0
 22 31  1  0
 31 32  2  0
  5 33  1  0
 33 34  2  0
 34  3  1  0
 14  9  1  0
 20 16  1  0
 29 23  1  0
 31 12  1  0
  1 35  1  0
  1 36  1  0
  1 37  1  0
  2 38  1  0
  2 39  1  0
  4 40  1  0
 10 41  1  0
 11 42  1  0
 15 43  1  0
 17 44  1  0
 17 45  1  0
 18 46  1  0
 18 47  1  0
 20 48  1  0
 20 49  1  0
 21 50  1  0
 21 51  1  0
 23 52  1  6
 24 53  1  0
 24 54  1  0
 25 55  1  0
 25 56  1  0
 28 57  1  0
 33 58  1  0
M  END
>  <meeko>  (1279) 
{"is_sidechain": [true], "free_energy": -10.13, "intermolecular_energy": 0.0, "internal_energy": -10.13, "cluster_size": 2, "cluster_id": 2, "rank_in_cluster": 1}

>  <_RMSD_MCS_to_ref>  (1279) 
1.8043086703160793

$$$$
ligand
     RDKit          3D

 54 58  0  0  0  0  0  0  0  0999 V2000
   18.8250   19.0170    7.5350 C   0  0  0  0  0  0  0  0  0  0  0  0
   18.5200   17.5420    7.7330 C   0  0  0  0  0  0  0  0  0  0  0  0
   19.5530   16.6620    7.1200 C   0  0  0  0  0  0  0  0  0  0  0  0
   20.9210   16.6700    7.3140 C   0  0  0  0  0  0  0  0  0  0  0  0
   21.3780   15.6500    6.5300 N   0  0  0  0  0  0  0  0  0  0  0  0
   22.9930   15.2540    6.2720 S   0  0  0  0  0  6  0  0  0  0  0  0
   22.9690   14.1000    5.3950 O   0  0  0  0  0  0  0  0  0  0  0  0
   23.6570   16.4900    5.9060 O   0  0  0  0  0  0  0  0  0  0  0  0
   23.5900   14.7590    7.8420 C   0  0  0  0  0  0  0  0  0  0  0  0
   24.7280   13.9850    7.9450 C   0  0  0  0  0  0  0  0  0  0  0  0
   25.2080   13.5400    9.1310 N   0  0  0  0  0  0  0  0  0  0  0  0
   24.5030   13.8680   10.2440 C   0  0  0  0  0  0  0  0  0  0  0  0
   23.3470   14.6490   10.2460 C   0  0  0  0  0  0  0  0  0  0  0  0
   22.5750   14.9220   11.4610 C   0  0  0  0  0  0  0  0  0  0  0  0
   21.3580   14.2660   11.7310 C   0  0  0  0  0  0  0  0  0  0  0  0
   20.6690   14.4580   12.9490 C   0  0  0  0  0  0  0  0  0  0  0  0
   21.1820   15.2990   13.9390 C   0  0  0  0  0  0  0  0  0  0  0  0
   22.3670   15.9490   13.6600 C   0  0  0  0  0  0  0  0  0  0  0  0
   23.0270   15.7920   12.4510 C   0  0  0  0  0  0  0  0  0  0  0  0
   24.2160   16.6500   12.5050 C   0  0  0  0  0  0  0  0  0  0  0  0
   25.0120   16.8000   11.5980 O   0  0  0  0  0  0  0  0  0  0  0  0
   24.2500   17.2110   13.7520 N   0  0  0  0  0  0  0  0  0  0  0  0
   25.3890   17.9550   14.2690 C   0  0  2  0  0  0  0  0  0  0  0  0
   25.6520   17.7190   15.7530 C   0  0  0  0  0  0  0  0  0  0  0  0
   26.8300   18.5710   16.1940 C   0  0  0  0  0  0  0  0  0  0  0  0
   26.5660   20.0350   15.9270 C   0  0  0  0  0  0  0  0  0  0  0  0
   27.0280   20.9180   16.6430 O   0  0  0  0  0  0  0  0  0  0  0  0
   25.8310   20.3250   14.8040 N   0  0  0  0  0  0  0  0  0  0  0  0
   25.1570   19.4470   13.9860 C   0  0  0  0  0  0  0  0  0  0  0  0
   24.4570   19.8540   13.0580 O   0  0  0  0  0  0  0  0  0  0  0  0
   23.1740   16.8330   14.5020 C   0  0  0  0  0  0  0  0  0  0  0  0
   22.8940   17.1360   15.6450 O   0  0  0  0  0  0  0  0  0  0  0  0
   22.9190   15.1330    9.0030 C   0  0  0  0  0  0  0  0  0  0  0  0
   20.3290   15.0960    5.8660 C   0  0  0  0  0  0  0  0  0  0  0  0
   19.1990   15.6800    6.2130 N   0  0  0  0  0  0  0  0  0  0  0  0
   18.9260   19.5054    8.5155 H   0  0  0  0  0  0  0  0  0  0  0  0
   19.7645   19.1250    6.9731 H   0  0  0  0  0  0  0  0  0  0  0  0
   18.0054   19.4887    6.9731 H   0  0  0  0  0  0  0  0  0  0  0  0
   18.4726   17.3327    8.8119 H   0  0  0  0  0  0  0  0  0  0  0  0
   17.5608   17.3283    7.2387 H   0  0  0  0  0  0  0  0  0  0  0  0
   21.5082   17.3446    7.9544 H   0  0  0  0  0  0  0  0  0  0  0  0
   25.2683   13.7181    7.0248 H   0  0  0  0  0  0  0  0  0  0  0  0
   24.8685   13.4920   11.2109 H   0  0  0  0  0  0  0  0  0  0  0  0
   20.9342   13.5882   10.9754 H   0  0  0  0  0  0  0  0  0  0  0  0
   19.7150   13.9378   13.1202 H   0  0  0  0  0  0  0  0  0  0  0  0
   20.6640   15.4373   14.8995 H   0  0  0  0  0  0  0  0  0  0  0  0
   26.2917   17.5930   13.7551 H   0  0  0  0  0  0  0  0  0  0  0  0
   24.7597   17.9965   16.3333 H   0  0  0  0  0  0  0  0  0  0  0  0
   25.8805   16.6565   15.9231 H   0  0  0  0  0  0  0  0  0  0  0  0
   26.9963   18.4256   17.2716 H   0  0  0  0  0  0  0  0  0  0  0  0
   27.7190   18.2642   15.6234 H   0  0  0  0  0  0  0  0  0  0  0  0
   25.7776   21.3197   14.5422 H   0  0  0  0  0  0  0  0  0  0  0  0
   22.0528   15.8085    8.9444 H   0  0  0  0  0  0  0  0  0  0  0  0
   20.4116   14.2741    5.1396 H   0  0  0  0  0  0  0  0  0  0  0  0
  1  2  1  0
  2  3  1  0
  3  4  2  0
  4  5  1  0
  5  6  1  0
  6  7  2  0
  6  8  2  0
  6  9  1  0
  9 10  2  0
 10 11  1  0
 11 12  2  0
 12 13  1  0
 13 14  1  0
 14 15  2  0
 15 16  1  0
 16 17  2  0
 17 18  1  0
 18 19  2  0
 19 20  1  0
 20 21  2  0
 20 22  1  0
 22 23  1  0
 23 24  1  0
 24 25  1  0
 25 26  1  0
 26 27  2  0
 26 28  1  0
 28 29  1  0
 29 30  2  0
 22 31  1  0
 31 32  2  0
 13 33  2  0
  5 34  1  0
 34 35  2  0
 35  3  1  0
 33  9  1  0
 19 14  1  0
 29 23  1  0
 31 18  1  0
  1 36  1  0
  1 37  1  0
  1 38  1  0
  2 39  1  0
  2 40  1  0
  4 41  1  0
 10 42  1  0
 12 43  1  0
 15 44  1  0
 16 45  1  0
 17 46  1  0
 23 47  1  6
 24 48  1  0
 24 49  1  0
 25 50  1  0
 25 51  1  0
 28 52  1  0
 33 53  1  0
 34 54  1  0
M  END
>  <meeko>  (1280) 
{"is_sidechain": [true], "free_energy": -10.13, "intermolecular_energy": 0.0, "internal_energy": -10.13, "cluster_size": 12, "cluster_id": 1, "rank_in_cluster": 1}

>  <_RMSD_MCS_to_ref>  (1280) 
1.4943736889487258

$$$$
ligand
     RDKit          3D

 46 49  0  0  0  0  0  0  0  0999 V2000
   18.8250   19.0180    7.5350 C   0  0  0  0  0  0  0  0  0  0  0  0
   18.5200   17.5410    7.7330 C   0  0  0  0  0  0  0  0  0  0  0  0
   19.7560   16.7270    7.8930 C   0  0  0  0  0  0  0  0  0  0  0  0
   20.4460   16.4210    9.0480 C   0  0  0  0  0  0  0  0  0  0  0  0
   21.5030   15.6660    8.6240 N   0  0  0  0  0  0  0  0  0  0  0  0
   22.5150   14.7710    9.6230 S   0  0  0  0  0  6  0  0  0  0  0  0
   22.5280   15.4620   10.8970 O   0  0  0  0  0  0  0  0  0  0  0  0
   22.0530   13.4040    9.4790 O   0  0  0  0  0  0  0  0  0  0  0  0
   24.1410   14.8240    9.0060 C   0  0  0  0  0  0  0  0  0  0  0  0
   24.6160   14.1190    7.9930 N   0  0  0  0  0  0  0  0  0  0  0  0
   25.9490   14.4280    7.8430 N   0  0  0  0  0  0  0  0  0  0  0  0
   26.2590   15.3110    8.7650 C   0  0  0  0  0  0  0  0  0  0  0  0
   27.4660   15.9660    9.0920 C   0  0  0  0  0  0  0  0  0  0  0  0
   27.4760   16.8500   10.0970 C   0  0  0  0  0  0  0  0  0  0  0  0
   26.1890   17.0920   10.8090 C   0  0  0  0  0  0  0  0  0  0  0  0
   26.2300   18.1130   11.9480 C   0  0  0  0  0  0  0  0  0  0  0  0
   27.1750   18.8790   12.0470 O   0  0  0  0  0  0  0  0  0  0  0  0
   25.1440   18.0570   12.7960 N   0  0  0  0  0  0  0  0  0  0  0  0
   25.2460   18.6030   14.1410 C   0  0  1  0  0  0  0  0  0  0  0  0
   26.3430   17.9040   14.9330 C   0  0  0  0  0  0  0  0  0  0  0  0
   26.4400   18.5210   16.3190 C   0  0  0  0  0  0  0  0  0  0  0  0
   26.6760   20.0110   16.2400 C   0  0  0  0  0  0  0  0  0  0  0  0
   27.3210   20.6180   17.0910 O   0  0  0  0  0  0  0  0  0  0  0  0
   26.0930   20.6710   15.1890 N   0  0  0  0  0  0  0  0  0  0  0  0
   25.5570   20.1070   14.0550 C   0  0  0  0  0  0  0  0  0  0  0  0
   25.3230   20.7960   13.0630 O   0  0  0  0  0  0  0  0  0  0  0  0
   25.0530   16.5100   10.5390 N   0  0  0  0  0  0  0  0  0  0  0  0
   25.1400   15.6080    9.5180 N   0  0  0  0  0  0  0  0  0  0  0  0
   21.4380   15.5320    7.2730 C   0  0  0  0  0  0  0  0  0  0  0  0
   20.3620   16.1340    6.8000 N   0  0  0  0  0  0  0  0  0  0  0  0
   18.9258   19.5062    8.5155 H   0  0  0  0  0  0  0  0  0  0  0  0
   19.7645   19.1263    6.9731 H   0  0  0  0  0  0  0  0  0  0  0  0
   18.0053   19.4896    6.9731 H   0  0  0  0  0  0  0  0  0  0  0  0
   17.9006   17.4252    8.6346 H   0  0  0  0  0  0  0  0  0  0  0  0
   17.9937   17.1822    6.8362 H   0  0  0  0  0  0  0  0  0  0  0  0
   20.2004   16.7180   10.0783 H   0  0  0  0  0  0  0  0  0  0  0  0
   28.3862   15.7527    8.5283 H   0  0  0  0  0  0  0  0  0  0  0  0
   28.3973   17.3769   10.3860 H   0  0  0  0  0  0  0  0  0  0  0  0
   24.2625   17.6296   12.4780 H   0  0  0  0  0  0  0  0  0  0  0  0
   24.2885   18.4417   14.6579 H   0  0  0  0  0  0  0  0  0  0  0  0
   26.1044   16.8340   15.0240 H   0  0  0  0  0  0  0  0  0  0  0  0
   27.3040   18.0226   14.4111 H   0  0  0  0  0  0  0  0  0  0  0  0
   25.5009   18.3350   16.8608 H   0  0  0  0  0  0  0  0  0  0  0  0
   27.2898   18.0618   16.8453 H   0  0  0  0  0  0  0  0  0  0  0  0
   26.0522   21.6980   15.2559 H   0  0  0  0  0  0  0  0  0  0  0  0
   22.1780   14.9971    6.6596 H   0  0  0  0  0  0  0  0  0  0  0  0
  1  2  1  0
  2  3  1  0
  3  4  2  0
  4  5  1  0
  5  6  1  0
  6  7  2  0
  6  8  2  0
  6  9  1  0
  9 10  2  0
 10 11  1  0
 11 12  2  0
 12 13  1  0
 13 14  2  0
 14 15  1  0
 15 16  1  0
 16 17  2  0
 16 18  1  0
 18 19  1  0
 19 20  1  0
 20 21  1  0
 21 22  1  0
 22 23  2  0
 22 24  1  0
 24 25  1  0
 25 26  2  0
 15 27  2  0
 27 28  1  0
  5 29  1  0
 29 30  2  0
 30  3  1  0
 28  9  1  0
 28 12  1  0
 25 19  1  0
  1 31  1  0
  1 32  1  0
  1 33  1  0
  2 34  1  0
  2 35  1  0
  4 36  1  0
 13 37  1  0
 14 38  1  0
 18 39  1  0
 19 40  1  1
 20 41  1  0
 20 42  1  0
 21 43  1  0
 21 44  1  0
 24 45  1  0
 29 46  1  0
M  END
>  <meeko>  (1281) 
{"is_sidechain": [true], "free_energy": -10.13, "intermolecular_energy": 0.0, "internal_energy": -10.13, "cluster_size": 10, "cluster_id": 1, "rank_in_cluster": 1}

>  <_RMSD_MCS_to_ref>  (1281) 
0.8092596753961123

$$$$
ligand
     RDKit          3D

 53 57  0  0  0  0  0  0  0  0999 V2000
   18.8250   19.0170    7.5350 C   0  0  0  0  0  0  0  0  0  0  0  0
   18.5200   17.5420    7.7330 C   0  0  0  0  0  0  0  0  0  0  0  0
   19.7510   16.7390    7.9660 C   0  0  0  0  0  0  0  0  0  0  0  0
   20.4970   16.6070    9.1210 C   0  0  0  0  0  0  0  0  0  0  0  0
   21.5110   15.7640    8.7670 N   0  0  0  0  0  0  0  0  0  0  0  0
   22.7350   15.2240    9.7780 S   0  0  0  0  0  6  0  0  0  0  0  0
   23.8150   16.1870    9.6970 O   0  0  0  0  0  0  0  0  0  0  0  0
   22.9260   13.8430    9.3750 O   0  0  0  0  0  0  0  0  0  0  0  0
   22.0720   15.2520   11.4290 C   0  0  0  0  0  0  0  0  0  0  0  0
   20.9280   14.4910   11.7950 C   0  0  0  0  0  0  0  0  0  0  0  0
   20.1150   13.6250   10.8460 C   0  0  0  0  0  0  0  0  0  0  0  0
   18.7640   14.0850   10.3500 C   0  0  0  0  0  0  0  0  0  0  0  0
   18.8400   12.9640   11.3330 C   0  0  0  0  0  0  0  0  0  0  0  0
   20.5270   14.5300   13.1610 C   0  0  0  0  0  0  0  0  0  0  0  0
   21.1710   15.3140   14.1200 C   0  0  0  0  0  0  0  0  0  0  0  0
   22.2420   16.0650   13.6970 C   0  0  0  0  0  0  0  0  0  0  0  0
   22.7110   16.0460   12.3860 C   0  0  0  0  0  0  0  0  0  0  0  0
   23.9100   16.9410   12.2850 C   0  0  0  0  0  0  0  0  0  0  0  0
   23.9870   17.5390   13.6120 N   0  0  0  0  0  0  0  0  0  0  0  0
   25.1580   18.2650   14.0900 C   0  0  2  0  0  0  0  0  0  0  0  0
   25.5440   17.8800   15.5160 C   0  0  0  0  0  0  0  0  0  0  0  0
   26.8170   18.6130   15.9090 C   0  0  0  0  0  0  0  0  0  0  0  0
   26.6590   20.1080   15.7530 C   0  0  0  0  0  0  0  0  0  0  0  0
   27.2070   20.9090   16.5040 O   0  0  0  0  0  0  0  0  0  0  0  0
   25.8860   20.5380   14.7030 N   0  0  0  0  0  0  0  0  0  0  0  0
   24.9550   19.7890   14.0210 C   0  0  0  0  0  0  0  0  0  0  0  0
   24.0410   20.3390   13.4100 O   0  0  0  0  0  0  0  0  0  0  0  0
   23.0770   16.9730   14.4880 C   0  0  0  0  0  0  0  0  0  0  0  0
   22.9670   17.1630   15.6840 O   0  0  0  0  0  0  0  0  0  0  0  0
   21.3400   15.3720    7.4790 C   0  0  0  0  0  0  0  0  0  0  0  0
   20.2970   15.9770    6.9500 N   0  0  0  0  0  0  0  0  0  0  0  0
   18.9260   19.5054    8.5155 H   0  0  0  0  0  0  0  0  0  0  0  0
   19.7645   19.1250    6.9731 H   0  0  0  0  0  0  0  0  0  0  0  0
   18.0054   19.4887    6.9731 H   0  0  0  0  0  0  0  0  0  0  0  0
   17.8553   17.4315    8.6024 H   0  0  0  0  0  0  0  0  0  0  0  0
   18.0433   17.1698    6.8142 H   0  0  0  0  0  0  0  0  0  0  0  0
   20.3158   17.0736   10.1005 H   0  0  0  0  0  0  0  0  0  0  0  0
   21.0455   13.2853   10.3676 H   0  0  0  0  0  0  0  0  0  0  0  0
   18.3689   15.0627   10.6630 H   0  0  0  0  0  0  0  0  0  0  0  0
   18.3068   14.2149    9.3580 H   0  0  0  0  0  0  0  0  0  0  0  0
   18.5026   13.1178   12.3686 H   0  0  0  0  0  0  0  0  0  0  0  0
   18.4637   11.9308   11.3627 H   0  0  0  0  0  0  0  0  0  0  0  0
   19.6710   13.9145   13.4747 H   0  0  0  0  0  0  0  0  0  0  0  0
   20.8363   15.3301   15.1677 H   0  0  0  0  0  0  0  0  0  0  0  0
   24.8175   16.3618   12.0593 H   0  0  0  0  0  0  0  0  0  0  0  0
   23.8283   17.6850   11.4789 H   0  0  0  0  0  0  0  0  0  0  0  0
   25.9775   17.9763   13.4154 H   0  0  0  0  0  0  0  0  0  0  0  0
   24.7324   18.1589   16.2041 H   0  0  0  0  0  0  0  0  0  0  0  0
   25.7127   16.7944   15.5710 H   0  0  0  0  0  0  0  0  0  0  0  0
   27.0524   18.3850   16.9591 H   0  0  0  0  0  0  0  0  0  0  0  0
   27.6293   18.2783   15.2471 H   0  0  0  0  0  0  0  0  0  0  0  0
   26.0152   21.5130   14.3971 H   0  0  0  0  0  0  0  0  0  0  0  0
   21.9819   14.6509    6.9517 H   0  0  0  0  0  0  0  0  0  0  0  0
  1  2  1  0
  2  3  1  0
  3  4  2  0
  4  5  1  0
  5  6  1  0
  6  7  2  0
  6  8  2  0
  6  9  1  0
  9 10  1  0
 10 11  1  0
 11 12  1  0
 12 13  1  0
 10 14  2  0
 14 15  1  0
 15 16  2  0
 16 17  1  0
 17 18  1  0
 18 19  1  0
 19 20  1  0
 20 21  1  0
 21 22  1  0
 22 23  1  0
 23 24  2  0
 23 25  1  0
 25 26  1  0
 26 27  2  0
 19 28  1  0
 28 29  2  0
  5 30  1  0
 30 31  2  0
 31  3  1  0
 17  9  2  0
 26 20  1  0
 13 11  1  0
 28 16  1  0
  1 32  1  0
  1 33  1  0
  1 34  1  0
  2 35  1  0
  2 36  1  0
  4 37  1  0
 11 38  1  0
 12 39  1  0
 12 40  1  0
 13 41  1  0
 13 42  1  0
 14 43  1  0
 15 44  1  0
 18 45  1  0
 18 46  1  0
 20 47  1  6
 21 48  1  0
 21 49  1  0
 22 50  1  0
 22 51  1  0
 25 52  1  0
 30 53  1  0
M  END
>  <meeko>  (1282) 
{"is_sidechain": [true], "free_energy": -10.13, "intermolecular_energy": 0.0, "internal_energy": -10.13, "cluster_size": 18, "cluster_id": 1, "rank_in_cluster": 1}

>  <_RMSD_MCS_to_ref>  (1282) 
1.6580978559783497

$$$$
ligand
     RDKit          3D

 54 58  0  0  0  0  0  0  0  0999 V2000
   18.8250   19.0180    7.5350 C   0  0  0  0  0  0  0  0  0  0  0  0
   18.5200   17.5410    7.7330 C   0  0  0  0  0  0  0  0  0  0  0  0
   19.7560   16.7280    7.8820 C   0  0  0  0  0  0  0  0  0  0  0  0
   20.6700   16.7180    8.9170 C   0  0  0  0  0  0  0  0  0  0  0  0
   21.6080   15.8030    8.5300 N   0  0  0  0  0  0  0  0  0  0  0  0
   22.8630   15.2120    9.4780 S   0  0  0  0  0  6  0  0  0  0  0  0
   23.8370   14.7070    8.5300 O   0  0  0  0  0  0  0  0  0  0  0  0
   23.1520   16.2790   10.4150 O   0  0  0  0  0  0  0  0  0  0  0  0
   22.2420   13.8240   10.4110 C   0  0  0  0  0  0  0  0  0  0  0  0
   21.2920   12.9620    9.8350 C   0  0  0  0  0  0  0  0  0  0  0  0
   20.8040   11.8730   10.5530 C   0  0  0  0  0  0  0  0  0  0  0  0
   21.2530   11.6330   11.8450 C   0  0  0  0  0  0  0  0  0  0  0  0
   22.2040   12.4890   12.4330 C   0  0  0  0  0  0  0  0  0  0  0  0
   22.7270   13.6110   11.7360 C   0  0  0  0  0  0  0  0  0  0  0  0
   23.6800   14.4190   12.4110 C   0  0  0  0  0  0  0  0  0  0  0  0
   24.1210   14.1540   13.7260 C   0  0  0  0  0  0  0  0  0  0  0  0
   25.1180   15.0530   14.3600 C   0  0  0  0  0  0  0  0  0  0  0  0
   26.0650   14.5850   14.9850 O   0  0  0  0  0  0  0  0  0  0  0  0
   24.9320   16.4070   14.2080 N   0  0  0  0  0  0  0  0  0  0  0  0
   25.8800   17.3800   14.7170 C   0  0  2  0  0  0  0  0  0  0  0  0
   25.8090   17.4930   16.2380 C   0  0  0  0  0  0  0  0  0  0  0  0
   26.8200   18.5200   16.7200 C   0  0  0  0  0  0  0  0  0  0  0  0
   26.6030   19.8550   16.0520 C   0  0  0  0  0  0  0  0  0  0  0  0
   26.8250   20.9210   16.6200 O   0  0  0  0  0  0  0  0  0  0  0  0
   26.1730   19.8280   14.7500 N   0  0  0  0  0  0  0  0  0  0  0  0
   25.6050   18.7570   14.1000 C   0  0  0  0  0  0  0  0  0  0  0  0
   24.9440   18.9290   13.0780 O   0  0  0  0  0  0  0  0  0  0  0  0
   23.5950   13.0380   14.3960 C   0  0  0  0  0  0  0  0  0  0  0  0
   23.8520   12.5560   15.6660 N   0  0  0  0  0  0  0  0  0  0  0  0
   23.0920   11.4960   15.8010 C   0  0  0  0  0  0  0  0  0  0  0  0
   22.3570   11.2620   14.6750 N   0  0  0  0  0  0  0  0  0  0  0  0
   22.6570   12.2370   13.7490 C   0  0  0  0  0  0  0  0  0  0  0  0
   21.2500   15.2810    7.3270 C   0  0  0  0  0  0  0  0  0  0  0  0
   20.1210   15.8150    6.9120 N   0  0  0  0  0  0  0  0  0  0  0  0
   18.9258   19.5062    8.5155 H   0  0  0  0  0  0  0  0  0  0  0  0
   19.7645   19.1263    6.9731 H   0  0  0  0  0  0  0  0  0  0  0  0
   18.0053   19.4896    6.9731 H   0  0  0  0  0  0  0  0  0  0  0  0
   17.9075   17.4240    8.6392 H   0  0  0  0  0  0  0  0  0  0  0  0
   17.9859   17.1835    6.8403 H   0  0  0  0  0  0  0  0  0  0  0  0
   20.6480   17.3118    9.8427 H   0  0  0  0  0  0  0  0  0  0  0  0
   20.9325   13.1487    8.8123 H   0  0  0  0  0  0  0  0  0  0  0  0
   20.0618   11.2020   10.0960 H   0  0  0  0  0  0  0  0  0  0  0  0
   20.8651   10.7727   12.4101 H   0  0  0  0  0  0  0  0  0  0  0  0
   24.0939   15.2919   11.8850 H   0  0  0  0  0  0  0  0  0  0  0  0
   24.0912   16.7416   13.7161 H   0  0  0  0  0  0  0  0  0  0  0  0
   26.8868   17.0352   14.4387 H   0  0  0  0  0  0  0  0  0  0  0  0
   24.7976   17.8074   16.5350 H   0  0  0  0  0  0  0  0  0  0  0  0
   26.0376   16.5157   16.6882 H   0  0  0  0  0  0  0  0  0  0  0  0
   26.7161   18.6423   17.8082 H   0  0  0  0  0  0  0  0  0  0  0  0
   27.8283   18.1625   16.4641 H   0  0  0  0  0  0  0  0  0  0  0  0
   26.2865   20.6948   14.2054 H   0  0  0  0  0  0  0  0  0  0  0  0
   23.0519   10.8739   16.7073 H   0  0  0  0  0  0  0  0  0  0  0  0
   21.6911   10.4879   14.5404 H   0  0  0  0  0  0  0  0  0  0  0  0
   21.8232   14.5195    6.7778 H   0  0  0  0  0  0  0  0  0  0  0  0
  1  2  1  0
  2  3  1  0
  3  4  2  0
  4  5  1  0
  5  6  1  0
  6  7  2  0
  6  8  2  0
  6  9  1  0
  9 10  2  0
 10 11  1  0
 11 12  2  0
 12 13  1  0
 13 14  2  0
 14 15  1  0
 15 16  2  0
 16 17  1  0
 17 18  2  0
 17 19  1  0
 19 20  1  0
 20 21  1  0
 21 22  1  0
 22 23  1  0
 23 24  2  0
 23 25  1  0
 25 26  1  0
 26 27  2  0
 16 28  1  0
 28 29  1  0
 29 30  2  0
 30 31  1  0
 31 32  1  0
  5 33  1  0
 33 34  2  0
 34  3  1  0
 14  9  1  0
 26 20  1  0
 32 28  2  0
 32 13  1  0
  1 35  1  0
  1 36  1  0
  1 37  1  0
  2 38  1  0
  2 39  1  0
  4 40  1  0
 10 41  1  0
 11 42  1  0
 12 43  1  0
 15 44  1  0
 19 45  1  0
 20 46  1  1
 21 47  1  0
 21 48  1  0
 22 49  1  0
 22 50  1  0
 25 51  1  0
 30 52  1  0
 31 53  1  0
 33 54  1  0
M  END
>  <meeko>  (1283) 
{"is_sidechain": [true], "free_energy": -10.13, "intermolecular_energy": 0.0, "internal_energy": -10.13, "cluster_size": 19, "cluster_id": 1, "rank_in_cluster": 1}

>  <_RMSD_MCS_to_ref>  (1283) 
1.0140170390854173

$$$$
ligand
     RDKit          3D

 48 51  0  0  0  0  0  0  0  0999 V2000
   18.7970   18.8170    7.7190 C   0  0  0  0  0  0  0  0  0  0  0  0
   18.5280   17.3290    7.8810 C   0  0  0  0  0  0  0  0  0  0  0  0
   19.7680   16.5160    7.7590 C   0  0  0  0  0  0  0  0  0  0  0  0
   20.3850   15.7230    8.7070 C   0  0  0  0  0  0  0  0  0  0  0  0
   21.4880   15.2340    8.0680 N   0  0  0  0  0  0  0  0  0  0  0  0
   22.5150   14.0450    8.6610 S   0  0  0  0  0  6  0  0  0  0  0  0
   21.6800   13.1060    9.3820 O   0  0  0  0  0  0  0  0  0  0  0  0
   23.3290   13.6430    7.5290 O   0  0  0  0  0  0  0  0  0  0  0  0
   23.5400   14.9150    9.8170 C   0  0  0  0  0  0  0  0  0  0  0  0
   24.7460   15.4750    9.3590 C   0  0  0  0  0  0  0  0  0  0  0  0
   25.5800   16.1810   10.2280 C   0  0  0  0  0  0  0  0  0  0  0  0
   25.2510   16.3490   11.5850 C   0  0  0  0  0  0  0  0  0  0  0  0
   26.1650   17.1110   12.4710 C   0  0  0  0  0  0  0  0  0  0  0  0
   27.1350   17.6910   11.9940 O   0  0  0  0  0  0  0  0  0  0  0  0
   25.8740   17.1380   13.8120 N   0  0  0  0  0  0  0  0  0  0  0  0
   26.6300   17.9520   14.7500 C   0  0  2  0  0  0  0  0  0  0  0  0
   26.1760   17.7380   16.1910 C   0  0  0  0  0  0  0  0  0  0  0  0
   26.9900   18.6290   17.1170 C   0  0  0  0  0  0  0  0  0  0  0  0
   26.8940   20.0790   16.7050 C   0  0  0  0  0  0  0  0  0  0  0  0
   26.9110   20.9970   17.5210 O   0  0  0  0  0  0  0  0  0  0  0  0
   26.8180   20.3330   15.3600 N   0  0  0  0  0  0  0  0  0  0  0  0
   26.4560   19.4310   14.3880 C   0  0  0  0  0  0  0  0  0  0  0  0
   26.0340   19.8130   13.2980 O   0  0  0  0  0  0  0  0  0  0  0  0
   24.0520   15.7660   12.0090 C   0  0  0  0  0  0  0  0  0  0  0  0
   23.5450   15.8030   13.2770 O   0  0  0  0  0  0  0  0  0  0  0  0
   22.3780   15.1170   13.2720 C   0  0  0  0  0  0  0  0  0  0  0  0
   22.1140   14.6310   12.0130 C   0  0  0  0  0  0  0  0  0  0  0  0
   23.1890   15.0520   11.1760 C   0  0  0  0  0  0  0  0  0  0  0  0
   21.4990   15.6860    6.7880 C   0  0  0  0  0  0  0  0  0  0  0  0
   20.4670   16.4740    6.5680 N   0  0  0  0  0  0  0  0  0  0  0  0
   18.8815   19.2845    8.7111 H   0  0  0  0  0  0  0  0  0  0  0  0
   19.7359   18.9616    7.1643 H   0  0  0  0  0  0  0  0  0  0  0  0
   17.9682   19.2812    7.1643 H   0  0  0  0  0  0  0  0  0  0  0  0
   18.0868   17.1550    8.8735 H   0  0  0  0  0  0  0  0  0  0  0  0
   17.8424   17.0209    7.0778 H   0  0  0  0  0  0  0  0  0  0  0  0
   20.0616   15.5297    9.7405 H   0  0  0  0  0  0  0  0  0  0  0  0
   25.0354   15.3554    8.3045 H   0  0  0  0  0  0  0  0  0  0  0  0
   26.5145   16.6152    9.8430 H   0  0  0  0  0  0  0  0  0  0  0  0
   25.0954   16.5635   14.1650 H   0  0  0  0  0  0  0  0  0  0  0  0
   27.6858   17.6516   14.6785 H   0  0  0  0  0  0  0  0  0  0  0  0
   25.1097   17.9926   16.2811 H   0  0  0  0  0  0  0  0  0  0  0  0
   26.3264   16.6847   16.4701 H   0  0  0  0  0  0  0  0  0  0  0  0
   26.6096   18.5219   18.1436 H   0  0  0  0  0  0  0  0  0  0  0  0
   28.0441   18.3200   17.0593 H   0  0  0  0  0  0  0  0  0  0  0  0
   27.0536   21.2864   15.0496 H   0  0  0  0  0  0  0  0  0  0  0  0
   21.7325   14.9693   14.1504 H   0  0  0  0  0  0  0  0  0  0  0  0
   21.2419   14.0329   11.7100 H   0  0  0  0  0  0  0  0  0  0  0  0
   22.2631   15.4299    6.0393 H   0  0  0  0  0  0  0  0  0  0  0  0
  1  2  1  0
  2  3  1  0
  3  4  2  0
  4  5  1  0
  5  6  1  0
  6  7  2  0
  6  8  2  0
  6  9  1  0
  9 10  2  0
 10 11  1  0
 11 12  2  0
 12 13  1  0
 13 14  2  0
 13 15  1  0
 15 16  1  0
 16 17  1  0
 17 18  1  0
 18 19  1  0
 19 20  2  0
 19 21  1  0
 21 22  1  0
 22 23  2  0
 12 24  1  0
 24 25  1  0
 25 26  1  0
 26 27  2  0
 27 28  1  0
  5 29  1  0
 29 30  2  0
 30  3  1  0
 28  9  1  0
 22 16  1  0
 28 24  2  0
  1 31  1  0
  1 32  1  0
  1 33  1  0
  2 34  1  0
  2 35  1  0
  4 36  1  0
 10 37  1  0
 11 38  1  0
 15 39  1  0
 16 40  1  1
 17 41  1  0
 17 42  1  0
 18 43  1  0
 18 44  1  0
 21 45  1  0
 26 46  1  0
 27 47  1  0
 29 48  1  0
M  END
>  <meeko>  (1284) 
{"is_sidechain": [true], "free_energy": -10.13, "intermolecular_energy": 0.0, "internal_energy": -10.13, "cluster_size": 17, "cluster_id": 1, "rank_in_cluster": 1}

>  <_RMSD_MCS_to_ref>  (1284) 
0.9501134435190114

$$$$
ligand
     RDKit          3D

 47 50  0  0  0  0  0  0  0  0999 V2000
   18.7970   18.8170    7.7190 C   0  0  0  0  0  0  0  0  0  0  0  0
   18.5280   17.3290    7.8810 C   0  0  0  0  0  0  0  0  0  0  0  0
   19.7190   16.5020    7.5450 C   0  0  0  0  0  0  0  0  0  0  0  0
   20.4240   15.6280    8.3490 C   0  0  0  0  0  0  0  0  0  0  0  0
   21.4000   15.1370    7.5310 N   0  0  0  0  0  0  0  0  0  0  0  0
   22.6600   14.1390    7.9900 S   0  0  0  0  0  6  0  0  0  0  0  0
   22.4530   12.8640    7.3310 O   0  0  0  0  0  0  0  0  0  0  0  0
   23.8830   14.9010    7.8310 O   0  0  0  0  0  0  0  0  0  0  0  0
   22.5500   13.7980    9.7020 C   0  0  0  0  0  0  0  0  0  0  0  0
   21.7460   12.9090   10.2690 N   0  0  0  0  0  0  0  0  0  0  0  0
   21.9980   12.9870   11.6180 C   0  0  0  0  0  0  0  0  0  0  0  0
   22.9620   13.9320   11.8690 C   0  0  0  0  0  0  0  0  0  0  0  0
   23.6330   14.4680   12.9880 C   0  0  0  0  0  0  0  0  0  0  0  0
   24.5520   15.4320   12.7750 C   0  0  0  0  0  0  0  0  0  0  0  0
   25.2580   15.9840   13.9930 C   0  0  0  0  0  0  0  0  0  0  0  0
   25.4970   15.3190   14.9940 O   0  0  0  0  0  0  0  0  0  0  0  0
   25.6140   17.3010   13.8470 N   0  0  0  0  0  0  0  0  0  0  0  0
   26.4420   17.9990   14.8120 C   0  0  2  0  0  0  0  0  0  0  0  0
   25.9200   17.8360   16.2370 C   0  0  0  0  0  0  0  0  0  0  0  0
   26.8140   18.6040   17.1970 C   0  0  0  0  0  0  0  0  0  0  0  0
   26.9220   20.0580   16.8020 C   0  0  0  0  0  0  0  0  0  0  0  0
   27.0430   20.9580   17.6270 O   0  0  0  0  0  0  0  0  0  0  0  0
   26.9110   20.3310   15.4570 N   0  0  0  0  0  0  0  0  0  0  0  0
   26.4790   19.4900   14.4610 C   0  0  0  0  0  0  0  0  0  0  0  0
   26.1660   19.9300   13.3550 O   0  0  0  0  0  0  0  0  0  0  0  0
   24.8910   15.9420   11.5220 N   0  0  0  0  0  0  0  0  0  0  0  0
   24.2690   15.4440   10.4900 C   0  0  0  0  0  0  0  0  0  0  0  0
   23.3090   14.4460   10.6410 N   0  0  0  0  0  0  0  0  0  0  0  0
   21.3130   15.7420    6.3200 C   0  0  0  0  0  0  0  0  0  0  0  0
   20.2810   16.5590    6.2860 N   0  0  0  0  0  0  0  0  0  0  0  0
   18.8815   19.2845    8.7111 H   0  0  0  0  0  0  0  0  0  0  0  0
   19.7359   18.9616    7.1643 H   0  0  0  0  0  0  0  0  0  0  0  0
   17.9682   19.2812    7.1643 H   0  0  0  0  0  0  0  0  0  0  0  0
   18.2433   17.1322    8.9251 H   0  0  0  0  0  0  0  0  0  0  0  0
   17.7199   17.0546    7.1869 H   0  0  0  0  0  0  0  0  0  0  0  0
   20.2410   15.3837    9.4058 H   0  0  0  0  0  0  0  0  0  0  0  0
   21.4986   12.3791   12.3868 H   0  0  0  0  0  0  0  0  0  0  0  0
   23.4132   14.1102   14.0047 H   0  0  0  0  0  0  0  0  0  0  0  0
   25.2799   17.8146   13.0190 H   0  0  0  0  0  0  0  0  0  0  0  0
   27.4505   17.5620   14.7675 H   0  0  0  0  0  0  0  0  0  0  0  0
   24.8941   18.2282   16.2985 H   0  0  0  0  0  0  0  0  0  0  0  0
   25.9227   16.7699   16.5080 H   0  0  0  0  0  0  0  0  0  0  0  0
   26.3914   18.5384   18.2105 H   0  0  0  0  0  0  0  0  0  0  0  0
   27.8199   18.1599   17.1654 H   0  0  0  0  0  0  0  0  0  0  0  0
   27.2603   21.2555   15.1668 H   0  0  0  0  0  0  0  0  0  0  0  0
   24.5063   15.8182    9.4832 H   0  0  0  0  0  0  0  0  0  0  0  0
   22.0073   15.5736    5.4836 H   0  0  0  0  0  0  0  0  0  0  0  0
  1  2  1  0
  2  3  1  0
  3  4  2  0
  4  5  1  0
  5  6  1  0
  6  7  2  0
  6  8  2  0
  6  9  1  0
  9 10  2  0
 10 11  1  0
 11 12  2  0
 12 13  1  0
 13 14  2  0
 14 15  1  0
 15 16  2  0
 15 17  1  0
 17 18  1  0
 18 19  1  0
 19 20  1  0
 20 21  1  0
 21 22  2  0
 21 23  1  0
 23 24  1  0
 24 25  2  0
 14 26  1  0
 26 27  2  0
 27 28  1  0
  5 29  1  0
 29 30  2  0
 30  3  1  0
 28  9  1  0
 28 12  1  0
 24 18  1  0
  1 31  1  0
  1 32  1  0
  1 33  1  0
  2 34  1  0
  2 35  1  0
  4 36  1  0
 11 37  1  0
 13 38  1  0
 17 39  1  0
 18 40  1  1
 19 41  1  0
 19 42  1  0
 20 43  1  0
 20 44  1  0
 23 45  1  0
 27 46  1  0
 29 47  1  0
M  END
>  <meeko>  (1285) 
{"is_sidechain": [true], "free_energy": -10.13, "intermolecular_energy": 0.0, "internal_energy": -10.13, "cluster_size": 19, "cluster_id": 1, "rank_in_cluster": 1}

>  <_RMSD_MCS_to_ref>  (1285) 
0.8910107868158622

$$$$
ligand
     RDKit          3D

 49 52  0  0  0  0  0  0  0  0999 V2000
   18.7970   18.8170    7.7190 C   0  0  0  0  0  0  0  0  0  0  0  0
   18.5280   17.3290    7.8810 C   0  0  0  0  0  0  0  0  0  0  0  0
   19.7610   16.5130    7.7180 C   0  0  0  0  0  0  0  0  0  0  0  0
   20.2060   15.4490    8.4780 C   0  0  0  0  0  0  0  0  0  0  0  0
   21.3910   15.0950    7.8980 N   0  0  0  0  0  0  0  0  0  0  0  0
   22.3500   13.7820    8.3180 S   0  0  0  0  0  6  0  0  0  0  0  0
   23.7170   14.2090    8.0740 O   0  0  0  0  0  0  0  0  0  0  0  0
   21.7640   12.6410    7.6400 O   0  0  0  0  0  0  0  0  0  0  0  0
   22.1410   13.5590   10.0630 C   0  0  0  0  0  0  0  0  0  0  0  0
   21.1250   12.7250   10.3830 N   0  0  0  0  0  0  0  0  0  0  0  0
   20.9490   12.5370   11.6890 C   0  0  0  0  0  0  0  0  0  0  0  0
   21.6780   13.0980   12.6630 N   0  0  0  0  0  0  0  0  0  0  0  0
   22.6750   13.9190   12.3080 C   0  0  0  0  0  0  0  0  0  0  0  0
   23.4330   14.5010   13.3160 C   0  0  0  0  0  0  0  0  0  0  0  0
   24.4900   15.3750   13.0320 C   0  0  0  0  0  0  0  0  0  0  0  0
   25.3130   15.9980   14.1050 C   0  0  0  0  0  0  0  0  0  0  0  0
   25.8250   15.3000   14.9730 O   0  0  0  0  0  0  0  0  0  0  0  0
   25.4860   17.3620   14.0410 N   0  0  0  0  0  0  0  0  0  0  0  0
   26.3940   18.0450   14.9530 C   0  0  2  0  0  0  0  0  0  0  0  0
   25.9450   17.9340   16.4070 C   0  0  0  0  0  0  0  0  0  0  0  0
   26.9120   18.7000   17.2960 C   0  0  0  0  0  0  0  0  0  0  0  0
   27.0380   20.1390   16.8550 C   0  0  0  0  0  0  0  0  0  0  0  0
   27.2220   21.0580   17.6480 O   0  0  0  0  0  0  0  0  0  0  0  0
   26.9700   20.3780   15.5050 N   0  0  0  0  0  0  0  0  0  0  0  0
   26.4540   19.5240   14.5630 C   0  0  0  0  0  0  0  0  0  0  0  0
   26.0790   19.9370   13.4650 O   0  0  0  0  0  0  0  0  0  0  0  0
   24.8100   15.6530   11.7030 C   0  0  0  0  0  0  0  0  0  0  0  0
   24.0630   15.0810   10.6760 C   0  0  0  0  0  0  0  0  0  0  0  0
   22.9820   14.2080   10.9740 C   0  0  0  0  0  0  0  0  0  0  0  0
   21.6140   15.8910    6.8190 C   0  0  0  0  0  0  0  0  0  0  0  0
   20.6450   16.7750    6.6890 N   0  0  0  0  0  0  0  0  0  0  0  0
   18.8815   19.2845    8.7111 H   0  0  0  0  0  0  0  0  0  0  0  0
   19.7359   18.9616    7.1643 H   0  0  0  0  0  0  0  0  0  0  0  0
   17.9682   19.2812    7.1643 H   0  0  0  0  0  0  0  0  0  0  0  0
   18.1158   17.1510    8.8852 H   0  0  0  0  0  0  0  0  0  0  0  0
   17.8179   17.0274    7.0969 H   0  0  0  0  0  0  0  0  0  0  0  0
   19.7177   14.9912    9.3509 H   0  0  0  0  0  0  0  0  0  0  0  0
   20.1351   11.8631   11.9948 H   0  0  0  0  0  0  0  0  0  0  0  0
   23.1969   14.2694   14.3651 H   0  0  0  0  0  0  0  0  0  0  0  0
   24.9663   17.9074   13.3386 H   0  0  0  0  0  0  0  0  0  0  0  0
   27.3816   17.5675   14.8718 H   0  0  0  0  0  0  0  0  0  0  0  0
   24.9355   18.3581   16.5124 H   0  0  0  0  0  0  0  0  0  0  0  0
   25.9312   16.8757   16.7067 H   0  0  0  0  0  0  0  0  0  0  0  0
   26.5442   18.6734   18.3323 H   0  0  0  0  0  0  0  0  0  0  0  0
   27.9018   18.2258   17.2229 H   0  0  0  0  0  0  0  0  0  0  0  0
   27.3393   21.2789   15.1691 H   0  0  0  0  0  0  0  0  0  0  0  0
   25.6503   16.3224   11.4667 H   0  0  0  0  0  0  0  0  0  0  0  0
   24.3112   15.3063    9.6283 H   0  0  0  0  0  0  0  0  0  0  0  0
   22.4818   15.8089    6.1481 H   0  0  0  0  0  0  0  0  0  0  0  0
  1  2  1  0
  2  3  1  0
  3  4  2  0
  4  5  1  0
  5  6  1  0
  6  7  2  0
  6  8  2  0
  6  9  1  0
  9 10  2  0
 10 11  1  0
 11 12  2  0
 12 13  1  0
 13 14  2  0
 14 15  1  0
 15 16  1  0
 16 17  2  0
 16 18  1  0
 18 19  1  0
 19 20  1  0
 20 21  1  0
 21 22  1  0
 22 23  2  0
 22 24  1  0
 24 25  1  0
 25 26  2  0
 15 27  2  0
 27 28  1  0
 28 29  2  0
  5 30  1  0
 30 31  2  0
 31  3  1  0
 29  9  1  0
 29 13  1  0
 25 19  1  0
  1 32  1  0
  1 33  1  0
  1 34  1  0
  2 35  1  0
  2 36  1  0
  4 37  1  0
 11 38  1  0
 14 39  1  0
 18 40  1  0
 19 41  1  1
 20 42  1  0
 20 43  1  0
 21 44  1  0
 21 45  1  0
 24 46  1  0
 27 47  1  0
 28 48  1  0
 30 49  1  0
M  END
>  <meeko>  (1286) 
{"is_sidechain": [true], "free_energy": -10.13, "intermolecular_energy": 0.0, "internal_energy": -10.13, "cluster_size": 16, "cluster_id": 1, "rank_in_cluster": 1}

>  <_RMSD_MCS_to_ref>  (1286) 
0.8723070942429997

$$$$
ligand
     RDKit          3D

 47 50  0  0  0  0  0  0  0  0999 V2000
   18.7970   18.8170    7.7190 C   0  0  0  0  0  0  0  0  0  0  0  0
   18.5280   17.3290    7.8810 C   0  0  0  0  0  0  0  0  0  0  0  0
   19.7760   16.5220    7.8060 C   0  0  0  0  0  0  0  0  0  0  0  0
   20.6520   16.1800    8.8180 C   0  0  0  0  0  0  0  0  0  0  0  0
   21.6280   15.4620    8.1870 N   0  0  0  0  0  0  0  0  0  0  0  0
   22.8600   14.6080    8.9460 S   0  0  0  0  0  6  0  0  0  0  0  0
   22.9910   13.3580    8.2240 O   0  0  0  0  0  0  0  0  0  0  0  0
   23.9570   15.5470    9.0810 O   0  0  0  0  0  0  0  0  0  0  0  0
   22.2020   14.2630   10.5580 C   0  0  0  0  0  0  0  0  0  0  0  0
   20.9780   13.6120   10.6780 C   0  0  0  0  0  0  0  0  0  0  0  0
   20.4510   13.3410   11.9430 C   0  0  0  0  0  0  0  0  0  0  0  0
   21.1820   13.7430   13.0760 C   0  0  0  0  0  0  0  0  0  0  0  0
   20.7940   13.5520   14.7360 S   0  0  0  0  0  0  0  0  0  0  0  0
   22.1430   14.2840   15.3340 N   0  0  0  0  0  0  0  0  0  0  0  0
   22.9180   14.6930   14.3180 C   0  0  0  0  0  0  0  0  0  0  0  0
   24.1920   15.3750   14.6180 C   0  0  0  0  0  0  0  0  0  0  0  0
   25.2520   14.7790   14.7850 O   0  0  0  0  0  0  0  0  0  0  0  0
   24.0980   16.7470   14.6870 N   0  0  0  0  0  0  0  0  0  0  0  0
   25.2610   17.6050   14.8210 C   0  0  2  0  0  0  0  0  0  0  0  0
   25.7050   17.7410   16.2730 C   0  0  0  0  0  0  0  0  0  0  0  0
   26.9080   18.6680   16.3530 C   0  0  0  0  0  0  0  0  0  0  0  0
   26.6080   20.0100   15.7300 C   0  0  0  0  0  0  0  0  0  0  0  0
   27.1020   21.0550   16.1450 O   0  0  0  0  0  0  0  0  0  0  0  0
   25.7750   20.0090   14.6400 N   0  0  0  0  0  0  0  0  0  0  0  0
   24.9280   18.9940   14.2660 C   0  0  0  0  0  0  0  0  0  0  0  0
   23.9780   19.2070   13.5150 O   0  0  0  0  0  0  0  0  0  0  0  0
   22.4090   14.4070   12.9860 C   0  0  0  0  0  0  0  0  0  0  0  0
   22.9190   14.6770   11.6900 C   0  0  0  0  0  0  0  0  0  0  0  0
   21.3130   15.3410    6.8720 C   0  0  0  0  0  0  0  0  0  0  0  0
   20.1940   15.9840    6.6040 N   0  0  0  0  0  0  0  0  0  0  0  0
   18.8815   19.2845    8.7111 H   0  0  0  0  0  0  0  0  0  0  0  0
   19.7359   18.9616    7.1643 H   0  0  0  0  0  0  0  0  0  0  0  0
   17.9682   19.2812    7.1643 H   0  0  0  0  0  0  0  0  0  0  0  0
   18.0541   17.1589    8.8590 H   0  0  0  0  0  0  0  0  0  0  0  0
   17.8706   17.0125    7.0578 H   0  0  0  0  0  0  0  0  0  0  0  0
   20.5801   16.4288    9.8871 H   0  0  0  0  0  0  0  0  0  0  0  0
   20.4250   13.3106    9.7761 H   0  0  0  0  0  0  0  0  0  0  0  0
   19.4857   12.8247   12.0510 H   0  0  0  0  0  0  0  0  0  0  0  0
   23.1653   17.1817   14.6417 H   0  0  0  0  0  0  0  0  0  0  0  0
   26.0859   17.1462   14.2562 H   0  0  0  0  0  0  0  0  0  0  0  0
   24.8809   18.1580   16.8705 H   0  0  0  0  0  0  0  0  0  0  0  0
   25.9796   16.7509   16.6657 H   0  0  0  0  0  0  0  0  0  0  0  0
   27.1773   18.8154   17.4093 H   0  0  0  0  0  0  0  0  0  0  0  0
   27.7396   18.2065   15.8004 H   0  0  0  0  0  0  0  0  0  0  0  0
   25.7856   20.8497   14.0450 H   0  0  0  0  0  0  0  0  0  0  0  0
   23.8743   15.2097   11.5733 H   0  0  0  0  0  0  0  0  0  0  0  0
   21.9084   14.7842    6.1334 H   0  0  0  0  0  0  0  0  0  0  0  0
  1  2  1  0
  2  3  1  0
  3  4  2  0
  4  5  1  0
  5  6  1  0
  6  7  2  0
  6  8  2  0
  6  9  1  0
  9 10  2  0
 10 11  1  0
 11 12  2  0
 12 13  1  0
 13 14  1  0
 14 15  2  0
 15 16  1  0
 16 17  2  0
 16 18  1  0
 18 19  1  0
 19 20  1  0
 20 21  1  0
 21 22  1  0
 22 23  2  0
 22 24  1  0
 24 25  1  0
 25 26  2  0
 15 27  1  0
 27 28  2  0
  5 29  1  0
 29 30  2  0
 30  3  1  0
 28  9  1  0
 27 12  1  0
 25 19  1  0
  1 31  1  0
  1 32  1  0
  1 33  1  0
  2 34  1  0
  2 35  1  0
  4 36  1  0
 10 37  1  0
 11 38  1  0
 18 39  1  0
 19 40  1  6
 20 41  1  0
 20 42  1  0
 21 43  1  0
 21 44  1  0
 24 45  1  0
 28 46  1  0
 29 47  1  0
M  END
>  <meeko>  (1287) 
{"is_sidechain": [true], "free_energy": -10.13, "intermolecular_energy": 0.0, "internal_energy": -10.13, "cluster_size": 10, "cluster_id": 1, "rank_in_cluster": 1}

>  <_RMSD_MCS_to_ref>  (1287) 
0.9872671596100238

$$$$
ligand
     RDKit          3D

 46 49  0  0  0  0  0  0  0  0999 V2000
   18.7970   18.8170    7.7190 C   0  0  0  0  0  0  0  0  0  0  0  0
   18.5280   17.3290    7.8810 C   0  0  0  0  0  0  0  0  0  0  0  0
   19.7840   16.5330    7.9270 C   0  0  0  0  0  0  0  0  0  0  0  0
   20.4770   16.0670    9.0270 C   0  0  0  0  0  0  0  0  0  0  0  0
   21.5340   15.3870    8.4930 N   0  0  0  0  0  0  0  0  0  0  0  0
   22.8050   14.7140    9.3440 S   0  0  0  0  0  6  0  0  0  0  0  0
   23.3930   13.6990    8.4890 O   0  0  0  0  0  0  0  0  0  0  0  0
   23.5750   15.8140    9.8920 O   0  0  0  0  0  0  0  0  0  0  0  0
   22.2170   13.8460   10.7280 C   0  0  0  0  0  0  0  0  0  0  0  0
   21.2080   12.9780   10.6120 N   0  0  0  0  0  0  0  0  0  0  0  0
   20.9000   12.3390   12.1140 S   0  0  0  0  0  0  0  0  0  0  0  0
   22.1100   13.2140   12.9340 C   0  0  0  0  0  0  0  0  0  0  0  0
   22.3300   13.0970   14.2580 N   0  0  0  0  0  0  0  0  0  0  0  0
   23.3350   13.8860   14.7120 C   0  0  0  0  0  0  0  0  0  0  0  0
   24.1090   14.7400   13.9340 C   0  0  0  0  0  0  0  0  0  0  0  0
   25.1690   15.5340   14.6000 C   0  0  0  0  0  0  0  0  0  0  0  0
   26.1530   14.9720   15.0660 O   0  0  0  0  0  0  0  0  0  0  0  0
   24.9990   16.9000   14.6410 N   0  0  0  0  0  0  0  0  0  0  0  0
   26.0490   17.7710   15.1560 C   0  0  2  0  0  0  0  0  0  0  0  0
   26.1640   17.7000   16.6750 C   0  0  0  0  0  0  0  0  0  0  0  0
   27.2450   18.6600   17.1470 C   0  0  0  0  0  0  0  0  0  0  0  0
   26.9750   20.0680   16.6680 C   0  0  0  0  0  0  0  0  0  0  0  0
   27.2780   21.0570   17.3280 O   0  0  0  0  0  0  0  0  0  0  0  0
   26.3960   20.1960   15.4320 N   0  0  0  0  0  0  0  0  0  0  0  0
   25.7280   19.2110   14.7480 C   0  0  0  0  0  0  0  0  0  0  0  0
   24.9310   19.4830   13.8500 O   0  0  0  0  0  0  0  0  0  0  0  0
   23.8320   14.8290   12.5640 C   0  0  0  0  0  0  0  0  0  0  0  0
   22.7890   14.0310   12.0370 C   0  0  0  0  0  0  0  0  0  0  0  0
   21.4970   15.4990    7.1410 C   0  0  0  0  0  0  0  0  0  0  0  0
   20.4310   16.1700    6.7610 N   0  0  0  0  0  0  0  0  0  0  0  0
   18.8815   19.2845    8.7111 H   0  0  0  0  0  0  0  0  0  0  0  0
   19.7359   18.9616    7.1643 H   0  0  0  0  0  0  0  0  0  0  0  0
   17.9682   19.2812    7.1643 H   0  0  0  0  0  0  0  0  0  0  0  0
   17.9727   17.1692    8.8170 H   0  0  0  0  0  0  0  0  0  0  0  0
   17.9473   16.9937    7.0090 H   0  0  0  0  0  0  0  0  0  0  0  0
   20.2333   16.2107   10.0900 H   0  0  0  0  0  0  0  0  0  0  0  0
   23.5572   13.8472   15.7886 H   0  0  0  0  0  0  0  0  0  0  0  0
   24.1177   17.3123   14.3031 H   0  0  0  0  0  0  0  0  0  0  0  0
   27.0083   17.4377   14.7334 H   0  0  0  0  0  0  0  0  0  0  0  0
   25.2018   17.9794   17.1290 H   0  0  0  0  0  0  0  0  0  0  0  0
   26.4273   16.6750   16.9753 H   0  0  0  0  0  0  0  0  0  0  0  0
   27.2739   18.6548   18.2466 H   0  0  0  0  0  0  0  0  0  0  0  0
   28.2085   18.3301   16.7313 H   0  0  0  0  0  0  0  0  0  0  0  0
   26.4689   21.1159   14.9745 H   0  0  0  0  0  0  0  0  0  0  0  0
   24.4105   15.5021   11.9142 H   0  0  0  0  0  0  0  0  0  0  0  0
   22.2535   15.0860    6.4575 H   0  0  0  0  0  0  0  0  0  0  0  0
  1  2  1  0
  2  3  1  0
  3  4  2  0
  4  5  1  0
  5  6  1  0
  6  7  2  0
  6  8  2  0
  6  9  1  0
  9 10  2  0
 10 11  1  0
 11 12  1  0
 12 13  2  0
 13 14  1  0
 14 15  2  0
 15 16  1  0
 16 17  2  0
 16 18  1  0
 18 19  1  0
 19 20  1  0
 20 21  1  0
 21 22  1  0
 22 23  2  0
 22 24  1  0
 24 25  1  0
 25 26  2  0
 15 27  1  0
 27 28  2  0
  5 29  1  0
 29 30  2  0
 30  3  1  0
 28  9  1  0
 28 12  1  0
 25 19  1  0
  1 31  1  0
  1 32  1  0
  1 33  1  0
  2 34  1  0
  2 35  1  0
  4 36  1  0
 14 37  1  0
 18 38  1  0
 19 39  1  6
 20 40  1  0
 20 41  1  0
 21 42  1  0
 21 43  1  0
 24 44  1  0
 27 45  1  0
 29 46  1  0
M  END
>  <meeko>  (1288) 
{"is_sidechain": [true], "free_energy": -10.13, "intermolecular_energy": 0.0, "internal_energy": -10.13, "cluster_size": 15, "cluster_id": 1, "rank_in_cluster": 1}

>  <_RMSD_MCS_to_ref>  (1288) 
0.7176906637882988

$$$$
ligand
     RDKit          3D

 54 57  0  0  0  0  0  0  0  0999 V2000
   18.7970   18.8170    7.7190 C   0  0  0  0  0  0  0  0  0  0  0  0
   18.5280   17.3290    7.8810 C   0  0  0  0  0  0  0  0  0  0  0  0
   19.7720   16.5560    8.1410 C   0  0  0  0  0  0  0  0  0  0  0  0
   20.3100   16.1580    9.3490 C   0  0  0  0  0  0  0  0  0  0  0  0
   21.4410   15.4760    9.0020 N   0  0  0  0  0  0  0  0  0  0  0  0
   22.6010   14.9150   10.0710 S   0  0  0  0  0  6  0  0  0  0  0  0
   23.5740   15.9870   10.1450 O   0  0  0  0  0  0  0  0  0  0  0  0
   22.9730   13.5740    9.6670 O   0  0  0  0  0  0  0  0  0  0  0  0
   21.9610   14.7430   11.6560 C   0  0  0  0  0  0  0  0  0  0  0  0
   22.6040   15.1730   12.8460 C   0  0  0  0  0  0  0  0  0  0  0  0
   23.9060   15.8350   13.0040 C   0  0  0  0  0  0  0  0  0  0  0  0
   24.8050   15.7510   12.1760 O   0  0  0  0  0  0  0  0  0  0  0  0
   24.0280   16.5470   14.1720 N   0  0  0  0  0  0  0  0  0  0  0  0
   25.1670   17.3990   14.4560 C   0  0  2  0  0  0  0  0  0  0  0  0
   25.4930   17.4390   15.9450 C   0  0  0  0  0  0  0  0  0  0  0  0
   26.6780   18.3630   16.1820 C   0  0  0  0  0  0  0  0  0  0  0  0
   26.4150   19.7430   15.6280 C   0  0  0  0  0  0  0  0  0  0  0  0
   26.8550   20.7600   16.1560 O   0  0  0  0  0  0  0  0  0  0  0  0
   25.6760   19.8110   14.4740 N   0  0  0  0  0  0  0  0  0  0  0  0
   24.8670   18.8210   13.9710 C   0  0  0  0  0  0  0  0  0  0  0  0
   23.9750   19.0850   13.1640 O   0  0  0  0  0  0  0  0  0  0  0  0
   21.8460   14.8940   13.9260 N   0  0  0  0  0  0  0  0  0  0  0  0
   20.7530   14.2960   13.4230 N   0  0  0  0  0  0  0  0  0  0  0  0
   20.7440   14.2100   12.0580 C   0  0  0  0  0  0  0  0  0  0  0  0
   19.5940   13.6190   11.3320 C   0  0  0  0  0  0  0  0  0  0  0  0
   18.3910   14.4100   11.5760 N   0  0  0  0  0  0  0  0  0  0  0  0
   17.6840   14.0270   12.7990 C   0  0  0  0  0  0  0  0  0  0  0  0
   18.3720   14.4600   14.0960 C   0  0  0  0  0  0  0  0  0  0  0  0
   19.7290   13.8010   14.3250 C   0  0  0  0  0  0  0  0  0  0  0  0
   21.5980   15.5290    7.6550 C   0  0  0  0  0  0  0  0  0  0  0  0
   20.5830   16.1590    7.0960 N   0  0  0  0  0  0  0  0  0  0  0  0
   18.8815   19.2845    8.7111 H   0  0  0  0  0  0  0  0  0  0  0  0
   19.7359   18.9616    7.1643 H   0  0  0  0  0  0  0  0  0  0  0  0
   17.9682   19.2812    7.1643 H   0  0  0  0  0  0  0  0  0  0  0  0
   17.8383   17.1840    8.7255 H   0  0  0  0  0  0  0  0  0  0  0  0
   18.0933   16.9610    6.9399 H   0  0  0  0  0  0  0  0  0  0  0  0
   19.9175   16.3470   10.3591 H   0  0  0  0  0  0  0  0  0  0  0  0
   23.2795   16.4729   14.8757 H   0  0  0  0  0  0  0  0  0  0  0  0
   26.0381   16.9824   13.9290 H   0  0  0  0  0  0  0  0  0  0  0  0
   24.6204   17.8123   16.5011 H   0  0  0  0  0  0  0  0  0  0  0  0
   25.7440   16.4258   16.2919 H   0  0  0  0  0  0  0  0  0  0  0  0
   26.8621   18.4399   17.2638 H   0  0  0  0  0  0  0  0  0  0  0  0
   27.5550   17.9430   15.6678 H   0  0  0  0  0  0  0  0  0  0  0  0
   25.7331   20.6863   13.9341 H   0  0  0  0  0  0  0  0  0  0  0  0
   19.8105   13.6080   10.2536 H   0  0  0  0  0  0  0  0  0  0  0  0
   19.4300   12.5917   11.6895 H   0  0  0  0  0  0  0  0  0  0  0  0
   18.6612   15.4011   11.6514 H   0  0  0  0  0  0  0  0  0  0  0  0
   16.6830   14.4823   12.7733 H   0  0  0  0  0  0  0  0  0  0  0  0
   17.6582   12.9274   12.8123 H   0  0  0  0  0  0  0  0  0  0  0  0
   18.5171   15.5499   14.0641 H   0  0  0  0  0  0  0  0  0  0  0  0
   17.7200   14.1452   14.9241 H   0  0  0  0  0  0  0  0  0  0  0  0
   20.0460   13.9991   15.3595 H   0  0  0  0  0  0  0  0  0  0  0  0
   19.6112   12.7241   14.1340 H   0  0  0  0  0  0  0  0  0  0  0  0
   22.4522   15.1058    7.1062 H   0  0  0  0  0  0  0  0  0  0  0  0
  1  2  1  0
  2  3  1  0
  3  4  2  0
  4  5  1  0
  5  6  1  0
  6  7  2  0
  6  8  2  0
  6  9  1  0
  9 10  1  0
 10 11  1  0
 11 12  2  0
 11 13  1  0
 13 14  1  0
 14 15  1  0
 15 16  1  0
 16 17  1  0
 17 18  2  0
 17 19  1  0
 19 20  1  0
 20 21  2  0
 10 22  2  0
 22 23  1  0
 23 24  1  0
 24 25  1  0
 25 26  1  0
 26 27  1  0
 27 28  1  0
 28 29  1  0
  5 30  1  0
 30 31  2  0
 31  3  1  0
 24  9  2  0
 20 14  1  0
 29 23  1  0
  1 32  1  0
  1 33  1  0
  1 34  1  0
  2 35  1  0
  2 36  1  0
  4 37  1  0
 13 38  1  0
 14 39  1  6
 15 40  1  0
 15 41  1  0
 16 42  1  0
 16 43  1  0
 19 44  1  0
 25 45  1  0
 25 46  1  0
 26 47  1  0
 27 48  1  0
 27 49  1  0
 28 50  1  0
 28 51  1  0
 29 52  1  0
 29 53  1  0
 30 54  1  0
M  END
>  <meeko>  (1289) 
{"is_sidechain": [true], "free_energy": -10.13, "intermolecular_energy": 0.06, "internal_energy": -10.19, "cluster_size": 11, "cluster_id": 1, "rank_in_cluster": 1}

>  <_RMSD_MCS_to_ref>  (1289) 
1.1316481098134903

$$$$
ligand
     RDKit          3D

 45 48  0  0  0  0  0  0  0  0999 V2000
   18.7970   18.8170    7.7190 C   0  0  0  0  0  0  0  0  0  0  0  0
   18.5280   17.3290    7.8810 C   0  0  0  0  0  0  0  0  0  0  0  0
   19.7740   16.5210    7.7870 C   0  0  0  0  0  0  0  0  0  0  0  0
   20.4380   15.8290    8.7820 C   0  0  0  0  0  0  0  0  0  0  0  0
   21.5150   15.2810    8.1460 N   0  0  0  0  0  0  0  0  0  0  0  0
   22.6440   14.2410    8.8260 S   0  0  0  0  0  6  0  0  0  0  0  0
   21.8990   13.0770    9.2700 O   0  0  0  0  0  0  0  0  0  0  0  0
   23.7210   14.1460    7.8560 O   0  0  0  0  0  0  0  0  0  0  0  0
   23.2680   15.0780   10.2580 C   0  0  0  0  0  0  0  0  0  0  0  0
   24.6030   15.4550   10.3030 C   0  0  0  0  0  0  0  0  0  0  0  0
   25.0530   16.1120   11.4480 C   0  0  0  0  0  0  0  0  0  0  0  0
   24.1590   16.3670   12.4920 C   0  0  0  0  0  0  0  0  0  0  0  0
   24.5610   17.0560   13.7330 C   0  0  0  0  0  0  0  0  0  0  0  0
   23.7630   17.8240   14.4020 N   0  0  0  0  0  0  0  0  0  0  0  0
   24.4810   18.3130   15.5150 O   0  0  0  0  0  0  0  0  0  0  0  0
   25.8730   18.0590   15.3010 C   0  0  2  0  0  0  0  0  0  0  0  0
   26.5360   17.7370   16.6400 C   0  0  0  0  0  0  0  0  0  0  0  0
   26.4140   18.9230   17.5900 C   0  0  0  0  0  0  0  0  0  0  0  0
   26.9510   20.1870   16.9640 C   0  0  0  0  0  0  0  0  0  0  0  0
   27.5570   21.0360   17.6100 O   0  0  0  0  0  0  0  0  0  0  0  0
   26.7280   20.3500   15.6200 N   0  0  0  0  0  0  0  0  0  0  0  0
   26.5260   19.3230   14.7290 C   0  0  0  0  0  0  0  0  0  0  0  0
   26.8940   19.4310   13.5600 O   0  0  0  0  0  0  0  0  0  0  0  0
   25.9160   16.8900   14.3350 C   0  0  0  0  0  0  0  0  0  0  0  0
   22.8390   15.9450   12.3430 C   0  0  0  0  0  0  0  0  0  0  0  0
   22.3680   15.3030   11.2450 N   0  0  0  0  0  0  0  0  0  0  0  0
   21.4650   15.6030    6.8280 C   0  0  0  0  0  0  0  0  0  0  0  0
   20.4280   16.3760    6.5790 N   0  0  0  0  0  0  0  0  0  0  0  0
   18.8815   19.2845    8.7111 H   0  0  0  0  0  0  0  0  0  0  0  0
   19.7359   18.9616    7.1643 H   0  0  0  0  0  0  0  0  0  0  0  0
   17.9682   19.2812    7.1643 H   0  0  0  0  0  0  0  0  0  0  0  0
   18.0672   17.1570    8.8649 H   0  0  0  0  0  0  0  0  0  0  0  0
   17.8588   17.0153    7.0663 H   0  0  0  0  0  0  0  0  0  0  0  0
   20.1622   15.7400    9.8431 H   0  0  0  0  0  0  0  0  0  0  0  0
   25.2827   15.2429    9.4645 H   0  0  0  0  0  0  0  0  0  0  0  0
   26.1037   16.4272   11.5290 H   0  0  0  0  0  0  0  0  0  0  0  0
   26.0431   16.8614   17.0876 H   0  0  0  0  0  0  0  0  0  0  0  0
   27.6015   17.5236   16.4693 H   0  0  0  0  0  0  0  0  0  0  0  0
   25.3538   19.0713   17.8431 H   0  0  0  0  0  0  0  0  0  0  0  0
   27.0039   18.7058   18.4927 H   0  0  0  0  0  0  0  0  0  0  0  0
   26.7107   21.3119   15.2520 H   0  0  0  0  0  0  0  0  0  0  0  0
   26.7175   16.9970   13.5893 H   0  0  0  0  0  0  0  0  0  0  0  0
   26.1248   15.9067   14.7816 H   0  0  0  0  0  0  0  0  0  0  0  0
   22.1367   16.1447   13.1657 H   0  0  0  0  0  0  0  0  0  0  0  0
   22.1900   15.2652    6.0728 H   0  0  0  0  0  0  0  0  0  0  0  0
  1  2  1  0
  2  3  1  0
  3  4  2  0
  4  5  1  0
  5  6  1  0
  6  7  2  0
  6  8  2  0
  6  9  1  0
  9 10  2  0
 10 11  1  0
 11 12  2  0
 12 13  1  0
 13 14  2  0
 14 15  1  0
 16 15  1  1
 16 17  1  0
 17 18  1  0
 18 19  1  0
 19 20  2  0
 19 21  1  0
 21 22  1  0
 22 23  2  0
 16 24  1  0
 12 25  1  0
 25 26  2  0
  5 27  1  0
 27 28  2  0
 28  3  1  0
 26  9  1  0
 24 13  1  0
 22 16  1  0
  1 29  1  0
  1 30  1  0
  1 31  1  0
  2 32  1  0
  2 33  1  0
  4 34  1  0
 10 35  1  0
 11 36  1  0
 17 37  1  0
 17 38  1  0
 18 39  1  0
 18 40  1  0
 21 41  1  0
 24 42  1  0
 24 43  1  0
 25 44  1  0
 27 45  1  0
M  END
>  <meeko>  (1290) 
{"is_sidechain": [true], "free_energy": -10.13, "intermolecular_energy": 0.0, "internal_energy": -10.13, "cluster_size": 13, "cluster_id": 1, "rank_in_cluster": 1}

>  <_RMSD_MCS_to_ref>  (1290) 
1.030793019960845

$$$$
ligand
     RDKit          3D

 52 56  0  0  0  0  0  0  0  0999 V2000
   18.9090   19.1540    7.5370 C   0  0  0  0  0  0  0  0  0  0  0  0
   18.7730   17.6460    7.6780 C   0  0  0  0  0  0  0  0  0  0  0  0
   19.6220   16.9120    6.7010 C   0  0  0  0  0  0  0  0  0  0  0  0
   20.9550   16.5640    6.7980 C   0  0  0  0  0  0  0  0  0  0  0  0
   21.2110   15.8860    5.6410 N   0  0  0  0  0  0  0  0  0  0  0  0
   22.7190   15.3960    5.0960 S   0  0  0  0  0  6  0  0  0  0  0  0
   22.4800   14.2500    4.2380 O   0  0  0  0  0  0  0  0  0  0  0  0
   23.3810   16.6020    4.6320 O   0  0  0  0  0  0  0  0  0  0  0  0
   23.6230   14.8220    6.4940 C   0  0  0  0  0  0  0  0  0  0  0  0
   23.5240   15.3000    7.7170 N   0  0  0  0  0  0  0  0  0  0  0  0
   24.3870   14.6120    8.5610 C   0  0  0  0  0  0  0  0  0  0  0  0
   24.4660   14.9570    9.9820 C   0  0  0  0  0  0  0  0  0  0  0  0
   24.0580   14.0590   10.9990 C   0  0  0  0  0  0  0  0  0  0  0  0
   24.1380   14.4080   12.3530 C   0  0  0  0  0  0  0  0  0  0  0  0
   24.6290   15.6610   12.6600 C   0  0  0  0  0  0  0  0  0  0  0  0
   25.0320   16.5670   11.6860 C   0  0  0  0  0  0  0  0  0  0  0  0
   24.9550   16.2290   10.3440 C   0  0  0  0  0  0  0  0  0  0  0  0
   25.4880   17.8360   12.3230 C   0  0  0  0  0  0  0  0  0  0  0  0
   25.3950   17.5270   13.7450 N   0  0  0  0  0  0  0  0  0  0  0  0
   25.4920   18.5350   14.7940 C   0  0  1  0  0  0  0  0  0  0  0  0
   26.0330   17.9650   16.1030 C   0  0  0  0  0  0  0  0  0  0  0  0
   26.0180   19.0510   17.1690 C   0  0  0  0  0  0  0  0  0  0  0  0
   26.7920   20.2680   16.7200 C   0  0  0  0  0  0  0  0  0  0  0  0
   27.4480   20.9530   17.4990 O   0  0  0  0  0  0  0  0  0  0  0  0
   26.7110   20.5910   15.3900 N   0  0  0  0  0  0  0  0  0  0  0  0
   26.3620   19.7320   14.3720 C   0  0  0  0  0  0  0  0  0  0  0  0
   26.7470   19.9420   13.2240 O   0  0  0  0  0  0  0  0  0  0  0  0
   24.8160   16.2870   13.9730 C   0  0  0  0  0  0  0  0  0  0  0  0
   24.5110   15.7840   15.0370 O   0  0  0  0  0  0  0  0  0  0  0  0
   25.1320   13.6280    7.9330 C   0  0  0  0  0  0  0  0  0  0  0  0
   24.7370   13.5540    6.2620 S   0  0  0  0  0  0  0  0  0  0  0  0
   20.0940   15.8940    4.8670 C   0  0  0  0  0  0  0  0  0  0  0  0
   19.1020   16.4940    5.4910 N   0  0  0  0  0  0  0  0  0  0  0  0
   18.9504   19.6134    8.5356 H   0  0  0  0  0  0  0  0  0  0  0  0
   19.8320   19.3891    6.9867 H   0  0  0  0  0  0  0  0  0  0  0  0
   18.0430   19.5504    6.9867 H   0  0  0  0  0  0  0  0  0  0  0  0
   19.0732   17.3567    8.6959 H   0  0  0  0  0  0  0  0  0  0  0  0
   17.7239   17.3813    7.4800 H   0  0  0  0  0  0  0  0  0  0  0  0
   21.6519   16.7832    7.6204 H   0  0  0  0  0  0  0  0  0  0  0  0
   23.6707   13.0681   10.7197 H   0  0  0  0  0  0  0  0  0  0  0  0
   23.8215   13.7099   13.1420 H   0  0  0  0  0  0  0  0  0  0  0  0
   25.2715   16.9444    9.5707 H   0  0  0  0  0  0  0  0  0  0  0  0
   26.5222   18.0759   12.0352 H   0  0  0  0  0  0  0  0  0  0  0  0
   24.8952   18.7135   12.0254 H   0  0  0  0  0  0  0  0  0  0  0  0
   24.4611   18.8815   14.9587 H   0  0  0  0  0  0  0  0  0  0  0  0
   25.4018   17.1241   16.4263 H   0  0  0  0  0  0  0  0  0  0  0  0
   27.0635   17.6107   15.9525 H   0  0  0  0  0  0  0  0  0  0  0  0
   24.9764   19.3422   17.3699 H   0  0  0  0  0  0  0  0  0  0  0  0
   26.4918   18.6529   18.0784 H   0  0  0  0  0  0  0  0  0  0  0  0
   26.9308   21.5629   15.1291 H   0  0  0  0  0  0  0  0  0  0  0  0
   25.8716   12.9851    8.4327 H   0  0  0  0  0  0  0  0  0  0  0  0
   20.0278   15.4593    3.8587 H   0  0  0  0  0  0  0  0  0  0  0  0
  1  2  1  0
  2  3  1  0
  3  4  2  0
  4  5  1  0
  5  6  1  0
  6  7  2  0
  6  8  2  0
  6  9  1  0
  9 10  2  0
 10 11  1  0
 11 12  1  0
 12 13  2  0
 13 14  1  0
 14 15  2  0
 15 16  1  0
 16 17  2  0
 16 18  1  0
 18 19  1  0
 19 20  1  0
 20 21  1  0
 21 22  1  0
 22 23  1  0
 23 24  2  0
 23 25  1  0
 25 26  1  0
 26 27  2  0
 19 28  1  0
 28 29  2  0
 11 30  2  0
 30 31  1  0
  5 32  1  0
 32 33  2  0
 33  3  1  0
 31  9  1  0
 17 12  1  0
 26 20  1  0
 28 15  1  0
  1 34  1  0
  1 35  1  0
  1 36  1  0
  2 37  1  0
  2 38  1  0
  4 39  1  0
 13 40  1  0
 14 41  1  0
 17 42  1  0
 18 43  1  0
 18 44  1  0
 20 45  1  1
 21 46  1  0
 21 47  1  0
 22 48  1  0
 22 49  1  0
 25 50  1  0
 30 51  1  0
 32 52  1  0
M  END
>  <meeko>  (1291) 
{"is_sidechain": [true], "free_energy": -10.13, "intermolecular_energy": 0.0, "internal_energy": -10.13, "cluster_size": 12, "cluster_id": 1, "rank_in_cluster": 1}

>  <_RMSD_MCS_to_ref>  (1291) 
1.096603417628978

$$$$
ligand
     RDKit          3D

 47 50  0  0  0  0  0  0  0  0999 V2000
   18.9090   19.1540    7.5370 C   0  0  0  0  0  0  0  0  0  0  0  0
   18.7730   17.6460    7.6780 C   0  0  0  0  0  0  0  0  0  0  0  0
   20.0940   16.9630    7.7170 C   0  0  0  0  0  0  0  0  0  0  0  0
   20.5210   15.9490    8.5520 C   0  0  0  0  0  0  0  0  0  0  0  0
   21.7990   15.6970    8.1450 N   0  0  0  0  0  0  0  0  0  0  0  0
   22.8560   14.5600    8.7820 S   0  0  0  0  0  6  0  0  0  0  0  0
   23.3130   13.7350    7.6810 O   0  0  0  0  0  0  0  0  0  0  0  0
   22.1250   13.9910    9.9020 O   0  0  0  0  0  0  0  0  0  0  0  0
   24.2460   15.4200    9.4440 C   0  0  0  0  0  0  0  0  0  0  0  0
   25.4380   15.4050    8.7040 C   0  0  0  0  0  0  0  0  0  0  0  0
   26.5520   16.0710    9.1920 C   0  0  0  0  0  0  0  0  0  0  0  0
   26.4610   16.7460   10.4070 C   0  0  0  0  0  0  0  0  0  0  0  0
   25.2830   16.7720   11.1430 C   0  0  0  0  0  0  0  0  0  0  0  0
   25.2740   17.4490   12.3080 N   0  0  0  0  0  0  0  0  0  0  0  0
   24.1290   17.4820   13.0160 C   0  0  0  0  0  0  0  0  0  0  0  0
   24.0740   18.1320   14.2550 N   0  0  0  0  0  0  0  0  0  0  0  0
   25.3700   18.5210   14.8350 C   0  0  2  0  0  0  0  0  0  0  0  0
   25.3610   18.2820   16.3430 C   0  0  0  0  0  0  0  0  0  0  0  0
   26.6700   18.7660   16.9460 C   0  0  0  0  0  0  0  0  0  0  0  0
   26.9090   20.2240   16.6370 C   0  0  0  0  0  0  0  0  0  0  0  0
   27.5610   20.9540   17.3770 O   0  0  0  0  0  0  0  0  0  0  0  0
   26.4050   20.6900   15.4490 N   0  0  0  0  0  0  0  0  0  0  0  0
   25.5990   20.0170   14.5640 C   0  0  0  0  0  0  0  0  0  0  0  0
   25.1160   20.5910   13.5870 O   0  0  0  0  0  0  0  0  0  0  0  0
   23.0150   16.8030   12.5390 C   0  0  0  0  0  0  0  0  0  0  0  0
   22.9960   16.1200   11.3680 N   0  0  0  0  0  0  0  0  0  0  0  0
   24.1370   16.0950   10.6560 C   0  0  0  0  0  0  0  0  0  0  0  0
   22.1220   16.5490    7.1370 C   0  0  0  0  0  0  0  0  0  0  0  0
   21.1000   17.3250    6.8410 N   0  0  0  0  0  0  0  0  0  0  0  0
   18.9504   19.6134    8.5356 H   0  0  0  0  0  0  0  0  0  0  0  0
   19.8320   19.3891    6.9867 H   0  0  0  0  0  0  0  0  0  0  0  0
   18.0430   19.5504    6.9867 H   0  0  0  0  0  0  0  0  0  0  0  0
   18.2324   17.4248    8.6101 H   0  0  0  0  0  0  0  0  0  0  0  0
   18.2262   17.2730    6.7994 H   0  0  0  0  0  0  0  0  0  0  0  0
   19.9595   15.4572    9.3600 H   0  0  0  0  0  0  0  0  0  0  0  0
   25.4884   14.8693    7.7446 H   0  0  0  0  0  0  0  0  0  0  0  0
   27.4957   16.0663    8.6268 H   0  0  0  0  0  0  0  0  0  0  0  0
   27.3457   17.2727   10.7942 H   0  0  0  0  0  0  0  0  0  0  0  0
   23.1816   18.3261   14.7313 H   0  0  0  0  0  0  0  0  0  0  0  0
   26.1719   17.9203   14.3810 H   0  0  0  0  0  0  0  0  0  0  0  0
   24.5238   18.8335   16.7957 H   0  0  0  0  0  0  0  0  0  0  0  0
   25.2444   17.2062   16.5408 H   0  0  0  0  0  0  0  0  0  0  0  0
   26.6332   18.6321   18.0372 H   0  0  0  0  0  0  0  0  0  0  0  0
   27.4917   18.1790   16.5099 H   0  0  0  0  0  0  0  0  0  0  0  0
   26.6602   21.6542   15.1917 H   0  0  0  0  0  0  0  0  0  0  0  0
   22.0972   16.8204   13.1451 H   0  0  0  0  0  0  0  0  0  0  0  0
   23.1014   16.5855    6.6375 H   0  0  0  0  0  0  0  0  0  0  0  0
  1  2  1  0
  2  3  1  0
  3  4  2  0
  4  5  1  0
  5  6  1  0
  6  7  2  0
  6  8  2  0
  6  9  1  0
  9 10  2  0
 10 11  1  0
 11 12  2  0
 12 13  1  0
 13 14  2  0
 14 15  1  0
 15 16  1  0
 16 17  1  0
 17 18  1  0
 18 19  1  0
 19 20  1  0
 20 21  2  0
 20 22  1  0
 22 23  1  0
 23 24  2  0
 15 25  2  0
 25 26  1  0
 26 27  2  0
  5 28  1  0
 28 29  2  0
 29  3  1  0
 27  9  1  0
 27 13  1  0
 23 17  1  0
  1 30  1  0
  1 31  1  0
  1 32  1  0
  2 33  1  0
  2 34  1  0
  4 35  1  0
 10 36  1  0
 11 37  1  0
 12 38  1  0
 16 39  1  0
 17 40  1  6
 18 41  1  0
 18 42  1  0
 19 43  1  0
 19 44  1  0
 22 45  1  0
 25 46  1  0
 28 47  1  0
M  END
>  <meeko>  (1292) 
{"is_sidechain": [true], "free_energy": -10.13, "intermolecular_energy": 0.0, "internal_energy": -10.13, "cluster_size": 18, "cluster_id": 1, "rank_in_cluster": 1}

>  <_RMSD_MCS_to_ref>  (1292) 
0.6908949108061071

$$$$
ligand
     RDKit          3D

 45 48  0  0  0  0  0  0  0  0999 V2000
   18.9090   19.1540    7.5370 C   0  0  0  0  0  0  0  0  0  0  0  0
   18.7730   17.6460    7.6780 C   0  0  0  0  0  0  0  0  0  0  0  0
   20.0610   16.9970    8.0430 C   0  0  0  0  0  0  0  0  0  0  0  0
   20.3420   16.1630    9.1080 C   0  0  0  0  0  0  0  0  0  0  0  0
   21.6730   15.8840    8.9730 N   0  0  0  0  0  0  0  0  0  0  0  0
   22.6070   14.9730   10.0300 S   0  0  0  0  0  6  0  0  0  0  0  0
   21.9550   15.1110   11.3210 O   0  0  0  0  0  0  0  0  0  0  0  0
   22.7790   13.6780    9.3970 O   0  0  0  0  0  0  0  0  0  0  0  0
   24.2050   15.7020   10.1770 C   0  0  0  0  0  0  0  0  0  0  0  0
   25.1220   15.4440    9.1410 C   0  0  0  0  0  0  0  0  0  0  0  0
   26.4040   15.9820    9.1820 C   0  0  0  0  0  0  0  0  0  0  0  0
   26.8050   16.7840   10.2520 C   0  0  0  0  0  0  0  0  0  0  0  0
   25.8810   17.0320   11.2820 C   0  0  0  0  0  0  0  0  0  0  0  0
   26.0850   17.9670   12.7140 S   0  0  0  0  0  0  0  0  0  0  0  0
   24.4800   17.5980   13.2000 C   0  0  0  0  0  0  0  0  0  0  0  0
   23.8830   18.0210   14.3390 N   0  0  0  0  0  0  0  0  0  0  0  0
   24.6010   18.8090   15.3410 C   0  0  1  0  0  0  0  0  0  0  0  0
   25.7220   17.9640   15.9420 C   0  0  0  0  0  0  0  0  0  0  0  0
   26.5140   18.7930   16.9400 C   0  0  0  0  0  0  0  0  0  0  0  0
   27.0700   20.0400   16.2950 C   0  0  0  0  0  0  0  0  0  0  0  0
   28.0990   20.5800   16.6900 O   0  0  0  0  0  0  0  0  0  0  0  0
   26.3330   20.5810   15.2730 N   0  0  0  0  0  0  0  0  0  0  0  0
   25.2130   20.0550   14.6750 C   0  0  0  0  0  0  0  0  0  0  0  0
   24.7240   20.5900   13.6810 O   0  0  0  0  0  0  0  0  0  0  0  0
   23.8170   16.8600   12.3460 N   0  0  0  0  0  0  0  0  0  0  0  0
   24.5870   16.5080   11.2610 C   0  0  0  0  0  0  0  0  0  0  0  0
   22.1520   16.5220    7.8720 C   0  0  0  0  0  0  0  0  0  0  0  0
   21.1930   17.2030    7.2770 N   0  0  0  0  0  0  0  0  0  0  0  0
   18.9504   19.6134    8.5356 H   0  0  0  0  0  0  0  0  0  0  0  0
   19.8320   19.3891    6.9867 H   0  0  0  0  0  0  0  0  0  0  0  0
   18.0430   19.5504    6.9867 H   0  0  0  0  0  0  0  0  0  0  0  0
   18.0324   17.4289    8.4618 H   0  0  0  0  0  0  0  0  0  0  0  0
   18.4559   17.2432    6.7048 H   0  0  0  0  0  0  0  0  0  0  0  0
   19.6521   15.8053    9.8866 H   0  0  0  0  0  0  0  0  0  0  0  0
   24.8225   14.8118    8.2921 H   0  0  0  0  0  0  0  0  0  0  0  0
   27.1087   15.7735    8.3635 H   0  0  0  0  0  0  0  0  0  0  0  0
   27.8181   17.2110   10.2882 H   0  0  0  0  0  0  0  0  0  0  0  0
   22.8951   17.7812   14.5049 H   0  0  0  0  0  0  0  0  0  0  0  0
   23.9012   19.1177   16.1315 H   0  0  0  0  0  0  0  0  0  0  0  0
   25.2879   17.0927   16.4542 H   0  0  0  0  0  0  0  0  0  0  0  0
   26.3924   17.6257   15.1382 H   0  0  0  0  0  0  0  0  0  0  0  0
   25.8531   19.0827   17.7703 H   0  0  0  0  0  0  0  0  0  0  0  0
   27.3549   18.1862   17.3070 H   0  0  0  0  0  0  0  0  0  0  0  0
   26.6572   21.4890   14.9107 H   0  0  0  0  0  0  0  0  0  0  0  0
   23.1951   16.4762    7.5258 H   0  0  0  0  0  0  0  0  0  0  0  0
  1  2  1  0
  2  3  1  0
  3  4  2  0
  4  5  1  0
  5  6  1  0
  6  7  2  0
  6  8  2  0
  6  9  1  0
  9 10  2  0
 10 11  1  0
 11 12  2  0
 12 13  1  0
 13 14  1  0
 14 15  1  0
 15 16  1  0
 16 17  1  0
 17 18  1  0
 18 19  1  0
 19 20  1  0
 20 21  2  0
 20 22  1  0
 22 23  1  0
 23 24  2  0
 15 25  2  0
 25 26  1  0
  5 27  1  0
 27 28  2  0
 28  3  1  0
 26  9  1  0
 26 13  2  0
 23 17  1  0
  1 29  1  0
  1 30  1  0
  1 31  1  0
  2 32  1  0
  2 33  1  0
  4 34  1  0
 10 35  1  0
 11 36  1  0
 12 37  1  0
 16 38  1  0
 17 39  1  1
 18 40  1  0
 18 41  1  0
 19 42  1  0
 19 43  1  0
 22 44  1  0
 27 45  1  0
M  END
>  <meeko>  (1293) 
{"is_sidechain": [true], "free_energy": -10.13, "intermolecular_energy": 0.0, "internal_energy": -10.13, "cluster_size": 17, "cluster_id": 1, "rank_in_cluster": 1}

>  <_RMSD_MCS_to_ref>  (1293) 
0.6651705712739321

$$$$
ligand
     RDKit          3D

 44 47  0  0  0  0  0  0  0  0999 V2000
   18.9090   19.1540    7.5370 C   0  0  0  0  0  0  0  0  0  0  0  0
   18.7730   17.6460    7.6780 C   0  0  0  0  0  0  0  0  0  0  0  0
   20.0760   16.9470    7.5090 C   0  0  0  0  0  0  0  0  0  0  0  0
   20.9280   16.4530    8.4770 C   0  0  0  0  0  0  0  0  0  0  0  0
   21.9580   15.9050    7.7690 N   0  0  0  0  0  0  0  0  0  0  0  0
   23.4080   15.3480    8.4020 S   0  0  0  0  0  6  0  0  0  0  0  0
   23.4570   13.9240    8.1420 O   0  0  0  0  0  0  0  0  0  0  0  0
   24.4230   16.2680    7.9240 O   0  0  0  0  0  0  0  0  0  0  0  0
   23.4090   15.5380   10.1620 C   0  0  0  0  0  0  0  0  0  0  0  0
   24.0800   16.4130   10.9960 C   0  0  0  0  0  0  0  0  0  0  0  0
   23.7800   16.2020   12.3850 C   0  0  0  0  0  0  0  0  0  0  0  0
   24.2080   16.8310   13.5710 C   0  0  0  0  0  0  0  0  0  0  0  0
   25.1100   17.8930   13.5560 N   0  0  0  0  0  0  0  0  0  0  0  0
   25.2220   18.6810   14.7890 C   0  0  1  0  0  0  0  0  0  0  0  0
   26.2060   18.0160   15.7490 C   0  0  0  0  0  0  0  0  0  0  0  0
   26.3740   18.8800   16.9880 C   0  0  0  0  0  0  0  0  0  0  0  0
   26.8330   20.2720   16.6260 C   0  0  0  0  0  0  0  0  0  0  0  0
   27.5280   20.9520   17.3760 O   0  0  0  0  0  0  0  0  0  0  0  0
   26.3940   20.7700   15.4270 N   0  0  0  0  0  0  0  0  0  0  0  0
   25.7450   20.0820   14.4310 C   0  0  0  0  0  0  0  0  0  0  0  0
   25.5820   20.5830   13.3170 O   0  0  0  0  0  0  0  0  0  0  0  0
   23.7340   16.3650   14.7490 N   0  0  0  0  0  0  0  0  0  0  0  0
   22.8750   15.3330   14.7450 C   0  0  0  0  0  0  0  0  0  0  0  0
   22.3970   14.6760   13.6860 N   0  0  0  0  0  0  0  0  0  0  0  0
   22.8890   15.1520   12.5310 C   0  0  0  0  0  0  0  0  0  0  0  0
   22.4270   14.4580   11.0480 S   0  0  0  0  0  0  0  0  0  0  0  0
   21.7460   16.1090    6.4450 C   0  0  0  0  0  0  0  0  0  0  0  0
   20.6010   16.7300    6.2510 N   0  0  0  0  0  0  0  0  0  0  0  0
   18.9504   19.6134    8.5356 H   0  0  0  0  0  0  0  0  0  0  0  0
   19.8320   19.3891    6.9867 H   0  0  0  0  0  0  0  0  0  0  0  0
   18.0430   19.5504    6.9867 H   0  0  0  0  0  0  0  0  0  0  0  0
   18.3754   17.4179    8.6780 H   0  0  0  0  0  0  0  0  0  0  0  0
   18.0944   17.2922    6.8878 H   0  0  0  0  0  0  0  0  0  0  0  0
   20.8046   16.4922    9.5694 H   0  0  0  0  0  0  0  0  0  0  0  0
   24.7707   17.1889   10.6342 H   0  0  0  0  0  0  0  0  0  0  0  0
   25.6705   18.1141   12.7207 H   0  0  0  0  0  0  0  0  0  0  0  0
   24.2357   18.7476   15.2716 H   0  0  0  0  0  0  0  0  0  0  0  0
   25.8209   17.0280   16.0414 H   0  0  0  0  0  0  0  0  0  0  0  0
   27.1797   17.8995   15.2507 H   0  0  0  0  0  0  0  0  0  0  0  0
   25.4096   18.9456   17.5129 H   0  0  0  0  0  0  0  0  0  0  0  0
   27.1366   18.4189   17.6329 H   0  0  0  0  0  0  0  0  0  0  0  0
   26.5701   21.7699   15.2538 H   0  0  0  0  0  0  0  0  0  0  0  0
   22.5243   14.9889   15.7292 H   0  0  0  0  0  0  0  0  0  0  0  0
   22.4343   15.7990    5.6449 H   0  0  0  0  0  0  0  0  0  0  0  0
  1  2  1  0
  2  3  1  0
  3  4  2  0
  4  5  1  0
  5  6  1  0
  6  7  2  0
  6  8  2  0
  6  9  1  0
  9 10  2  0
 10 11  1  0
 11 12  2  0
 12 13  1  0
 13 14  1  0
 14 15  1  0
 15 16  1  0
 16 17  1  0
 17 18  2  0
 17 19  1  0
 19 20  1  0
 20 21  2  0
 12 22  1  0
 22 23  2  0
 23 24  1  0
 24 25  2  0
 25 26  1  0
  5 27  1  0
 27 28  2  0
 28  3  1  0
 26  9  1  0
 25 11  1  0
 20 14  1  0
  1 29  1  0
  1 30  1  0
  1 31  1  0
  2 32  1  0
  2 33  1  0
  4 34  1  0
 10 35  1  0
 13 36  1  0
 14 37  1  1
 15 38  1  0
 15 39  1  0
 16 40  1  0
 16 41  1  0
 19 42  1  0
 23 43  1  0
 27 44  1  0
M  END
>  <meeko>  (1294) 
{"is_sidechain": [true], "free_energy": -10.13, "intermolecular_energy": 0.0, "internal_energy": -10.13, "cluster_size": 20, "cluster_id": 1, "rank_in_cluster": 1}

>  <_RMSD_MCS_to_ref>  (1294) 
0.5798144339163848

$$$$
ligand
     RDKit          3D

 48 51  0  0  0  0  0  0  0  0999 V2000
   18.9090   19.1540    7.5370 C   0  0  0  0  0  0  0  0  0  0  0  0
   18.7730   17.6460    7.6780 C   0  0  0  0  0  0  0  0  0  0  0  0
   20.0940   16.9600    7.6750 C   0  0  0  0  0  0  0  0  0  0  0  0
   21.0070   16.8320    8.7030 C   0  0  0  0  0  0  0  0  0  0  0  0
   22.0430   16.1390    8.1470 N   0  0  0  0  0  0  0  0  0  0  0  0
   23.3350   15.4450    8.9870 S   0  0  0  0  0  6  0  0  0  0  0  0
   24.4000   16.4270    8.8860 O   0  0  0  0  0  0  0  0  0  0  0  0
   23.4850   14.1320    8.3810 O   0  0  0  0  0  0  0  0  0  0  0  0
   22.8060   15.2840   10.6460 C   0  0  0  0  0  0  0  0  0  0  0  0
   23.5100   15.9170   11.6140 C   0  0  0  0  0  0  0  0  0  0  0  0
   23.1540   15.7880   13.0280 C   0  0  0  0  0  0  0  0  0  0  0  0
   23.9110   16.4530   14.1290 C   0  0  0  0  0  0  0  0  0  0  0  0
   24.2750   15.8370   15.1250 O   0  0  0  0  0  0  0  0  0  0  0  0
   24.1170   17.7970   13.9560 N   0  0  0  0  0  0  0  0  0  0  0  0
   24.6920   18.6150   15.0180 C   0  0  1  0  0  0  0  0  0  0  0  0
   25.8270   17.9020   15.7450 C   0  0  0  0  0  0  0  0  0  0  0  0
   26.4080   18.8260   16.8050 C   0  0  0  0  0  0  0  0  0  0  0  0
   26.8580   20.1370   16.2040 C   0  0  0  0  0  0  0  0  0  0  0  0
   27.8250   20.7590   16.6320 O   0  0  0  0  0  0  0  0  0  0  0  0
   26.1090   20.6260   15.1640 N   0  0  0  0  0  0  0  0  0  0  0  0
   25.2300   19.9050   14.3950 C   0  0  0  0  0  0  0  0  0  0  0  0
   24.8930   20.2910   13.2760 O   0  0  0  0  0  0  0  0  0  0  0  0
   22.1300   14.9840   13.3670 C   0  0  0  0  0  0  0  0  0  0  0  0
   21.4100   14.3410   12.3670 N   0  0  0  0  0  0  0  0  0  0  0  0
   20.3310   13.5010   12.4660 C   0  0  0  0  0  0  0  0  0  0  0  0
   19.8990   13.1140   11.2860 N   0  0  0  0  0  0  0  0  0  0  0  0
   20.7250   13.7240   10.3760 C   0  0  0  0  0  0  0  0  0  0  0  0
   21.6900   14.4730   11.0140 C   0  0  0  0  0  0  0  0  0  0  0  0
   21.7280   15.8240    6.8640 C   0  0  0  0  0  0  0  0  0  0  0  0
   20.5520   16.3180    6.5410 N   0  0  0  0  0  0  0  0  0  0  0  0
   18.9504   19.6134    8.5356 H   0  0  0  0  0  0  0  0  0  0  0  0
   19.8320   19.3891    6.9867 H   0  0  0  0  0  0  0  0  0  0  0  0
   18.0430   19.5504    6.9867 H   0  0  0  0  0  0  0  0  0  0  0  0
   18.2604   17.4235    8.6255 H   0  0  0  0  0  0  0  0  0  0  0  0
   18.1984   17.2765    6.8158 H   0  0  0  0  0  0  0  0  0  0  0  0
   20.9193   17.2037    9.7346 H   0  0  0  0  0  0  0  0  0  0  0  0
   24.3694   16.5427   11.3313 H   0  0  0  0  0  0  0  0  0  0  0  0
   23.8613   18.2370   13.0605 H   0  0  0  0  0  0  0  0  0  0  0  0
   23.9043   18.8231   15.7571 H   0  0  0  0  0  0  0  0  0  0  0  0
   25.4403   16.9907   16.2246 H   0  0  0  0  0  0  0  0  0  0  0  0
   26.6121   17.6310   15.0238 H   0  0  0  0  0  0  0  0  0  0  0  0
   25.6395   19.0259   17.5662 H   0  0  0  0  0  0  0  0  0  0  0  0
   27.2821   18.3321   17.2545 H   0  0  0  0  0  0  0  0  0  0  0  0
   26.2160   21.6256   14.9397 H   0  0  0  0  0  0  0  0  0  0  0  0
   21.8653   14.8370   14.4245 H   0  0  0  0  0  0  0  0  0  0  0  0
   19.8803   13.1880   13.4193 H   0  0  0  0  0  0  0  0  0  0  0  0
   20.6298   13.6281    9.2843 H   0  0  0  0  0  0  0  0  0  0  0  0
   22.3675   15.2371    6.1883 H   0  0  0  0  0  0  0  0  0  0  0  0
  1  2  1  0
  2  3  1  0
  3  4  2  0
  4  5  1  0
  5  6  1  0
  6  7  2  0
  6  8  2  0
  6  9  1  0
  9 10  2  0
 10 11  1  0
 11 12  1  0
 12 13  2  0
 12 14  1  0
 14 15  1  0
 15 16  1  0
 16 17  1  0
 17 18  1  0
 18 19  2  0
 18 20  1  0
 20 21  1  0
 21 22  2  0
 11 23  2  0
 23 24  1  0
 24 25  1  0
 25 26  2  0
 26 27  1  0
 27 28  2  0
  5 29  1  0
 29 30  2  0
 30  3  1  0
 28  9  1  0
 21 15  1  0
 28 24  1  0
  1 31  1  0
  1 32  1  0
  1 33  1  0
  2 34  1  0
  2 35  1  0
  4 36  1  0
 10 37  1  0
 14 38  1  0
 15 39  1  1
 16 40  1  0
 16 41  1  0
 17 42  1  0
 17 43  1  0
 20 44  1  0
 23 45  1  0
 25 46  1  0
 27 47  1  0
 29 48  1  0
M  END
>  <meeko>  (1295) 
{"is_sidechain": [true], "free_energy": -10.13, "intermolecular_energy": 0.0, "internal_energy": -10.13, "cluster_size": 20, "cluster_id": 1, "rank_in_cluster": 1}

>  <_RMSD_MCS_to_ref>  (1295) 
0.43365078115921807

$$$$
ligand
     RDKit          3D

 48 51  0  0  0  0  0  0  0  0999 V2000
   18.9090   19.1540    7.5370 C   0  0  0  0  0  0  0  0  0  0  0  0
   18.7730   17.6460    7.6780 C   0  0  0  0  0  0  0  0  0  0  0  0
   19.9990   16.9290    7.2340 C   0  0  0  0  0  0  0  0  0  0  0  0
   20.5940   15.8080    7.7770 C   0  0  0  0  0  0  0  0  0  0  0  0
   21.6860   15.5930    6.9860 N   0  0  0  0  0  0  0  0  0  0  0  0
   22.7460   14.3000    7.1190 S   0  0  0  0  0  6  0  0  0  0  0  0
   22.0970   13.2910    7.9300 O   0  0  0  0  0  0  0  0  0  0  0  0
   23.1970   14.0340    5.7650 O   0  0  0  0  0  0  0  0  0  0  0  0
   24.2040   14.7650    7.9880 C   0  0  0  0  0  0  0  0  0  0  0  0
   25.5420   14.7160    7.6250 C   0  0  0  0  0  0  0  0  0  0  0  0
   26.3100   15.2090    8.7040 C   0  0  0  0  0  0  0  0  0  0  0  0
   25.4260   15.5470    9.7020 C   0  0  0  0  0  0  0  0  0  0  0  0
   25.5900   16.0850   11.0020 C   0  0  0  0  0  0  0  0  0  0  0  0
   24.5090   16.3400   11.7570 C   0  0  0  0  0  0  0  0  0  0  0  0
   24.5710   16.8760   13.1420 C   0  0  0  0  0  0  0  0  0  0  0  0
   23.8820   16.3920   14.0330 O   0  0  0  0  0  0  0  0  0  0  0  0
   25.3890   17.9600   13.3380 N   0  0  0  0  0  0  0  0  0  0  0  0
   25.4070   18.6750   14.6090 C   0  0  1  0  0  0  0  0  0  0  0  0
   26.2870   17.9900   15.6490 C   0  0  0  0  0  0  0  0  0  0  0  0
   26.2960   18.8140   16.9270 C   0  0  0  0  0  0  0  0  0  0  0  0
   26.7370   20.2350   16.6620 C   0  0  0  0  0  0  0  0  0  0  0  0
   27.3910   20.8850   17.4700 O   0  0  0  0  0  0  0  0  0  0  0  0
   26.3460   20.7870   15.4670 N   0  0  0  0  0  0  0  0  0  0  0  0
   25.9430   20.0880   14.3570 C   0  0  0  0  0  0  0  0  0  0  0  0
   26.0040   20.5800   13.2310 O   0  0  0  0  0  0  0  0  0  0  0  0
   23.2010   15.9710   11.1530 C   0  0  0  0  0  0  0  0  0  0  0  0
   23.0040   15.4720    9.9700 N   0  0  0  0  0  0  0  0  0  0  0  0
   24.1430   15.2690    9.2630 N   0  0  0  0  0  0  0  0  0  0  0  0
   21.7140   16.5250    6.0010 C   0  0  0  0  0  0  0  0  0  0  0  0
   20.7050   17.3640    6.1300 N   0  0  0  0  0  0  0  0  0  0  0  0
   18.9504   19.6134    8.5356 H   0  0  0  0  0  0  0  0  0  0  0  0
   19.8320   19.3891    6.9867 H   0  0  0  0  0  0  0  0  0  0  0  0
   18.0430   19.5504    6.9867 H   0  0  0  0  0  0  0  0  0  0  0  0
   18.5838   17.4042    8.7343 H   0  0  0  0  0  0  0  0  0  0  0  0
   17.9397   17.3200    7.0382 H   0  0  0  0  0  0  0  0  0  0  0  0
   20.2640   15.2221    8.6475 H   0  0  0  0  0  0  0  0  0  0  0  0
   25.9369   14.3557    6.6636 H   0  0  0  0  0  0  0  0  0  0  0  0
   27.4053   15.3042    8.7390 H   0  0  0  0  0  0  0  0  0  0  0  0
   26.5976   16.2929   11.3912 H   0  0  0  0  0  0  0  0  0  0  0  0
   26.0022   18.2749   12.5727 H   0  0  0  0  0  0  0  0  0  0  0  0
   24.3813   18.6943   15.0059 H   0  0  0  0  0  0  0  0  0  0  0  0
   25.8894   16.9868   15.8623 H   0  0  0  0  0  0  0  0  0  0  0  0
   27.3128   17.9030   15.2615 H   0  0  0  0  0  0  0  0  0  0  0  0
   25.2814   18.8272   17.3518 H   0  0  0  0  0  0  0  0  0  0  0  0
   27.0069   18.3556   17.6302 H   0  0  0  0  0  0  0  0  0  0  0  0
   26.3561   21.8146   15.3978 H   0  0  0  0  0  0  0  0  0  0  0  0
   22.3075   16.1380   11.7725 H   0  0  0  0  0  0  0  0  0  0  0  0
   22.4724   16.5741    5.2057 H   0  0  0  0  0  0  0  0  0  0  0  0
  1  2  1  0
  2  3  1  0
  3  4  2  0
  4  5  1  0
  5  6  1  0
  6  7  2  0
  6  8  2  0
  6  9  1  0
  9 10  2  0
 10 11  1  0
 11 12  2  0
 12 13  1  0
 13 14  2  0
 14 15  1  0
 15 16  2  0
 15 17  1  0
 17 18  1  0
 18 19  1  0
 19 20  1  0
 20 21  1  0
 21 22  2  0
 21 23  1  0
 23 24  1  0
 24 25  2  0
 14 26  1  0
 26 27  2  0
 27 28  1  0
  5 29  1  0
 29 30  2  0
 30  3  1  0
 28  9  1  0
 28 12  1  0
 24 18  1  0
  1 31  1  0
  1 32  1  0
  1 33  1  0
  2 34  1  0
  2 35  1  0
  4 36  1  0
 10 37  1  0
 11 38  1  0
 13 39  1  0
 17 40  1  0
 18 41  1  1
 19 42  1  0
 19 43  1  0
 20 44  1  0
 20 45  1  0
 23 46  1  0
 26 47  1  0
 29 48  1  0
M  END
>  <meeko>  (1296) 
{"is_sidechain": [true], "free_energy": -10.13, "intermolecular_energy": 0.0, "internal_energy": -10.13, "cluster_size": 20, "cluster_id": 1, "rank_in_cluster": 1}

>  <_RMSD_MCS_to_ref>  (1296) 
0.7305402110767074

$$$$
ligand
     RDKit          3D

 47 50  0  0  0  0  0  0  0  0999 V2000
   18.9090   19.1540    7.5370 C   0  0  0  0  0  0  0  0  0  0  0  0
   18.7730   17.6460    7.6780 C   0  0  0  0  0  0  0  0  0  0  0  0
   19.9110   16.9190    7.0550 C   0  0  0  0  0  0  0  0  0  0  0  0
   21.1400   16.5980    7.5990 C   0  0  0  0  0  0  0  0  0  0  0  0
   21.7940   15.9550    6.5890 N   0  0  0  0  0  0  0  0  0  0  0  0
   23.2840   15.2000    6.7040 S   0  0  0  0  0  6  0  0  0  0  0  0
   23.1510   13.9290    6.0130 O   0  0  0  0  0  0  0  0  0  0  0  0
   24.2710   16.1880    6.3110 O   0  0  0  0  0  0  0  0  0  0  0  0
   23.6180   14.8080    8.4070 C   0  0  0  0  0  0  0  0  0  0  0  0
   23.3440   13.3990    8.8300 C   0  0  0  0  0  0  0  0  0  0  0  0
   23.5850   13.0860   10.1080 C   0  0  0  0  0  0  0  0  0  0  0  0
   24.0780   14.0930   10.9630 C   0  0  0  0  0  0  0  0  0  0  0  0
   24.4410   14.1670   12.2860 C   0  0  0  0  0  0  0  0  0  0  0  0
   24.8570   15.5100   12.4760 C   0  0  0  0  0  0  0  0  0  0  0  0
   25.3560   16.1160   13.7190 C   0  0  0  0  0  0  0  0  0  0  0  0
   25.5910   15.4640   14.7310 O   0  0  0  0  0  0  0  0  0  0  0  0
   25.5350   17.4810   13.6250 N   0  0  0  0  0  0  0  0  0  0  0  0
   26.3380   18.1940   14.5990 C   0  0  2  0  0  0  0  0  0  0  0  0
   25.8560   17.9000   16.0150 C   0  0  0  0  0  0  0  0  0  0  0  0
   26.7170   18.6590   17.0130 C   0  0  0  0  0  0  0  0  0  0  0  0
   26.7240   20.1410   16.7150 C   0  0  0  0  0  0  0  0  0  0  0  0
   26.7920   20.9870   17.6010 O   0  0  0  0  0  0  0  0  0  0  0  0
   26.6780   20.5020   15.3930 N   0  0  0  0  0  0  0  0  0  0  0  0
   26.2590   19.7090   14.3510 C   0  0  0  0  0  0  0  0  0  0  0  0
   25.8630   20.2150   13.3020 O   0  0  0  0  0  0  0  0  0  0  0  0
   24.7530   16.2230   11.3360 N   0  0  0  0  0  0  0  0  0  0  0  0
   24.2850   15.3480   10.4390 N   0  0  0  0  0  0  0  0  0  0  0  0
   24.0690   15.7550    9.1740 N   0  0  0  0  0  0  0  0  0  0  0  0
   20.9660   15.8460    5.5180 C   0  0  0  0  0  0  0  0  0  0  0  0
   19.8200   16.4460    5.7600 N   0  0  0  0  0  0  0  0  0  0  0  0
   18.9504   19.6134    8.5356 H   0  0  0  0  0  0  0  0  0  0  0  0
   19.8320   19.3891    6.9867 H   0  0  0  0  0  0  0  0  0  0  0  0
   18.0430   19.5504    6.9867 H   0  0  0  0  0  0  0  0  0  0  0  0
   18.7334   17.3923    8.7476 H   0  0  0  0  0  0  0  0  0  0  0  0
   17.8522   17.3399    7.1598 H   0  0  0  0  0  0  0  0  0  0  0  0
   21.5069   16.8119    8.6137 H   0  0  0  0  0  0  0  0  0  0  0  0
   22.9604   12.6518    8.1196 H   0  0  0  0  0  0  0  0  0  0  0  0
   23.4030   12.0679   10.4827 H   0  0  0  0  0  0  0  0  0  0  0  0
   24.4148   13.3612   13.0343 H   0  0  0  0  0  0  0  0  0  0  0  0
   25.0925   17.9999   12.8531 H   0  0  0  0  0  0  0  0  0  0  0  0
   27.3786   17.8542   14.4909 H   0  0  0  0  0  0  0  0  0  0  0  0
   24.8081   18.2180   16.1188 H   0  0  0  0  0  0  0  0  0  0  0  0
   25.9334   16.8204   16.2113 H   0  0  0  0  0  0  0  0  0  0  0  0
   26.3181   18.4987   18.0255 H   0  0  0  0  0  0  0  0  0  0  0  0
   27.7485   18.2843   16.9380 H   0  0  0  0  0  0  0  0  0  0  0  0
   26.9862   21.4565   15.1587 H   0  0  0  0  0  0  0  0  0  0  0  0
   21.2178   15.3290    4.5803 H   0  0  0  0  0  0  0  0  0  0  0  0
  1  2  1  0
  2  3  1  0
  3  4  2  0
  4  5  1  0
  5  6  1  0
  6  7  2  0
  6  8  2  0
  6  9  1  0
  9 10  1  0
 10 11  2  0
 11 12  1  0
 12 13  2  0
 13 14  1  0
 14 15  1  0
 15 16  2  0
 15 17  1  0
 17 18  1  0
 18 19  1  0
 19 20  1  0
 20 21  1  0
 21 22  2  0
 21 23  1  0
 23 24  1  0
 24 25  2  0
 14 26  2  0
 26 27  1  0
 27 28  1  0
  5 29  1  0
 29 30  2  0
 30  3  1  0
 28  9  2  0
 27 12  1  0
 24 18  1  0
  1 31  1  0
  1 32  1  0
  1 33  1  0
  2 34  1  0
  2 35  1  0
  4 36  1  0
 10 37  1  0
 11 38  1  0
 13 39  1  0
 17 40  1  0
 18 41  1  1
 19 42  1  0
 19 43  1  0
 20 44  1  0
 20 45  1  0
 23 46  1  0
 29 47  1  0
M  END
>  <meeko>  (1297) 
{"is_sidechain": [true], "free_energy": -10.13, "intermolecular_energy": 0.0, "internal_energy": -10.13, "cluster_size": 20, "cluster_id": 1, "rank_in_cluster": 1}

>  <_RMSD_MCS_to_ref>  (1297) 
0.9018447143987086

$$$$
ligand
     RDKit          3D

 50 53  0  0  0  0  0  0  0  0999 V2000
   18.9090   19.1540    7.5370 C   0  0  0  0  0  0  0  0  0  0  0  0
   18.7730   17.6460    7.6780 C   0  0  0  0  0  0  0  0  0  0  0  0
   20.0000   16.9270    7.2440 C   0  0  0  0  0  0  0  0  0  0  0  0
   20.9080   16.2180    8.0070 C   0  0  0  0  0  0  0  0  0  0  0  0
   21.8360   15.7820    7.1030 N   0  0  0  0  0  0  0  0  0  0  0  0
   23.1940   14.8620    7.4620 S   0  0  0  0  0  6  0  0  0  0  0  0
   23.3180   13.8550    6.4270 O   0  0  0  0  0  0  0  0  0  0  0  0
   24.2380   15.8510    7.6810 O   0  0  0  0  0  0  0  0  0  0  0  0
   22.8970   14.0560    9.0040 C   0  0  0  0  0  0  0  0  0  0  0  0
   22.2880   12.7900    8.9750 C   0  0  0  0  0  0  0  0  0  0  0  0
   22.0370   12.1190   10.1630 C   0  0  0  0  0  0  0  0  0  0  0  0
   22.3920   12.7110   11.3710 C   0  0  0  0  0  0  0  0  0  0  0  0
   22.9960   13.9810   11.3970 C   0  0  0  0  0  0  0  0  0  0  0  0
   23.3500   14.5770   12.6180 C   0  0  0  0  0  0  0  0  0  0  0  0
   23.9490   15.8350   12.6330 C   0  0  0  0  0  0  0  0  0  0  0  0
   24.3510   16.5420   13.8700 C   0  0  0  0  0  0  0  0  0  0  0  0
   24.2510   15.9870   14.9580 O   0  0  0  0  0  0  0  0  0  0  0  0
   24.8050   17.8350   13.7310 N   0  0  0  0  0  0  0  0  0  0  0  0
   25.0770   18.6650   14.9000 C   0  0  1  0  0  0  0  0  0  0  0  0
   26.0580   18.0060   15.8640 C   0  0  0  0  0  0  0  0  0  0  0  0
   26.3310   18.9460   17.0290 C   0  0  0  0  0  0  0  0  0  0  0  0
   26.8280   20.2880   16.5450 C   0  0  0  0  0  0  0  0  0  0  0  0
   27.6500   20.9510   17.1710 O   0  0  0  0  0  0  0  0  0  0  0  0
   26.2950   20.7550   15.3710 N   0  0  0  0  0  0  0  0  0  0  0  0
   25.6680   19.9940   14.4180 C   0  0  0  0  0  0  0  0  0  0  0  0
   25.5850   20.3700   13.2490 O   0  0  0  0  0  0  0  0  0  0  0  0
   24.1490   16.4570   11.4150 C   0  0  0  0  0  0  0  0  0  0  0  0
   23.8200   15.9030   10.2190 N   0  0  0  0  0  0  0  0  0  0  0  0
   23.2540   14.6810   10.1950 C   0  0  0  0  0  0  0  0  0  0  0  0
   21.4900   16.2170    5.8640 C   0  0  0  0  0  0  0  0  0  0  0  0
   20.3740   16.9170    5.9140 N   0  0  0  0  0  0  0  0  0  0  0  0
   18.9504   19.6134    8.5356 H   0  0  0  0  0  0  0  0  0  0  0  0
   19.8320   19.3891    6.9867 H   0  0  0  0  0  0  0  0  0  0  0  0
   18.0430   19.5504    6.9867 H   0  0  0  0  0  0  0  0  0  0  0  0
   18.5763   17.4054    8.7332 H   0  0  0  0  0  0  0  0  0  0  0  0
   17.9449   17.3203    7.0313 H   0  0  0  0  0  0  0  0  0  0  0  0
   20.8885   16.0443    9.0930 H   0  0  0  0  0  0  0  0  0  0  0  0
   22.0112   12.3326    8.0137 H   0  0  0  0  0  0  0  0  0  0  0  0
   21.5613   11.1273   10.1500 H   0  0  0  0  0  0  0  0  0  0  0  0
   22.1984   12.1806   12.3150 H   0  0  0  0  0  0  0  0  0  0  0  0
   23.1543   14.0503   13.5637 H   0  0  0  0  0  0  0  0  0  0  0  0
   24.9547   18.2217   12.7881 H   0  0  0  0  0  0  0  0  0  0  0  0
   24.1319   18.8148   15.4425 H   0  0  0  0  0  0  0  0  0  0  0  0
   25.6260   17.0680   16.2428 H   0  0  0  0  0  0  0  0  0  0  0  0
   26.9997   17.7893   15.3385 H   0  0  0  0  0  0  0  0  0  0  0  0
   25.4007   19.0919   17.5976 H   0  0  0  0  0  0  0  0  0  0  0  0
   27.1081   18.4959   17.6643 H   0  0  0  0  0  0  0  0  0  0  0  0
   26.3724   21.7658   15.1891 H   0  0  0  0  0  0  0  0  0  0  0  0
   24.6012   17.4597   11.4140 H   0  0  0  0  0  0  0  0  0  0  0  0
   22.0614   16.0136    4.9463 H   0  0  0  0  0  0  0  0  0  0  0  0
  1  2  1  0
  2  3  1  0
  3  4  2  0
  4  5  1  0
  5  6  1  0
  6  7  2  0
  6  8  2  0
  6  9  1  0
  9 10  2  0
 10 11  1  0
 11 12  2  0
 12 13  1  0
 13 14  2  0
 14 15  1  0
 15 16  1  0
 16 17  2  0
 16 18  1  0
 18 19  1  0
 19 20  1  0
 20 21  1  0
 21 22  1  0
 22 23  2  0
 22 24  1  0
 24 25  1  0
 25 26  2  0
 15 27  2  0
 27 28  1  0
 28 29  2  0
  5 30  1  0
 30 31  2  0
 31  3  1  0
 29  9  1  0
 29 13  1  0
 25 19  1  0
  1 32  1  0
  1 33  1  0
  1 34  1  0
  2 35  1  0
  2 36  1  0
  4 37  1  0
 10 38  1  0
 11 39  1  0
 12 40  1  0
 14 41  1  0
 18 42  1  0
 19 43  1  1
 20 44  1  0
 20 45  1  0
 21 46  1  0
 21 47  1  0
 24 48  1  0
 27 49  1  0
 30 50  1  0
M  END
>  <meeko>  (1298) 
{"is_sidechain": [true], "free_energy": -10.13, "intermolecular_energy": 0.0, "internal_energy": -10.13, "cluster_size": 19, "cluster_id": 1, "rank_in_cluster": 1}

>  <_RMSD_MCS_to_ref>  (1298) 
0.5230442938540996

$$$$
ligand
     RDKit          3D

 41 43  0  0  0  0  0  0  0  0999 V2000
   18.9090   19.1540    7.5370 C   0  0  0  0  0  0  0  0  0  0  0  0
   18.7730   17.6460    7.6780 C   0  0  0  0  0  0  0  0  0  0  0  0
   20.0890   16.9530    7.6080 C   0  0  0  0  0  0  0  0  0  0  0  0
   20.9960   16.7090    8.6200 C   0  0  0  0  0  0  0  0  0  0  0  0
   22.0070   16.0280    8.0060 N   0  0  0  0  0  0  0  0  0  0  0  0
   23.4920   15.6530    8.6840 S   0  0  0  0  0  6  0  0  0  0  0  0
   24.3990   16.7160    8.2990 O   0  0  0  0  0  0  0  0  0  0  0  0
   23.7400   14.2570    8.3890 O   0  0  0  0  0  0  0  0  0  0  0  0
   23.3470   15.7610   10.4390 C   0  0  0  0  0  0  0  0  0  0  0  0
   22.2940   15.4810   11.2900 C   0  0  0  0  0  0  0  0  0  0  0  0
   22.6340   15.7120   12.5990 N   0  0  0  0  0  0  0  0  0  0  0  0
   23.8840   16.1350   12.5200 C   0  0  0  0  0  0  0  0  0  0  0  0
   24.7210   16.5310   13.6450 C   0  0  0  0  0  0  0  0  0  0  0  0
   25.1020   15.7680   14.5310 O   0  0  0  0  0  0  0  0  0  0  0  0
   25.0760   17.8660   13.6380 N   0  0  0  0  0  0  0  0  0  0  0  0
   26.0320   18.4220   14.5800 C   0  0  2  0  0  0  0  0  0  0  0  0
   25.6970   18.0510   16.0210 C   0  0  0  0  0  0  0  0  0  0  0  0
   26.7140   18.6840   16.9570 C   0  0  0  0  0  0  0  0  0  0  0  0
   26.7820   20.1820   16.7640 C   0  0  0  0  0  0  0  0  0  0  0  0
   27.0140   20.9550   17.6870 O   0  0  0  0  0  0  0  0  0  0  0  0
   26.6030   20.6430   15.4850 N   0  0  0  0  0  0  0  0  0  0  0  0
   26.0350   19.9480   14.4450 C   0  0  0  0  0  0  0  0  0  0  0  0
   25.5780   20.5340   13.4640 O   0  0  0  0  0  0  0  0  0  0  0  0
   24.3830   16.1860   11.2490 O   0  0  0  0  0  0  0  0  0  0  0  0
   21.7360   15.9300    6.6790 C   0  0  0  0  0  0  0  0  0  0  0  0
   20.5650   16.4660    6.4060 N   0  0  0  0  0  0  0  0  0  0  0  0
   18.9504   19.6134    8.5356 H   0  0  0  0  0  0  0  0  0  0  0  0
   19.8320   19.3891    6.9867 H   0  0  0  0  0  0  0  0  0  0  0  0
   18.0430   19.5504    6.9867 H   0  0  0  0  0  0  0  0  0  0  0  0
   18.3058   17.4217    8.6483 H   0  0  0  0  0  0  0  0  0  0  0  0
   18.1558   17.2833    6.8428 H   0  0  0  0  0  0  0  0  0  0  0  0
   20.9210   16.9975    9.6789 H   0  0  0  0  0  0  0  0  0  0  0  0
   21.3091   15.1191   10.9597 H   0  0  0  0  0  0  0  0  0  0  0  0
   24.6473   18.4899   12.9395 H   0  0  0  0  0  0  0  0  0  0  0  0
   27.0218   18.0037   14.3447 H   0  0  0  0  0  0  0  0  0  0  0  0
   24.6908   18.4191   16.2699 H   0  0  0  0  0  0  0  0  0  0  0  0
   25.7258   16.9572   16.1341 H   0  0  0  0  0  0  0  0  0  0  0  0
   26.4259   18.4696   17.9967 H   0  0  0  0  0  0  0  0  0  0  0  0
   27.7037   18.2601   16.7315 H   0  0  0  0  0  0  0  0  0  0  0  0
   26.9248   21.6008   15.2852 H   0  0  0  0  0  0  0  0  0  0  0  0
   22.4020   15.4673    5.9358 H   0  0  0  0  0  0  0  0  0  0  0  0
  1  2  1  0
  2  3  1  0
  3  4  2  0
  4  5  1  0
  5  6  1  0
  6  7  2  0
  6  8  2  0
  6  9  1  0
  9 10  2  0
 10 11  1  0
 11 12  2  0
 12 13  1  0
 13 14  2  0
 13 15  1  0
 15 16  1  0
 16 17  1  0
 17 18  1  0
 18 19  1  0
 19 20  2  0
 19 21  1  0
 21 22  1  0
 22 23  2  0
 12 24  1  0
  5 25  1  0
 25 26  2  0
 26  3  1  0
 24  9  1  0
 22 16  1  0
  1 27  1  0
  1 28  1  0
  1 29  1  0
  2 30  1  0
  2 31  1  0
  4 32  1  0
 10 33  1  0
 15 34  1  0
 16 35  1  6
 17 36  1  0
 17 37  1  0
 18 38  1  0
 18 39  1  0
 21 40  1  0
 25 41  1  0
M  END
>  <meeko>  (1299) 
{"is_sidechain": [true], "free_energy": -10.13, "intermolecular_energy": 0.0, "internal_energy": -10.13, "cluster_size": 20, "cluster_id": 1, "rank_in_cluster": 1}

>  <_RMSD_MCS_to_ref>  (1299) 
0.7608997597873484

$$$$
ligand
     RDKit          3D

 43 45  0  0  0  0  0  0  0  0999 V2000
   18.9090   19.1540    7.5370 C   0  0  0  0  0  0  0  0  0  0  0  0
   18.7730   17.6460    7.6780 C   0  0  0  0  0  0  0  0  0  0  0  0
   20.0950   16.9610    7.6890 C   0  0  0  0  0  0  0  0  0  0  0  0
   20.9960   16.8300    8.7270 C   0  0  0  0  0  0  0  0  0  0  0  0
   22.0290   16.1210    8.1840 N   0  0  0  0  0  0  0  0  0  0  0  0
   23.3790   15.5550    9.0030 S   0  0  0  0  0  6  0  0  0  0  0  0
   24.3940   16.5820    8.8500 O   0  0  0  0  0  0  0  0  0  0  0  0
   23.5850   14.1950    8.5380 O   0  0  0  0  0  0  0  0  0  0  0  0
   22.9400   15.4840   10.7030 C   0  0  0  0  0  0  0  0  0  0  0  0
   23.6810   16.1660   11.6500 C   0  0  0  0  0  0  0  0  0  0  0  0
   23.2640   16.0460   12.9700 C   0  0  0  0  0  0  0  0  0  0  0  0
   23.9520   16.6970   14.1080 C   0  0  0  0  0  0  0  0  0  0  0  0
   24.1840   16.0570   15.1260 O   0  0  0  0  0  0  0  0  0  0  0  0
   24.2830   18.0250   13.9660 N   0  0  0  0  0  0  0  0  0  0  0  0
   24.8390   18.7830   15.0830 C   0  0  1  0  0  0  0  0  0  0  0  0
   25.9100   18.0030   15.8380 C   0  0  0  0  0  0  0  0  0  0  0  0
   26.4760   18.8680   16.9530 C   0  0  0  0  0  0  0  0  0  0  0  0
   27.0050   20.1780   16.4180 C   0  0  0  0  0  0  0  0  0  0  0  0
   27.9780   20.7450   16.9040 O   0  0  0  0  0  0  0  0  0  0  0  0
   26.3210   20.7320   15.3640 N   0  0  0  0  0  0  0  0  0  0  0  0
   25.4570   20.0700   14.5300 C   0  0  0  0  0  0  0  0  0  0  0  0
   25.1930   20.4980   13.4070 O   0  0  0  0  0  0  0  0  0  0  0  0
   22.1630   15.2470   13.2430 C   0  0  0  0  0  0  0  0  0  0  0  0
   21.4680   14.6030   12.2740 N   0  0  0  0  0  0  0  0  0  0  0  0
   21.8610   14.7250   10.9820 N   0  0  0  0  0  0  0  0  0  0  0  0
   21.7320   15.8160    6.8950 C   0  0  0  0  0  0  0  0  0  0  0  0
   20.5680   16.3300    6.5550 N   0  0  0  0  0  0  0  0  0  0  0  0
   18.9504   19.6134    8.5356 H   0  0  0  0  0  0  0  0  0  0  0  0
   19.8320   19.3891    6.9867 H   0  0  0  0  0  0  0  0  0  0  0  0
   18.0430   19.5504    6.9867 H   0  0  0  0  0  0  0  0  0  0  0  0
   18.2510   17.4239    8.6204 H   0  0  0  0  0  0  0  0  0  0  0  0
   18.2076   17.2752    6.8104 H   0  0  0  0  0  0  0  0  0  0  0  0
   20.9030   17.2096    9.7552 H   0  0  0  0  0  0  0  0  0  0  0  0
   24.5558   16.7725   11.3728 H   0  0  0  0  0  0  0  0  0  0  0  0
   24.1365   18.4908   13.0591 H   0  0  0  0  0  0  0  0  0  0  0  0
   24.0251   18.9964   15.7915 H   0  0  0  0  0  0  0  0  0  0  0  0
   25.4659   17.0936   16.2690 H   0  0  0  0  0  0  0  0  0  0  0  0
   26.7173   17.7239   15.1449 H   0  0  0  0  0  0  0  0  0  0  0  0
   25.6810   19.0748   17.6845 H   0  0  0  0  0  0  0  0  0  0  0  0
   27.3080   18.3248   17.4249 H   0  0  0  0  0  0  0  0  0  0  0  0
   26.4704   21.7350   15.1837 H   0  0  0  0  0  0  0  0  0  0  0  0
   21.8411   15.1316   14.2885 H   0  0  0  0  0  0  0  0  0  0  0  0
   22.3740   15.2224    6.2275 H   0  0  0  0  0  0  0  0  0  0  0  0
  1  2  1  0
  2  3  1  0
  3  4  2  0
  4  5  1  0
  5  6  1  0
  6  7  2  0
  6  8  2  0
  6  9  1  0
  9 10  2  0
 10 11  1  0
 11 12  1  0
 12 13  2  0
 12 14  1  0
 14 15  1  0
 15 16  1  0
 16 17  1  0
 17 18  1  0
 18 19  2  0
 18 20  1  0
 20 21  1  0
 21 22  2  0
 11 23  2  0
 23 24  1  0
 24 25  2  0
  5 26  1  0
 26 27  2  0
 27  3  1  0
 25  9  1  0
 21 15  1  0
  1 28  1  0
  1 29  1  0
  1 30  1  0
  2 31  1  0
  2 32  1  0
  4 33  1  0
 10 34  1  0
 14 35  1  0
 15 36  1  1
 16 37  1  0
 16 38  1  0
 17 39  1  0
 17 40  1  0
 20 41  1  0
 23 42  1  0
 26 43  1  0
M  END
>  <meeko>  (1300) 
{"is_sidechain": [true], "free_energy": -10.13, "intermolecular_energy": 0.0, "internal_energy": -10.13, "cluster_size": 20, "cluster_id": 1, "rank_in_cluster": 1}

>  <_RMSD_MCS_to_ref>  (1300) 
0.5427917546250027

$$$$
ligand
     RDKit          3D

 50 53  0  0  0  0  0  0  0  0999 V2000
   18.9090   19.1540    7.5370 C   0  0  0  0  0  0  0  0  0  0  0  0
   18.7730   17.6460    7.6780 C   0  0  0  0  0  0  0  0  0  0  0  0
   20.0930   16.9590    7.6780 C   0  0  0  0  0  0  0  0  0  0  0  0
   20.8130   16.4600    8.7460 C   0  0  0  0  0  0  0  0  0  0  0  0
   21.9360   15.9290    8.1730 N   0  0  0  0  0  0  0  0  0  0  0  0
   23.2850   15.3840    9.0090 S   0  0  0  0  0  6  0  0  0  0  0  0
   23.7240   14.1330    8.4250 O   0  0  0  0  0  0  0  0  0  0  0  0
   24.1650   16.5410    9.0250 O   0  0  0  0  0  0  0  0  0  0  0  0
   22.7910   15.0810   10.6930 C   0  0  0  0  0  0  0  0  0  0  0  0
   23.4760   15.8130   11.6870 C   0  0  0  0  0  0  0  0  0  0  0  0
   23.2190   15.5900   13.0440 C   0  0  0  0  0  0  0  0  0  0  0  0
   23.9230   16.3380   14.1220 C   0  0  0  0  0  0  0  0  0  0  0  0
   24.3140   15.7490   15.1240 O   0  0  0  0  0  0  0  0  0  0  0  0
   24.0710   17.6930   13.9420 N   0  0  0  0  0  0  0  0  0  0  0  0
   24.6170   18.5350   14.9990 C   0  0  1  0  0  0  0  0  0  0  0  0
   25.7730   17.8640   15.7310 C   0  0  0  0  0  0  0  0  0  0  0  0
   26.3240   18.8100   16.7860 C   0  0  0  0  0  0  0  0  0  0  0  0
   26.7330   20.1320   16.1800 C   0  0  0  0  0  0  0  0  0  0  0  0
   27.6730   20.7920   16.6130 O   0  0  0  0  0  0  0  0  0  0  0  0
   25.9770   20.5880   15.1290 N   0  0  0  0  0  0  0  0  0  0  0  0
   25.1120   19.8400   14.3690 C   0  0  0  0  0  0  0  0  0  0  0  0
   24.7510   20.2150   13.2540 O   0  0  0  0  0  0  0  0  0  0  0  0
   22.3040   14.6030   13.4110 C   0  0  0  0  0  0  0  0  0  0  0  0
   21.6330   13.8680   12.4300 C   0  0  0  0  0  0  0  0  0  0  0  0
   20.7690   12.9100   12.9070 O   0  0  0  0  0  0  0  0  0  0  0  0
   20.1420   12.1020   11.9940 C   0  0  0  0  0  0  0  0  0  0  0  0
   20.2280   12.2190   10.6700 C   0  0  0  0  0  0  0  0  0  0  0  0
   21.0540   13.3020   10.1170 C   0  0  0  0  0  0  0  0  0  0  0  0
   21.0220   13.5350    8.9210 O   0  0  0  0  0  0  0  0  0  0  0  0
   21.8520   14.1060   11.0640 C   0  0  0  0  0  0  0  0  0  0  0  0
   21.9110   16.1760    6.8370 C   0  0  0  0  0  0  0  0  0  0  0  0
   20.7880   16.7770    6.4990 N   0  0  0  0  0  0  0  0  0  0  0  0
   18.9504   19.6134    8.5356 H   0  0  0  0  0  0  0  0  0  0  0  0
   19.8320   19.3891    6.9867 H   0  0  0  0  0  0  0  0  0  0  0  0
   18.0430   19.5504    6.9867 H   0  0  0  0  0  0  0  0  0  0  0  0
   18.2583   17.4239    8.6244 H   0  0  0  0  0  0  0  0  0  0  0  0
   18.2007   17.2768    6.8142 H   0  0  0  0  0  0  0  0  0  0  0  0
   20.5449   16.4841    9.8126 H   0  0  0  0  0  0  0  0  0  0  0  0
   24.2202   16.5672   11.3912 H   0  0  0  0  0  0  0  0  0  0  0  0
   23.7919   18.1194   13.0469 H   0  0  0  0  0  0  0  0  0  0  0  0
   23.8224   18.7213   15.7364 H   0  0  0  0  0  0  0  0  0  0  0  0
   25.4151   16.9435   16.2153 H   0  0  0  0  0  0  0  0  0  0  0  0
   26.5671   17.6156   15.0114 H   0  0  0  0  0  0  0  0  0  0  0  0
   25.5493   18.9890   17.5461 H   0  0  0  0  0  0  0  0  0  0  0  0
   27.2132   18.3457   17.2374 H   0  0  0  0  0  0  0  0  0  0  0  0
   26.0671   21.5853   14.8877 H   0  0  0  0  0  0  0  0  0  0  0  0
   22.1102   14.4028   14.4751 H   0  0  0  0  0  0  0  0  0  0  0  0
   19.5151   11.2886   12.3881 H   0  0  0  0  0  0  0  0  0  0  0  0
   19.6942   11.5225   10.0068 H   0  0  0  0  0  0  0  0  0  0  0  0
   22.7159   15.9112    6.1355 H   0  0  0  0  0  0  0  0  0  0  0  0
  1  2  1  0
  2  3  1  0
  3  4  2  0
  4  5  1  0
  5  6  1  0
  6  7  2  0
  6  8  2  0
  6  9  1  0
  9 10  2  0
 10 11  1  0
 11 12  1  0
 12 13  2  0
 12 14  1  0
 14 15  1  0
 15 16  1  0
 16 17  1  0
 17 18  1  0
 18 19  2  0
 18 20  1  0
 20 21  1  0
 21 22  2  0
 11 23  2  0
 23 24  1  0
 24 25  1  0
 25 26  1  0
 26 27  2  0
 27 28  1  0
 28 29  2  0
 28 30  1  0
  5 31  1  0
 31 32  2  0
 32  3  1  0
 30  9  1  0
 21 15  1  0
 30 24  2  0
  1 33  1  0
  1 34  1  0
  1 35  1  0
  2 36  1  0
  2 37  1  0
  4 38  1  0
 10 39  1  0
 14 40  1  0
 15 41  1  1
 16 42  1  0
 16 43  1  0
 17 44  1  0
 17 45  1  0
 20 46  1  0
 23 47  1  0
 26 48  1  0
 27 49  1  0
 31 50  1  0
M  END
>  <meeko>  (1301) 
{"is_sidechain": [true], "free_energy": -10.13, "intermolecular_energy": 0.0, "internal_energy": -10.13, "cluster_size": 15, "cluster_id": 1, "rank_in_cluster": 1}

>  <_RMSD_MCS_to_ref>  (1301) 
0.3958105607484471

$$$$
ligand
     RDKit          3D

 48 51  0  0  0  0  0  0  0  0999 V2000
   18.9090   19.1540    7.5370 C   0  0  0  0  0  0  0  0  0  0  0  0
   18.7730   17.6460    7.6780 C   0  0  0  0  0  0  0  0  0  0  0  0
   19.8820   16.9170    7.0040 C   0  0  0  0  0  0  0  0  0  0  0  0
   21.1450   16.6260    7.4790 C   0  0  0  0  0  0  0  0  0  0  0  0
   21.7420   15.9550    6.4510 N   0  0  0  0  0  0  0  0  0  0  0  0
   23.2130   15.1520    6.5150 S   0  0  0  0  0  6  0  0  0  0  0  0
   24.1620   15.9580    5.7740 O   0  0  0  0  0  0  0  0  0  0  0  0
   22.9220   13.7730    6.1700 O   0  0  0  0  0  0  0  0  0  0  0  0
   23.7950   15.0980    8.1900 C   0  0  0  0  0  0  0  0  0  0  0  0
   23.8160   16.0560    9.1900 C   0  0  0  0  0  0  0  0  0  0  0  0
   24.3860   15.5470   10.3820 C   0  0  0  0  0  0  0  0  0  0  0  0
   24.5920   16.2010   11.6360 C   0  0  0  0  0  0  0  0  0  0  0  0
   25.1690   15.5300   12.6550 C   0  0  0  0  0  0  0  0  0  0  0  0
   25.3770   16.2360   13.9600 C   0  0  0  0  0  0  0  0  0  0  0  0
   25.4660   15.6370   15.0240 O   0  0  0  0  0  0  0  0  0  0  0  0
   25.4240   17.6070   13.8550 N   0  0  0  0  0  0  0  0  0  0  0  0
   25.4550   18.4470   15.0470 C   0  0  1  0  0  0  0  0  0  0  0  0
   26.3560   17.8750   16.1370 C   0  0  0  0  0  0  0  0  0  0  0  0
   26.3810   18.8250   17.3240 C   0  0  0  0  0  0  0  0  0  0  0  0
   26.8100   20.2140   16.9090 C   0  0  0  0  0  0  0  0  0  0  0  0
   27.4600   20.9500   17.6430 O   0  0  0  0  0  0  0  0  0  0  0  0
   26.4080   20.6340   15.6660 N   0  0  0  0  0  0  0  0  0  0  0  0
   25.9750   19.8290   14.6430 C   0  0  0  0  0  0  0  0  0  0  0  0
   25.9940   20.2090   13.4730 O   0  0  0  0  0  0  0  0  0  0  0  0
   25.5540   14.2050   12.5070 N   0  0  0  0  0  0  0  0  0  0  0  0
   25.3810   13.4720   11.3410 C   0  0  0  0  0  0  0  0  0  0  0  0
   25.7250   12.2950   11.2920 O   0  0  0  0  0  0  0  0  0  0  0  0
   24.7760   14.2310   10.2640 C   0  0  0  0  0  0  0  0  0  0  0  0
   24.4560   13.6040    8.7210 S   0  0  0  0  0  0  0  0  0  0  0  0
   20.8550   15.8170    5.4340 C   0  0  0  0  0  0  0  0  0  0  0  0
   19.7150   16.4040    5.7320 N   0  0  0  0  0  0  0  0  0  0  0  0
   18.9504   19.6134    8.5356 H   0  0  0  0  0  0  0  0  0  0  0  0
   19.8320   19.3891    6.9867 H   0  0  0  0  0  0  0  0  0  0  0  0
   18.0430   19.5504    6.9867 H   0  0  0  0  0  0  0  0  0  0  0  0
   18.7777   17.3881    8.7473 H   0  0  0  0  0  0  0  0  0  0  0  0
   17.8299   17.3452    7.1983 H   0  0  0  0  0  0  0  0  0  0  0  0
   21.5724   16.8772    8.4609 H   0  0  0  0  0  0  0  0  0  0  0  0
   23.4378   17.0823    9.0730 H   0  0  0  0  0  0  0  0  0  0  0  0
   24.2813   17.2477   11.7702 H   0  0  0  0  0  0  0  0  0  0  0  0
   25.4375   18.0456   12.9232 H   0  0  0  0  0  0  0  0  0  0  0  0
   24.4361   18.5009   15.4579 H   0  0  0  0  0  0  0  0  0  0  0  0
   25.9677   16.8972   16.4580 H   0  0  0  0  0  0  0  0  0  0  0  0
   27.3759   17.7531   15.7433 H   0  0  0  0  0  0  0  0  0  0  0  0
   25.3733   18.8774   17.7619 H   0  0  0  0  0  0  0  0  0  0  0  0
   27.1059   18.4433   18.0581 H   0  0  0  0  0  0  0  0  0  0  0  0
   26.4337   21.6475   15.4842 H   0  0  0  0  0  0  0  0  0  0  0  0
   25.9951   13.7369   13.3115 H   0  0  0  0  0  0  0  0  0  0  0  0
   21.0598   15.2882    4.4914 H   0  0  0  0  0  0  0  0  0  0  0  0
  1  2  1  0
  2  3  1  0
  3  4  2  0
  4  5  1  0
  5  6  1  0
  6  7  2  0
  6  8  2  0
  6  9  1  0
  9 10  2  0
 10 11  1  0
 11 12  1  0
 12 13  2  0
 13 14  1  0
 14 15  2  0
 14 16  1  0
 16 17  1  0
 17 18  1  0
 18 19  1  0
 19 20  1  0
 20 21  2  0
 20 22  1  0
 22 23  1  0
 23 24  2  0
 13 25  1  0
 25 26  1  0
 26 27  2  0
 26 28  1  0
 28 29  1  0
  5 30  1  0
 30 31  2  0
 31  3  1  0
 29  9  1  0
 28 11  2  0
 23 17  1  0
  1 32  1  0
  1 33  1  0
  1 34  1  0
  2 35  1  0
  2 36  1  0
  4 37  1  0
 10 38  1  0
 12 39  1  0
 16 40  1  0
 17 41  1  1
 18 42  1  0
 18 43  1  0
 19 44  1  0
 19 45  1  0
 22 46  1  0
 25 47  1  0
 30 48  1  0
M  END
>  <meeko>  (1302) 
{"is_sidechain": [true], "free_energy": -10.13, "intermolecular_energy": 0.0, "internal_energy": -10.13, "cluster_size": 8, "cluster_id": 1, "rank_in_cluster": 1}

>  <_RMSD_MCS_to_ref>  (1302) 
0.7787457865054552

$$$$
ligand
     RDKit          3D

 54 58  0  0  0  0  0  0  0  0999 V2000
   18.9090   19.1540    7.5370 C   0  0  0  0  0  0  0  0  0  0  0  0
   18.7730   17.6460    7.6780 C   0  0  0  0  0  0  0  0  0  0  0  0
   20.0900   16.9560    7.6340 C   0  0  0  0  0  0  0  0  0  0  0  0
   20.5510   15.9140    8.4180 C   0  0  0  0  0  0  0  0  0  0  0  0
   21.8030   15.6620    7.9330 N   0  0  0  0  0  0  0  0  0  0  0  0
   22.9160   14.5910    8.5860 S   0  0  0  0  0  6  0  0  0  0  0  0
   23.6460   14.0900    7.4360 O   0  0  0  0  0  0  0  0  0  0  0  0
   22.1850   13.6930    9.4590 O   0  0  0  0  0  0  0  0  0  0  0  0
   24.0350   15.5540    9.5830 C   0  0  0  0  0  0  0  0  0  0  0  0
   23.5970   15.9150   10.8690 C   0  0  0  0  0  0  0  0  0  0  0  0
   24.4300   16.7150   11.6240 C   0  0  0  0  0  0  0  0  0  0  0  0
   25.6520   17.1800   11.1560 C   0  0  0  0  0  0  0  0  0  0  0  0
   26.0870   16.8420    9.8850 C   0  0  0  0  0  0  0  0  0  0  0  0
   25.2780   16.0160    9.0670 C   0  0  0  0  0  0  0  0  0  0  0  0
   25.7890   15.6400    7.7480 C   0  0  0  0  0  0  0  0  0  0  0  0
   26.6570   14.5750    7.5290 C   0  0  0  0  0  0  0  0  0  0  0  0
   27.0760   14.2080    6.2930 N   0  0  0  0  0  0  0  0  0  0  0  0
   26.6040   14.9620    5.2750 C   0  0  0  0  0  0  0  0  0  0  0  0
   25.7420   16.0240    5.4840 C   0  0  0  0  0  0  0  0  0  0  0  0
   25.3130   16.3810    6.7190 N   0  0  0  0  0  0  0  0  0  0  0  0
   26.3020   18.0370   12.1910 C   0  0  0  0  0  0  0  0  0  0  0  0
   25.3870   17.9250   13.3180 N   0  0  0  0  0  0  0  0  0  0  0  0
   25.5090   18.8020   14.4800 C   0  0  2  0  0  0  0  0  0  0  0  0
   26.3290   20.0650   14.2190 C   0  0  0  0  0  0  0  0  0  0  0  0
   26.3370   20.9270   15.4720 C   0  0  0  0  0  0  0  0  0  0  0  0
   26.8690   20.1620   16.6610 C   0  0  0  0  0  0  0  0  0  0  0  0
   27.3510   20.7260   17.6400 O   0  0  0  0  0  0  0  0  0  0  0  0
   26.7120   18.7980   16.6390 N   0  0  0  0  0  0  0  0  0  0  0  0
   26.0670   18.0380   15.6920 C   0  0  0  0  0  0  0  0  0  0  0  0
   25.8730   16.8370   15.8820 O   0  0  0  0  0  0  0  0  0  0  0  0
   24.2320   17.2360   12.9810 C   0  0  0  0  0  0  0  0  0  0  0  0
   23.2210   17.0790   13.6350 O   0  0  0  0  0  0  0  0  0  0  0  0
   22.1010   16.5800    6.9760 C   0  0  0  0  0  0  0  0  0  0  0  0
   21.0620   17.3550    6.7380 N   0  0  0  0  0  0  0  0  0  0  0  0
   18.9504   19.6134    8.5356 H   0  0  0  0  0  0  0  0  0  0  0  0
   19.8320   19.3891    6.9867 H   0  0  0  0  0  0  0  0  0  0  0  0
   18.0430   19.5504    6.9867 H   0  0  0  0  0  0  0  0  0  0  0  0
   18.2881   17.4225    8.6397 H   0  0  0  0  0  0  0  0  0  0  0  0
   18.1723   17.2808    6.8320 H   0  0  0  0  0  0  0  0  0  0  0  0
   20.0296   15.4053    9.2422 H   0  0  0  0  0  0  0  0  0  0  0  0
   22.6270   15.5727   11.2587 H   0  0  0  0  0  0  0  0  0  0  0  0
   27.0539   17.2125    9.5137 H   0  0  0  0  0  0  0  0  0  0  0  0
   27.0195   14.0054    8.3974 H   0  0  0  0  0  0  0  0  0  0  0  0
   26.9153   14.7235    4.2473 H   0  0  0  0  0  0  0  0  0  0  0  0
   25.3917   16.6003    4.6150 H   0  0  0  0  0  0  0  0  0  0  0  0
   27.3007   17.6565   12.4513 H   0  0  0  0  0  0  0  0  0  0  0  0
   26.4642   19.0737   11.8611 H   0  0  0  0  0  0  0  0  0  0  0  0
   24.4867   19.1413   14.7029 H   0  0  0  0  0  0  0  0  0  0  0  0
   27.3606   19.7860   13.9584 H   0  0  0  0  0  0  0  0  0  0  0  0
   25.8824   20.6288   13.3867 H   0  0  0  0  0  0  0  0  0  0  0  0
   26.9740   21.8067   15.2977 H   0  0  0  0  0  0  0  0  0  0  0  0
   25.3030   21.2324   15.6900 H   0  0  0  0  0  0  0  0  0  0  0  0
   27.1278   18.2817   17.4274 H   0  0  0  0  0  0  0  0  0  0  0  0
   23.0742   16.6644    6.4704 H   0  0  0  0  0  0  0  0  0  0  0  0
  1  2  1  0
  2  3  1  0
  3  4  2  0
  4  5  1  0
  5  6  1  0
  6  7  2  0
  6  8  2  0
  6  9  1  0
  9 10  2  0
 10 11  1  0
 11 12  2  0
 12 13  1  0
 13 14  2  0
 14 15  1  0
 15 16  2  0
 16 17  1  0
 17 18  2  0
 18 19  1  0
 19 20  2  0
 12 21  1  0
 21 22  1  0
 22 23  1  0
 23 24  1  0
 24 25  1  0
 25 26  1  0
 26 27  2  0
 26 28  1  0
 28 29  1  0
 29 30  2  0
 22 31  1  0
 31 32  2  0
  5 33  1  0
 33 34  2  0
 34  3  1  0
 14  9  1  0
 20 15  1  0
 29 23  1  0
 31 11  1  0
  1 35  1  0
  1 36  1  0
  1 37  1  0
  2 38  1  0
  2 39  1  0
  4 40  1  0
 10 41  1  0
 13 42  1  0
 16 43  1  0
 18 44  1  0
 19 45  1  0
 21 46  1  0
 21 47  1  0
 23 48  1  1
 24 49  1  0
 24 50  1  0
 25 51  1  0
 25 52  1  0
 28 53  1  0
 33 54  1  0
M  END
>  <meeko>  (1303) 
{"is_sidechain": [true], "free_energy": -10.13, "intermolecular_energy": 0.0, "internal_energy": -10.13, "cluster_size": 15, "cluster_id": 2, "rank_in_cluster": 1}

>  <_RMSD_MCS_to_ref>  (1303) 
1.7329604566880472

$$$$
ligand
     RDKit          3D

 46 49  0  0  0  0  0  0  0  0999 V2000
   18.8250   19.0180    7.5350 C   0  0  0  0  0  0  0  0  0  0  0  0
   18.5200   17.5410    7.7330 C   0  0  0  0  0  0  0  0  0  0  0  0
   19.7440   16.7530    8.0430 C   0  0  0  0  0  0  0  0  0  0  0  0
   20.2860   16.4440    9.2740 C   0  0  0  0  0  0  0  0  0  0  0  0
   21.3860   15.6940    8.9790 N   0  0  0  0  0  0  0  0  0  0  0  0
   22.3140   14.8100   10.0580 S   0  0  0  0  0  6  0  0  0  0  0  0
   21.6760   15.0220   11.3470 O   0  0  0  0  0  0  0  0  0  0  0  0
   22.4580   13.4830    9.4870 O   0  0  0  0  0  0  0  0  0  0  0  0
   23.9220   15.5450   10.1310 C   0  0  0  0  0  0  0  0  0  0  0  0
   24.2440   16.3200   11.1440 N   0  0  0  0  0  0  0  0  0  0  0  0
   25.5250   16.8780   11.1610 C   0  0  0  0  0  0  0  0  0  0  0  0
   25.9270   17.7650   12.3130 C   0  0  0  0  0  0  0  0  0  0  0  0
   27.0270   18.3000   12.3860 O   0  0  0  0  0  0  0  0  0  0  0  0
   24.9440   17.8960   13.2590 N   0  0  0  0  0  0  0  0  0  0  0  0
   25.1630   18.5880   14.5170 C   0  0  1  0  0  0  0  0  0  0  0  0
   26.1570   17.8460   15.4070 C   0  0  0  0  0  0  0  0  0  0  0  0
   26.3650   18.6260   16.6950 C   0  0  0  0  0  0  0  0  0  0  0  0
   26.8110   20.0420   16.4150 C   0  0  0  0  0  0  0  0  0  0  0  0
   27.5670   20.6530   17.1640 O   0  0  0  0  0  0  0  0  0  0  0  0
   26.3010   20.6350   15.2880 N   0  0  0  0  0  0  0  0  0  0  0  0
   25.6960   19.9960   14.2330 C   0  0  0  0  0  0  0  0  0  0  0  0
   25.5810   20.5490   13.1410 O   0  0  0  0  0  0  0  0  0  0  0  0
   26.4440   16.6710   10.1960 C   0  0  0  0  0  0  0  0  0  0  0  0
   26.0930   15.8620    9.1390 N   0  0  0  0  0  0  0  0  0  0  0  0
   26.7360   15.4490    8.0120 C   0  0  0  0  0  0  0  0  0  0  0  0
   25.9320   14.6790    7.3080 N   0  0  0  0  0  0  0  0  0  0  0  0
   24.7340   14.5770    7.9860 N   0  0  0  0  0  0  0  0  0  0  0  0
   24.8550   15.2910    9.0770 C   0  0  0  0  0  0  0  0  0  0  0  0
   21.4810   15.5560    7.6300 C   0  0  0  0  0  0  0  0  0  0  0  0
   20.4960   16.1900    7.0300 N   0  0  0  0  0  0  0  0  0  0  0  0
   18.9258   19.5062    8.5155 H   0  0  0  0  0  0  0  0  0  0  0  0
   19.7645   19.1263    6.9731 H   0  0  0  0  0  0  0  0  0  0  0  0
   18.0053   19.4896    6.9731 H   0  0  0  0  0  0  0  0  0  0  0  0
   17.8091   17.4342    8.5656 H   0  0  0  0  0  0  0  0  0  0  0  0
   18.0967   17.1538    6.7944 H   0  0  0  0  0  0  0  0  0  0  0  0
   19.9150   16.7363   10.2674 H   0  0  0  0  0  0  0  0  0  0  0  0
   24.0166   17.4891   13.0710 H   0  0  0  0  0  0  0  0  0  0  0  0
   24.2011   18.6373   15.0484 H   0  0  0  0  0  0  0  0  0  0  0  0
   25.7625   16.8467   15.6432 H   0  0  0  0  0  0  0  0  0  0  0  0
   27.1173   17.7462   14.8799 H   0  0  0  0  0  0  0  0  0  0  0  0
   25.4181   18.6528   17.2542 H   0  0  0  0  0  0  0  0  0  0  0  0
   27.1497   18.1249   17.2807 H   0  0  0  0  0  0  0  0  0  0  0  0
   26.3794   21.6602   15.2268 H   0  0  0  0  0  0  0  0  0  0  0  0
   27.4407   17.1331   10.2516 H   0  0  0  0  0  0  0  0  0  0  0  0
   27.7659   15.7166    7.7331 H   0  0  0  0  0  0  0  0  0  0  0  0
   22.2712   14.9928    7.1119 H   0  0  0  0  0  0  0  0  0  0  0  0
  1  2  1  0
  2  3  1  0
  3  4  2  0
  4  5  1  0
  5  6  1  0
  6  7  2  0
  6  8  2  0
  6  9  1  0
  9 10  2  0
 10 11  1  0
 11 12  1  0
 12 13  2  0
 12 14  1  0
 14 15  1  0
 15 16  1  0
 16 17  1  0
 17 18  1  0
 18 19  2  0
 18 20  1  0
 20 21  1  0
 21 22  2  0
 11 23  2  0
 23 24  1  0
 24 25  1  0
 25 26  2  0
 26 27  1  0
 27 28  2  0
  5 29  1  0
 29 30  2  0
 30  3  1  0
 28  9  1  0
 21 15  1  0
 28 24  1  0
  1 31  1  0
  1 32  1  0
  1 33  1  0
  2 34  1  0
  2 35  1  0
  4 36  1  0
 14 37  1  0
 15 38  1  1
 16 39  1  0
 16 40  1  0
 17 41  1  0
 17 42  1  0
 20 43  1  0
 23 44  1  0
 25 45  1  0
 29 46  1  0
M  END
>  <meeko>  (1304) 
{"is_sidechain": [true], "free_energy": -10.12, "intermolecular_energy": 0.0, "internal_energy": -10.12, "cluster_size": 9, "cluster_id": 1, "rank_in_cluster": 1}

>  <_RMSD_MCS_to_ref>  (1304) 
0.5771962885843561

$$$$
ligand
     RDKit          3D

 48 51  0  0  0  0  0  0  0  0999 V2000
   18.7970   18.8170    7.7190 C   0  0  0  0  0  0  0  0  0  0  0  0
   18.5280   17.3290    7.8810 C   0  0  0  0  0  0  0  0  0  0  0  0
   19.6190   16.4950    7.3110 C   0  0  0  0  0  0  0  0  0  0  0  0
   20.6380   15.8300    7.9640 C   0  0  0  0  0  0  0  0  0  0  0  0
   21.3320   15.2130    6.9630 N   0  0  0  0  0  0  0  0  0  0  0  0
   22.7680   14.3730    7.1300 S   0  0  0  0  0  6  0  0  0  0  0  0
   23.7840   15.1350    6.4310 O   0  0  0  0  0  0  0  0  0  0  0  0
   22.4840   12.9850    6.8130 O   0  0  0  0  0  0  0  0  0  0  0  0
   23.2420   14.3680    8.8210 C   0  0  0  0  0  0  0  0  0  0  0  0
   22.9530   13.4400    9.7160 N   0  0  0  0  0  0  0  0  0  0  0  0
   23.5350   13.8670   10.8820 C   0  0  0  0  0  0  0  0  0  0  0  0
   23.5510   13.2650   12.1490 C   0  0  0  0  0  0  0  0  0  0  0  0
   24.2290   13.9080   13.1950 C   0  0  0  0  0  0  0  0  0  0  0  0
   24.8750   15.1380   12.9880 C   0  0  0  0  0  0  0  0  0  0  0  0
   25.6060   15.8370   14.0840 C   0  0  0  0  0  0  0  0  0  0  0  0
   26.1090   15.1960   15.0000 O   0  0  0  0  0  0  0  0  0  0  0  0
   25.7100   17.2070   13.9850 N   0  0  0  0  0  0  0  0  0  0  0  0
   26.5330   17.9650   14.9180 C   0  0  2  0  0  0  0  0  0  0  0  0
   26.0490   17.8310   16.3580 C   0  0  0  0  0  0  0  0  0  0  0  0
   26.9260   18.6780   17.2680 C   0  0  0  0  0  0  0  0  0  0  0  0
   26.9550   20.1190   16.8160 C   0  0  0  0  0  0  0  0  0  0  0  0
   27.0430   21.0550   17.6050 O   0  0  0  0  0  0  0  0  0  0  0  0
   26.9090   20.3400   15.4630 N   0  0  0  0  0  0  0  0  0  0  0  0
   26.4900   19.4420   14.5140 C   0  0  0  0  0  0  0  0  0  0  0  0
   26.1170   19.8160   13.4020 O   0  0  0  0  0  0  0  0  0  0  0  0
   24.8770   15.7430   11.7170 C   0  0  0  0  0  0  0  0  0  0  0  0
   24.1930   15.0780   10.6970 C   0  0  0  0  0  0  0  0  0  0  0  0
   23.9920   15.3750    9.3740 N   0  0  0  0  0  0  0  0  0  0  0  0
   20.7880   15.5560    5.7680 C   0  0  0  0  0  0  0  0  0  0  0  0
   19.7240   16.3120    5.9450 N   0  0  0  0  0  0  0  0  0  0  0  0
   18.8815   19.2845    8.7111 H   0  0  0  0  0  0  0  0  0  0  0  0
   19.7359   18.9616    7.1643 H   0  0  0  0  0  0  0  0  0  0  0  0
   17.9682   19.2812    7.1643 H   0  0  0  0  0  0  0  0  0  0  0  0
   18.4313   17.1013    8.9528 H   0  0  0  0  0  0  0  0  0  0  0  0
   17.6024   17.0922    7.3359 H   0  0  0  0  0  0  0  0  0  0  0  0
   20.8437   15.8034    9.0443 H   0  0  0  0  0  0  0  0  0  0  0  0
   23.0407   12.3055   12.3192 H   0  0  0  0  0  0  0  0  0  0  0  0
   24.2552   13.4426   14.1913 H   0  0  0  0  0  0  0  0  0  0  0  0
   25.1986   17.7025   13.2408 H   0  0  0  0  0  0  0  0  0  0  0  0
   27.5566   17.5647   14.8730 H   0  0  0  0  0  0  0  0  0  0  0  0
   25.0068   18.1758   16.4282 H   0  0  0  0  0  0  0  0  0  0  0  0
   26.1080   16.7773   16.6684 H   0  0  0  0  0  0  0  0  0  0  0  0
   26.5289   18.6318   18.2928 H   0  0  0  0  0  0  0  0  0  0  0  0
   27.9513   18.2813   17.2297 H   0  0  0  0  0  0  0  0  0  0  0  0
   27.2171   21.2643   15.1290 H   0  0  0  0  0  0  0  0  0  0  0  0
   25.3941   16.6967   11.5353 H   0  0  0  0  0  0  0  0  0  0  0  0
   24.3428   16.2086    8.8811 H   0  0  0  0  0  0  0  0  0  0  0  0
   21.1807   15.2460    4.7884 H   0  0  0  0  0  0  0  0  0  0  0  0
  1  2  1  0
  2  3  1  0
  3  4  2  0
  4  5  1  0
  5  6  1  0
  6  7  2  0
  6  8  2  0
  6  9  1  0
  9 10  2  0
 10 11  1  0
 11 12  2  0
 12 13  1  0
 13 14  2  0
 14 15  1  0
 15 16  2  0
 15 17  1  0
 17 18  1  0
 18 19  1  0
 19 20  1  0
 20 21  1  0
 21 22  2  0
 21 23  1  0
 23 24  1  0
 24 25  2  0
 14 26  1  0
 26 27  2  0
 27 28  1  0
  5 29  1  0
 29 30  2  0
 30  3  1  0
 28  9  1  0
 27 11  1  0
 24 18  1  0
  1 31  1  0
  1 32  1  0
  1 33  1  0
  2 34  1  0
  2 35  1  0
  4 36  1  0
 12 37  1  0
 13 38  1  0
 17 39  1  0
 18 40  1  1
 19 41  1  0
 19 42  1  0
 20 43  1  0
 20 44  1  0
 23 45  1  0
 26 46  1  0
 28 47  1  0
 29 48  1  0
M  END
>  <meeko>  (1305) 
{"is_sidechain": [true], "free_energy": -10.12, "intermolecular_energy": 0.0, "internal_energy": -10.12, "cluster_size": 9, "cluster_id": 1, "rank_in_cluster": 1}

>  <_RMSD_MCS_to_ref>  (1305) 
0.9306940659768086

$$$$
ligand
     RDKit          3D

 48 51  0  0  0  0  0  0  0  0999 V2000
   18.7970   18.8170    7.7190 C   0  0  0  0  0  0  0  0  0  0  0  0
   18.5280   17.3290    7.8810 C   0  0  0  0  0  0  0  0  0  0  0  0
   19.7720   16.5190    7.7840 C   0  0  0  0  0  0  0  0  0  0  0  0
   20.6700   16.1840    8.7790 C   0  0  0  0  0  0  0  0  0  0  0  0
   21.6250   15.4500    8.1340 N   0  0  0  0  0  0  0  0  0  0  0  0
   22.8630   14.5840    8.8690 S   0  0  0  0  0  6  0  0  0  0  0  0
   22.8940   13.2970    8.2020 O   0  0  0  0  0  0  0  0  0  0  0  0
   24.0100   15.4700    8.9040 O   0  0  0  0  0  0  0  0  0  0  0  0
   22.2710   14.3520   10.5370 C   0  0  0  0  0  0  0  0  0  0  0  0
   21.0180   13.6830   10.7170 C   0  0  0  0  0  0  0  0  0  0  0  0
   20.4480   13.4530   11.9860 C   0  0  0  0  0  0  0  0  0  0  0  0
   21.2160   13.9350   13.0600 C   0  0  0  0  0  0  0  0  0  0  0  0
   20.9570   13.8970   14.3740 N   0  0  0  0  0  0  0  0  0  0  0  0
   21.9940   14.5350   14.9430 N   0  0  0  0  0  0  0  0  0  0  0  0
   22.9840   14.9340   14.0780 C   0  0  0  0  0  0  0  0  0  0  0  0
   24.1730   15.5600   14.5870 C   0  0  0  0  0  0  0  0  0  0  0  0
   25.1420   14.9090   14.9640 O   0  0  0  0  0  0  0  0  0  0  0  0
   24.1850   16.9320   14.5670 N   0  0  0  0  0  0  0  0  0  0  0  0
   25.3760   17.6990   14.9010 C   0  0  2  0  0  0  0  0  0  0  0  0
   25.6950   17.6680   16.3910 C   0  0  0  0  0  0  0  0  0  0  0  0
   26.9090   18.5410   16.6660 C   0  0  0  0  0  0  0  0  0  0  0  0
   26.7000   19.9510   16.1640 C   0  0  0  0  0  0  0  0  0  0  0  0
   27.1820   20.9300   16.7270 O   0  0  0  0  0  0  0  0  0  0  0  0
   25.9640   20.0910   15.0140 N   0  0  0  0  0  0  0  0  0  0  0  0
   25.1230   19.1490   14.4780 C   0  0  0  0  0  0  0  0  0  0  0  0
   24.2270   19.4600   13.6910 O   0  0  0  0  0  0  0  0  0  0  0  0
   22.4860   14.6000   12.8380 C   0  0  0  0  0  0  0  0  0  0  0  0
   23.0640   14.8620   11.5920 C   0  0  0  0  0  0  0  0  0  0  0  0
   21.2790   15.3170    6.8280 C   0  0  0  0  0  0  0  0  0  0  0  0
   20.1610   15.9660    6.5800 N   0  0  0  0  0  0  0  0  0  0  0  0
   18.8815   19.2845    8.7111 H   0  0  0  0  0  0  0  0  0  0  0  0
   19.7359   18.9616    7.1643 H   0  0  0  0  0  0  0  0  0  0  0  0
   17.9682   19.2812    7.1643 H   0  0  0  0  0  0  0  0  0  0  0  0
   18.0693   17.1571    8.8659 H   0  0  0  0  0  0  0  0  0  0  0  0
   17.8574   17.0166    7.0669 H   0  0  0  0  0  0  0  0  0  0  0  0
   20.6262   16.4478    9.8460 H   0  0  0  0  0  0  0  0  0  0  0  0
   20.4761   13.3330    9.8260 H   0  0  0  0  0  0  0  0  0  0  0  0
   19.4846   12.9402   12.1237 H   0  0  0  0  0  0  0  0  0  0  0  0
   22.0431   14.7124   15.9564 H   0  0  0  0  0  0  0  0  0  0  0  0
   23.3243   17.4347   14.3075 H   0  0  0  0  0  0  0  0  0  0  0  0
   26.2355   17.2555   14.3770 H   0  0  0  0  0  0  0  0  0  0  0  0
   24.8331   18.0486   16.9588 H   0  0  0  0  0  0  0  0  0  0  0  0
   25.9086   16.6340   16.6995 H   0  0  0  0  0  0  0  0  0  0  0  0
   27.0902   18.5705   17.7506 H   0  0  0  0  0  0  0  0  0  0  0  0
   27.7720   18.1099   16.1374 H   0  0  0  0  0  0  0  0  0  0  0  0
   26.0509   20.9838   14.5078 H   0  0  0  0  0  0  0  0  0  0  0  0
   24.0147   15.3968   11.4500 H   0  0  0  0  0  0  0  0  0  0  0  0
   21.8523   14.7471    6.0820 H   0  0  0  0  0  0  0  0  0  0  0  0
  1  2  1  0
  2  3  1  0
  3  4  2  0
  4  5  1  0
  5  6  1  0
  6  7  2  0
  6  8  2  0
  6  9  1  0
  9 10  1  0
 10 11  2  0
 11 12  1  0
 12 13  2  0
 13 14  1  0
 14 15  1  0
 15 16  1  0
 16 17  2  0
 16 18  1  0
 18 19  1  0
 19 20  1  0
 20 21  1  0
 21 22  1  0
 22 23  2  0
 22 24  1  0
 24 25  1  0
 25 26  2  0
 15 27  2  0
 27 28  1  0
  5 29  1  0
 29 30  2  0
 30  3  1  0
 28  9  2  0
 27 12  1  0
 25 19  1  0
  1 31  1  0
  1 32  1  0
  1 33  1  0
  2 34  1  0
  2 35  1  0
  4 36  1  0
 10 37  1  0
 11 38  1  0
 14 39  1  0
 18 40  1  0
 19 41  1  6
 20 42  1  0
 20 43  1  0
 21 44  1  0
 21 45  1  0
 24 46  1  0
 28 47  1  0
 29 48  1  0
M  END
>  <meeko>  (1306) 
{"is_sidechain": [true], "free_energy": -10.12, "intermolecular_energy": 0.0, "internal_energy": -10.12, "cluster_size": 12, "cluster_id": 1, "rank_in_cluster": 1}

>  <_RMSD_MCS_to_ref>  (1306) 
0.7070876104761619

$$$$
ligand
     RDKit          3D

 51 54  0  0  0  0  0  0  0  0999 V2000
   18.7970   18.8170    7.7190 C   0  0  0  0  0  0  0  0  0  0  0  0
   18.5280   17.3290    7.8810 C   0  0  0  0  0  0  0  0  0  0  0  0
   19.7590   16.5130    7.6940 C   0  0  0  0  0  0  0  0  0  0  0  0
   20.1170   15.3280    8.3040 C   0  0  0  0  0  0  0  0  0  0  0  0
   21.3300   15.0200    7.7540 N   0  0  0  0  0  0  0  0  0  0  0  0
   22.3530   13.7840    8.2480 S   0  0  0  0  0  6  0  0  0  0  0  0
   23.6910   14.3190    8.0920 O   0  0  0  0  0  0  0  0  0  0  0  0
   21.8940   12.6110    7.5290 O   0  0  0  0  0  0  0  0  0  0  0  0
   22.0790   13.4990    9.9850 C   0  0  0  0  0  0  0  0  0  0  0  0
   21.0490   12.6410   10.4020 C   0  0  0  0  0  0  0  0  0  0  0  0
   20.8360   12.4220   11.7580 C   0  0  0  0  0  0  0  0  0  0  0  0
   21.6450   13.0500   12.6990 C   0  0  0  0  0  0  0  0  0  0  0  0
   22.6810   13.9100   12.3070 C   0  0  0  0  0  0  0  0  0  0  0  0
   23.4760   14.5230   13.2890 C   0  0  0  0  0  0  0  0  0  0  0  0
   24.5240   15.3830   12.9450 C   0  0  0  0  0  0  0  0  0  0  0  0
   25.3230   16.0010   14.0410 C   0  0  0  0  0  0  0  0  0  0  0  0
   25.7770   15.3080   14.9440 O   0  0  0  0  0  0  0  0  0  0  0  0
   25.5420   17.3580   13.9590 N   0  0  0  0  0  0  0  0  0  0  0  0
   26.4350   18.0300   14.8930 C   0  0  2  0  0  0  0  0  0  0  0  0
   25.9560   17.9120   16.3360 C   0  0  0  0  0  0  0  0  0  0  0  0
   26.9100   18.6650   17.2500 C   0  0  0  0  0  0  0  0  0  0  0  0
   27.0550   20.1080   16.8220 C   0  0  0  0  0  0  0  0  0  0  0  0
   27.2330   21.0180   17.6250 O   0  0  0  0  0  0  0  0  0  0  0  0
   27.0100   20.3560   15.4740 N   0  0  0  0  0  0  0  0  0  0  0  0
   26.5100   19.5130   14.5140 C   0  0  0  0  0  0  0  0  0  0  0  0
   26.1600   19.9370   13.4130 O   0  0  0  0  0  0  0  0  0  0  0  0
   24.7670   15.6500   11.6000 C   0  0  0  0  0  0  0  0  0  0  0  0
   23.9820   15.0440   10.6130 C   0  0  0  0  0  0  0  0  0  0  0  0
   22.9210   14.1550   10.9310 C   0  0  0  0  0  0  0  0  0  0  0  0
   21.6810   15.9950    6.8750 C   0  0  0  0  0  0  0  0  0  0  0  0
   20.7480   16.9230    6.8210 N   0  0  0  0  0  0  0  0  0  0  0  0
   18.8815   19.2845    8.7111 H   0  0  0  0  0  0  0  0  0  0  0  0
   19.7359   18.9616    7.1643 H   0  0  0  0  0  0  0  0  0  0  0  0
   17.9682   19.2812    7.1643 H   0  0  0  0  0  0  0  0  0  0  0  0
   18.1328   17.1481    8.8915 H   0  0  0  0  0  0  0  0  0  0  0  0
   17.8034   17.0301    7.1092 H   0  0  0  0  0  0  0  0  0  0  0  0
   19.5546   14.7607    9.0602 H   0  0  0  0  0  0  0  0  0  0  0  0
   20.4115   12.1428    9.6568 H   0  0  0  0  0  0  0  0  0  0  0  0
   20.0278   11.7522   12.0868 H   0  0  0  0  0  0  0  0  0  0  0  0
   21.4691   12.8689   13.7696 H   0  0  0  0  0  0  0  0  0  0  0  0
   23.2702   14.3226   14.3508 H   0  0  0  0  0  0  0  0  0  0  0  0
   25.0676   17.9055   13.2268 H   0  0  0  0  0  0  0  0  0  0  0  0
   27.4217   17.5481   14.8282 H   0  0  0  0  0  0  0  0  0  0  0  0
   24.9475   18.3424   16.4239 H   0  0  0  0  0  0  0  0  0  0  0  0
   25.9289   16.8518   16.6278 H   0  0  0  0  0  0  0  0  0  0  0  0
   26.5211   18.6334   18.2785 H   0  0  0  0  0  0  0  0  0  0  0  0
   27.8979   18.1845   17.1932 H   0  0  0  0  0  0  0  0  0  0  0  0
   27.3866   21.2591   15.1524 H   0  0  0  0  0  0  0  0  0  0  0  0
   25.5764   16.3376   11.3135 H   0  0  0  0  0  0  0  0  0  0  0  0
   24.1935   15.2633    9.5560 H   0  0  0  0  0  0  0  0  0  0  0  0
   22.6130   16.0074    6.2909 H   0  0  0  0  0  0  0  0  0  0  0  0
  1  2  1  0
  2  3  1  0
  3  4  2  0
  4  5  1  0
  5  6  1  0
  6  7  2  0
  6  8  2  0
  6  9  1  0
  9 10  2  0
 10 11  1  0
 11 12  2  0
 12 13  1  0
 13 14  2  0
 14 15  1  0
 15 16  1  0
 16 17  2  0
 16 18  1  0
 18 19  1  0
 19 20  1  0
 20 21  1  0
 21 22  1  0
 22 23  2  0
 22 24  1  0
 24 25  1  0
 25 26  2  0
 15 27  2  0
 27 28  1  0
 28 29  2  0
  5 30  1  0
 30 31  2  0
 31  3  1  0
 29  9  1  0
 29 13  1  0
 25 19  1  0
  1 32  1  0
  1 33  1  0
  1 34  1  0
  2 35  1  0
  2 36  1  0
  4 37  1  0
 10 38  1  0
 11 39  1  0
 12 40  1  0
 14 41  1  0
 18 42  1  0
 19 43  1  1
 20 44  1  0
 20 45  1  0
 21 46  1  0
 21 47  1  0
 24 48  1  0
 27 49  1  0
 28 50  1  0
 30 51  1  0
M  END
>  <meeko>  (1307) 
{"is_sidechain": [true], "free_energy": -10.12, "intermolecular_energy": 0.0, "internal_energy": -10.12, "cluster_size": 16, "cluster_id": 1, "rank_in_cluster": 1}

>  <_RMSD_MCS_to_ref>  (1307) 
0.8995766288155282

$$$$
ligand
     RDKit          3D

 48 51  0  0  0  0  0  0  0  0999 V2000
   18.7970   18.8170    7.7190 C   0  0  0  0  0  0  0  0  0  0  0  0
   18.5280   17.3290    7.8810 C   0  0  0  0  0  0  0  0  0  0  0  0
   19.7830   16.5400    8.0040 C   0  0  0  0  0  0  0  0  0  0  0  0
   20.2560   15.8240    9.0850 C   0  0  0  0  0  0  0  0  0  0  0  0
   21.4470   15.3150    8.6560 N   0  0  0  0  0  0  0  0  0  0  0  0
   22.3560   14.1210    9.4340 S   0  0  0  0  0  6  0  0  0  0  0  0
   22.0520   12.9120    8.6870 O   0  0  0  0  0  0  0  0  0  0  0  0
   23.7090   14.6500    9.4550 O   0  0  0  0  0  0  0  0  0  0  0  0
   21.7300   14.0070   11.0550 C   0  0  0  0  0  0  0  0  0  0  0  0
   20.7320   13.1290   11.2890 C   0  0  0  0  0  0  0  0  0  0  0  0
   20.1250   13.0050   12.6560 C   0  0  0  0  0  0  0  0  0  0  0  0
   19.2190   12.2030   12.8510 O   0  0  0  0  0  0  0  0  0  0  0  0
   20.6140   13.8220   13.6470 N   0  0  0  0  0  0  0  0  0  0  0  0
   21.6260   14.6760   13.3390 C   0  0  0  0  0  0  0  0  0  0  0  0
   22.1610   15.4940   14.2630 O   0  0  0  0  0  0  0  0  0  0  0  0
   23.1550   16.1930   13.6100 C   0  0  0  0  0  0  0  0  0  0  0  0
   23.9310   17.1730   14.3410 C   0  0  0  0  0  0  0  0  0  0  0  0
   23.4280   18.0620   15.0220 O   0  0  0  0  0  0  0  0  0  0  0  0
   25.2920   17.0210   14.2220 N   0  0  0  0  0  0  0  0  0  0  0  0
   26.2320   17.8020   15.0070 C   0  0  2  0  0  0  0  0  0  0  0  0
   25.8980   17.7810   16.4940 C   0  0  0  0  0  0  0  0  0  0  0  0
   26.8960   18.6430   17.2510 C   0  0  0  0  0  0  0  0  0  0  0  0
   26.9340   20.0500   16.7020 C   0  0  0  0  0  0  0  0  0  0  0  0
   27.1390   21.0290   17.4130 O   0  0  0  0  0  0  0  0  0  0  0  0
   26.7580   20.1860   15.3480 N   0  0  0  0  0  0  0  0  0  0  0  0
   26.2030   19.2500   14.5090 C   0  0  0  0  0  0  0  0  0  0  0  0
   25.7280   19.5740   13.4210 O   0  0  0  0  0  0  0  0  0  0  0  0
   23.2200   15.7920   12.2800 C   0  0  0  0  0  0  0  0  0  0  0  0
   22.2180   14.8200   12.1150 C   0  0  0  0  0  0  0  0  0  0  0  0
   21.6480   15.6800    7.3630 C   0  0  0  0  0  0  0  0  0  0  0  0
   20.6540   16.4310    6.9370 N   0  0  0  0  0  0  0  0  0  0  0  0
   18.8815   19.2845    8.7111 H   0  0  0  0  0  0  0  0  0  0  0  0
   19.7359   18.9616    7.1643 H   0  0  0  0  0  0  0  0  0  0  0  0
   17.9682   19.2812    7.1643 H   0  0  0  0  0  0  0  0  0  0  0  0
   17.9229   17.1752    8.7867 H   0  0  0  0  0  0  0  0  0  0  0  0
   17.9985   16.9822    6.9813 H   0  0  0  0  0  0  0  0  0  0  0  0
   19.7809   15.6934   10.0685 H   0  0  0  0  0  0  0  0  0  0  0  0
   20.3595   12.4975   10.4690 H   0  0  0  0  0  0  0  0  0  0  0  0
   20.2235   13.7882   14.5995 H   0  0  0  0  0  0  0  0  0  0  0  0
   25.6581   16.3290   13.5527 H   0  0  0  0  0  0  0  0  0  0  0  0
   27.2305   17.3576   14.8829 H   0  0  0  0  0  0  0  0  0  0  0  0
   24.8827   18.1756   16.6472 H   0  0  0  0  0  0  0  0  0  0  0  0
   25.9503   16.7473   16.8665 H   0  0  0  0  0  0  0  0  0  0  0  0
   26.6057   18.6799   18.3114 H   0  0  0  0  0  0  0  0  0  0  0  0
   27.8957   18.1986   17.1363 H   0  0  0  0  0  0  0  0  0  0  0  0
   27.0703   21.0701   14.9218 H   0  0  0  0  0  0  0  0  0  0  0  0
   23.9154   16.1611   11.5118 H   0  0  0  0  0  0  0  0  0  0  0  0
   22.5188   15.3890    6.7571 H   0  0  0  0  0  0  0  0  0  0  0  0
  1  2  1  0
  2  3  1  0
  3  4  2  0
  4  5  1  0
  5  6  1  0
  6  7  2  0
  6  8  2  0
  6  9  1  0
  9 10  2  0
 10 11  1  0
 11 12  2  0
 11 13  1  0
 13 14  1  0
 14 15  1  0
 15 16  1  0
 16 17  1  0
 17 18  2  0
 17 19  1  0
 19 20  1  0
 20 21  1  0
 21 22  1  0
 22 23  1  0
 23 24  2  0
 23 25  1  0
 25 26  1  0
 26 27  2  0
 16 28  2  0
 28 29  1  0
  5 30  1  0
 30 31  2  0
 31  3  1  0
 29  9  1  0
 29 14  2  0
 26 20  1  0
  1 32  1  0
  1 33  1  0
  1 34  1  0
  2 35  1  0
  2 36  1  0
  4 37  1  0
 10 38  1  0
 13 39  1  0
 19 40  1  0
 20 41  1  1
 21 42  1  0
 21 43  1  0
 22 44  1  0
 22 45  1  0
 25 46  1  0
 28 47  1  0
 30 48  1  0
M  END
>  <meeko>  (1308) 
{"is_sidechain": [true], "free_energy": -10.12, "intermolecular_energy": 0.0, "internal_energy": -10.12, "cluster_size": 13, "cluster_id": 1, "rank_in_cluster": 1}

>  <_RMSD_MCS_to_ref>  (1308) 
0.7724837287031429

$$$$
ligand
     RDKit          3D

 52 56  0  0  0  0  0  0  0  0999 V2000
   18.7970   18.8170    7.7190 C   0  0  0  0  0  0  0  0  0  0  0  0
   18.5280   17.3290    7.8810 C   0  0  0  0  0  0  0  0  0  0  0  0
   19.7810   16.5470    8.0590 C   0  0  0  0  0  0  0  0  0  0  0  0
   20.7560   16.2460    7.1290 C   0  0  0  0  0  0  0  0  0  0  0  0
   21.6700   15.5110    7.8260 N   0  0  0  0  0  0  0  0  0  0  0  0
   23.1950   15.0560    7.2870 S   0  0  0  0  0  6  0  0  0  0  0  0
   22.9730   13.9030    6.4370 O   0  0  0  0  0  0  0  0  0  0  0  0
   23.8350   16.2650    6.8080 O   0  0  0  0  0  0  0  0  0  0  0  0
   24.0320   14.5260    8.7550 C   0  0  0  0  0  0  0  0  0  0  0  0
   24.3170   15.4460    9.7580 C   0  0  0  0  0  0  0  0  0  0  0  0
   24.9700   15.0360   10.9400 C   0  0  0  0  0  0  0  0  0  0  0  0
   25.2040   16.0640   11.9470 C   0  0  0  0  0  0  0  0  0  0  0  0
   24.2770   16.7360   12.7110 C   0  0  0  0  0  0  0  0  0  0  0  0
   25.0210   17.6000   13.4600 N   0  0  0  0  0  0  0  0  0  0  0  0
   24.5520   18.5110   14.4850 C   0  0  1  0  0  0  0  0  0  0  0  0
   24.8850   18.0660   15.9090 C   0  0  0  0  0  0  0  0  0  0  0  0
   26.3430   18.3150   16.2710 C   0  0  0  0  0  0  0  0  0  0  0  0
   26.7540   19.7390   15.9830 C   0  0  0  0  0  0  0  0  0  0  0  0
   27.6320   20.3110   16.6210 O   0  0  0  0  0  0  0  0  0  0  0  0
   26.1120   20.3670   14.9460 N   0  0  0  0  0  0  0  0  0  0  0  0
   25.0390   19.9190   14.2130 C   0  0  0  0  0  0  0  0  0  0  0  0
   24.5080   20.6490   13.3780 O   0  0  0  0  0  0  0  0  0  0  0  0
   26.3290   17.4920   13.1720 N   0  0  0  0  0  0  0  0  0  0  0  0
   26.4550   16.5570   12.2410 N   0  0  0  0  0  0  0  0  0  0  0  0
   25.3720   13.6930   11.1100 C   0  0  0  0  0  0  0  0  0  0  0  0
   26.0240   13.2570   12.2160 N   0  0  0  0  0  0  0  0  0  0  0  0
   26.3890   11.9590   12.3110 C   0  0  0  0  0  0  0  0  0  0  0  0
   26.1390   11.0220   11.3340 C   0  0  0  0  0  0  0  0  0  0  0  0
   25.4750   11.4440   10.1930 C   0  0  0  0  0  0  0  0  0  0  0  0
   25.0830   12.7830   10.0600 C   0  0  0  0  0  0  0  0  0  0  0  0
   24.4190   13.1990    8.8950 C   0  0  0  0  0  0  0  0  0  0  0  0
   21.2680   15.4120    9.1200 C   0  0  0  0  0  0  0  0  0  0  0  0
   20.1160   16.0250    9.2940 N   0  0  0  0  0  0  0  0  0  0  0  0
   18.8815   19.2845    8.7111 H   0  0  0  0  0  0  0  0  0  0  0  0
   19.7359   18.9616    7.1643 H   0  0  0  0  0  0  0  0  0  0  0  0
   17.9682   19.2812    7.1643 H   0  0  0  0  0  0  0  0  0  0  0  0
   17.8884   17.1787    8.7632 H   0  0  0  0  0  0  0  0  0  0  0  0
   18.0356   16.9733    6.9639 H   0  0  0  0  0  0  0  0  0  0  0  0
   20.7885   16.5334    6.0677 H   0  0  0  0  0  0  0  0  0  0  0  0
   24.0315   16.5005    9.6292 H   0  0  0  0  0  0  0  0  0  0  0  0
   23.1847   16.6059   12.7164 H   0  0  0  0  0  0  0  0  0  0  0  0
   23.4535   18.4983   14.4281 H   0  0  0  0  0  0  0  0  0  0  0  0
   24.2470   18.6229   16.6110 H   0  0  0  0  0  0  0  0  0  0  0  0
   24.7050   16.9826   15.9717 H   0  0  0  0  0  0  0  0  0  0  0  0
   26.4837   18.1131   17.3431 H   0  0  0  0  0  0  0  0  0  0  0  0
   26.9673   17.6472   15.6592 H   0  0  0  0  0  0  0  0  0  0  0  0
   26.4810   21.2920   14.6832 H   0  0  0  0  0  0  0  0  0  0  0  0
   26.9154   11.6331   13.2202 H   0  0  0  0  0  0  0  0  0  0  0  0
   26.4551    9.9753   11.4546 H   0  0  0  0  0  0  0  0  0  0  0  0
   25.2550   10.7258    9.3894 H   0  0  0  0  0  0  0  0  0  0  0  0
   24.2055   12.4755    8.0944 H   0  0  0  0  0  0  0  0  0  0  0  0
   21.8271   14.8921    9.9119 H   0  0  0  0  0  0  0  0  0  0  0  0
  1  2  1  0
  2  3  1  0
  3  4  2  0
  4  5  1  0
  5  6  1  0
  6  7  2  0
  6  8  2  0
  6  9  1  0
  9 10  2  0
 10 11  1  0
 11 12  1  0
 12 13  2  0
 13 14  1  0
 14 15  1  0
 15 16  1  0
 16 17  1  0
 17 18  1  0
 18 19  2  0
 18 20  1  0
 20 21  1  0
 21 22  2  0
 14 23  1  0
 23 24  2  0
 11 25  2  0
 25 26  1  0
 26 27  2  0
 27 28  1  0
 28 29  2  0
 29 30  1  0
 30 31  2  0
  5 32  1  0
 32 33  2  0
 33  3  1  0
 31  9  1  0
 24 12  1  0
 30 25  1  0
 21 15  1  0
  1 34  1  0
  1 35  1  0
  1 36  1  0
  2 37  1  0
  2 38  1  0
  4 39  1  0
 10 40  1  0
 13 41  1  0
 15 42  1  1
 16 43  1  0
 16 44  1  0
 17 45  1  0
 17 46  1  0
 20 47  1  0
 27 48  1  0
 28 49  1  0
 29 50  1  0
 31 51  1  0
 32 52  1  0
M  END
>  <meeko>  (1309) 
{"is_sidechain": [true], "free_energy": -10.12, "intermolecular_energy": 0.0, "internal_energy": -10.12, "cluster_size": 7, "cluster_id": 1, "rank_in_cluster": 1}

>  <_RMSD_MCS_to_ref>  (1309) 
0.769636133362888

$$$$
ligand
     RDKit          3D

 48 51  0  0  0  0  0  0  0  0999 V2000
   18.9090   19.1540    7.5370 C   0  0  0  0  0  0  0  0  0  0  0  0
   18.7730   17.6460    7.6780 C   0  0  0  0  0  0  0  0  0  0  0  0
   20.0840   16.9500    7.5610 C   0  0  0  0  0  0  0  0  0  0  0  0
   20.4730   15.7330    8.0820 C   0  0  0  0  0  0  0  0  0  0  0  0
   21.7570   15.5750    7.6450 N   0  0  0  0  0  0  0  0  0  0  0  0
   22.8260   14.3800    8.1780 S   0  0  0  0  0  6  0  0  0  0  0  0
   21.9660   13.2320    8.4160 O   0  0  0  0  0  0  0  0  0  0  0  0
   23.8520   14.3200    7.1540 O   0  0  0  0  0  0  0  0  0  0  0  0
   23.4910   14.9470    9.6770 C   0  0  0  0  0  0  0  0  0  0  0  0
   24.7680   15.3830    9.6860 C   0  0  0  0  0  0  0  0  0  0  0  0
   25.3600   15.8360   10.9340 C   0  0  0  0  0  0  0  0  0  0  0  0
   24.6680   15.8290   12.0930 C   0  0  0  0  0  0  0  0  0  0  0  0
   25.3790   16.3400   13.3070 C   0  0  0  0  0  0  0  0  0  0  0  0
   25.8620   15.5810   14.1410 O   0  0  0  0  0  0  0  0  0  0  0  0
   25.4930   17.7050   13.3830 N   0  0  0  0  0  0  0  0  0  0  0  0
   26.2960   18.3430   14.4170 C   0  0  2  0  0  0  0  0  0  0  0  0
   25.8560   17.9360   15.8190 C   0  0  0  0  0  0  0  0  0  0  0  0
   26.7070   18.6630   16.8480 C   0  0  0  0  0  0  0  0  0  0  0  0
   26.6460   20.1600   16.6520 C   0  0  0  0  0  0  0  0  0  0  0  0
   26.7130   20.9510   17.5890 O   0  0  0  0  0  0  0  0  0  0  0  0
   26.5450   20.6080   15.3590 N   0  0  0  0  0  0  0  0  0  0  0  0
   26.1610   19.8610   14.2720 C   0  0  0  0  0  0  0  0  0  0  0  0
   25.7510   20.3950   13.2420 O   0  0  0  0  0  0  0  0  0  0  0  0
   23.3290   15.3360   12.0960 C   0  0  0  0  0  0  0  0  0  0  0  0
   22.3610   15.0820   13.0420 C   0  0  0  0  0  0  0  0  0  0  0  0
   21.2210   14.6080   12.4590 N   0  0  0  0  0  0  0  0  0  0  0  0
   21.4840   14.5490   11.1740 C   0  0  0  0  0  0  0  0  0  0  0  0
   22.7720   14.9310   10.8770 N   0  0  0  0  0  0  0  0  0  0  0  0
   22.1260   16.6750    6.9410 C   0  0  0  0  0  0  0  0  0  0  0  0
   21.1260   17.5290    6.8650 N   0  0  0  0  0  0  0  0  0  0  0  0
   18.9504   19.6134    8.5356 H   0  0  0  0  0  0  0  0  0  0  0  0
   19.8320   19.3891    6.9867 H   0  0  0  0  0  0  0  0  0  0  0  0
   18.0430   19.5504    6.9867 H   0  0  0  0  0  0  0  0  0  0  0  0
   18.3385   17.4200    8.6630 H   0  0  0  0  0  0  0  0  0  0  0  0
   18.1263   17.2875    6.8636 H   0  0  0  0  0  0  0  0  0  0  0  0
   19.8831   15.0464    8.7070 H   0  0  0  0  0  0  0  0  0  0  0  0
   25.3562   15.3955    8.7566 H   0  0  0  0  0  0  0  0  0  0  0  0
   26.4000   16.1942   10.9339 H   0  0  0  0  0  0  0  0  0  0  0  0
   25.0002   18.2911   12.6941 H   0  0  0  0  0  0  0  0  0  0  0  0
   27.3398   18.0207   14.2879 H   0  0  0  0  0  0  0  0  0  0  0  0
   24.7986   18.2025   15.9633 H   0  0  0  0  0  0  0  0  0  0  0  0
   25.9803   16.8499   15.9416 H   0  0  0  0  0  0  0  0  0  0  0  0
   26.3385   18.4182   17.8551 H   0  0  0  0  0  0  0  0  0  0  0  0
   27.7512   18.3392   16.7262 H   0  0  0  0  0  0  0  0  0  0  0  0
   26.7789   21.5963   15.1875 H   0  0  0  0  0  0  0  0  0  0  0  0
   22.4891   15.2399   14.1230 H   0  0  0  0  0  0  0  0  0  0  0  0
   20.7534   14.2287   10.4166 H   0  0  0  0  0  0  0  0  0  0  0  0
   23.1200   16.8314    6.4965 H   0  0  0  0  0  0  0  0  0  0  0  0
  1  2  1  0
  2  3  1  0
  3  4  2  0
  4  5  1  0
  5  6  1  0
  6  7  2  0
  6  8  2  0
  6  9  1  0
  9 10  2  0
 10 11  1  0
 11 12  2  0
 12 13  1  0
 13 14  2  0
 13 15  1  0
 15 16  1  0
 16 17  1  0
 17 18  1  0
 18 19  1  0
 19 20  2  0
 19 21  1  0
 21 22  1  0
 22 23  2  0
 12 24  1  0
 24 25  2  0
 25 26  1  0
 26 27  2  0
 27 28  1  0
  5 29  1  0
 29 30  2  0
 30  3  1  0
 28  9  1  0
 22 16  1  0
 28 24  1  0
  1 31  1  0
  1 32  1  0
  1 33  1  0
  2 34  1  0
  2 35  1  0
  4 36  1  0
 10 37  1  0
 11 38  1  0
 15 39  1  0
 16 40  1  6
 17 41  1  0
 17 42  1  0
 18 43  1  0
 18 44  1  0
 21 45  1  0
 25 46  1  0
 27 47  1  0
 29 48  1  0
M  END
>  <meeko>  (1310) 
{"is_sidechain": [true], "free_energy": -10.12, "intermolecular_energy": 0.0, "internal_energy": -10.12, "cluster_size": 20, "cluster_id": 1, "rank_in_cluster": 1}

>  <_RMSD_MCS_to_ref>  (1310) 
0.8588139107707405

$$$$
ligand
     RDKit          3D

 47 50  0  0  0  0  0  0  0  0999 V2000
   18.9090   19.1540    7.5370 C   0  0  0  0  0  0  0  0  0  0  0  0
   18.7730   17.6460    7.6780 C   0  0  0  0  0  0  0  0  0  0  0  0
   20.0930   16.9600    7.6790 C   0  0  0  0  0  0  0  0  0  0  0  0
   20.9170   16.6610    8.7480 C   0  0  0  0  0  0  0  0  0  0  0  0
   21.9980   16.0550    8.1760 N   0  0  0  0  0  0  0  0  0  0  0  0
   23.3180   15.4270    9.0030 S   0  0  0  0  0  6  0  0  0  0  0  0
   24.3100   16.4870    8.9740 O   0  0  0  0  0  0  0  0  0  0  0  0
   23.5810   14.1150    8.4490 O   0  0  0  0  0  0  0  0  0  0  0  0
   22.8260   15.2250   10.6760 C   0  0  0  0  0  0  0  0  0  0  0  0
   23.5270   15.9140   11.6870 C   0  0  0  0  0  0  0  0  0  0  0  0
   23.1620   15.7760   13.0370 C   0  0  0  0  0  0  0  0  0  0  0  0
   23.8930   16.4900   14.1210 C   0  0  0  0  0  0  0  0  0  0  0  0
   24.2450   15.8850   15.1260 O   0  0  0  0  0  0  0  0  0  0  0  0
   24.1080   17.8380   13.9410 N   0  0  0  0  0  0  0  0  0  0  0  0
   24.6840   18.6510   15.0040 C   0  0  1  0  0  0  0  0  0  0  0  0
   25.8270   17.9390   15.7190 C   0  0  0  0  0  0  0  0  0  0  0  0
   26.4090   18.8570   16.7840 C   0  0  0  0  0  0  0  0  0  0  0  0
   26.8490   20.1750   16.1910 C   0  0  0  0  0  0  0  0  0  0  0  0
   27.8120   20.8020   16.6240 O   0  0  0  0  0  0  0  0  0  0  0  0
   26.0970   20.6660   15.1540 N   0  0  0  0  0  0  0  0  0  0  0  0
   25.2100   19.9510   14.3880 C   0  0  0  0  0  0  0  0  0  0  0  0
   24.8550   20.3510   13.2810 O   0  0  0  0  0  0  0  0  0  0  0  0
   22.1070   14.9290   13.4160 C   0  0  0  0  0  0  0  0  0  0  0  0
   21.4530   14.2710   12.3820 C   0  0  0  0  0  0  0  0  0  0  0  0
   20.4020   13.4070   12.4920 O   0  0  0  0  0  0  0  0  0  0  0  0
   20.1450   13.0460   11.2030 C   0  0  0  0  0  0  0  0  0  0  0  0
   20.9270   13.5980   10.3010 N   0  0  0  0  0  0  0  0  0  0  0  0
   21.7690   14.3870   11.0370 C   0  0  0  0  0  0  0  0  0  0  0  0
   21.8080   15.9740    6.8340 C   0  0  0  0  0  0  0  0  0  0  0  0
   20.6600   16.5260    6.4970 N   0  0  0  0  0  0  0  0  0  0  0  0
   18.9504   19.6134    8.5356 H   0  0  0  0  0  0  0  0  0  0  0  0
   19.8320   19.3891    6.9867 H   0  0  0  0  0  0  0  0  0  0  0  0
   18.0430   19.5504    6.9867 H   0  0  0  0  0  0  0  0  0  0  0  0
   18.2577   17.4238    8.6241 H   0  0  0  0  0  0  0  0  0  0  0  0
   18.2012   17.2764    6.8140 H   0  0  0  0  0  0  0  0  0  0  0  0
   20.7417   16.8647    9.8147 H   0  0  0  0  0  0  0  0  0  0  0  0
   24.3695   16.5672   11.4158 H   0  0  0  0  0  0  0  0  0  0  0  0
   23.8584   18.2773   13.0434 H   0  0  0  0  0  0  0  0  0  0  0  0
   23.8995   18.8492   15.7492 H   0  0  0  0  0  0  0  0  0  0  0  0
   25.4481   17.0215   16.1929 H   0  0  0  0  0  0  0  0  0  0  0  0
   26.6098   17.6793   14.9911 H   0  0  0  0  0  0  0  0  0  0  0  0
   25.6436   19.0467   17.5509 H   0  0  0  0  0  0  0  0  0  0  0  0
   27.2877   18.3639   17.2252 H   0  0  0  0  0  0  0  0  0  0  0  0
   26.2083   21.6649   14.9290 H   0  0  0  0  0  0  0  0  0  0  0  0
   21.8163   14.7949   14.4684 H   0  0  0  0  0  0  0  0  0  0  0  0
   19.3415   12.3436   10.9364 H   0  0  0  0  0  0  0  0  0  0  0  0
   22.5134   15.5124    6.1274 H   0  0  0  0  0  0  0  0  0  0  0  0
  1  2  1  0
  2  3  1  0
  3  4  2  0
  4  5  1  0
  5  6  1  0
  6  7  2  0
  6  8  2  0
  6  9  1  0
  9 10  2  0
 10 11  1  0
 11 12  1  0
 12 13  2  0
 12 14  1  0
 14 15  1  0
 15 16  1  0
 16 17  1  0
 17 18  1  0
 18 19  2  0
 18 20  1  0
 20 21  1  0
 21 22  2  0
 11 23  2  0
 23 24  1  0
 24 25  1  0
 25 26  1  0
 26 27  2  0
 27 28  1  0
  5 29  1  0
 29 30  2  0
 30  3  1  0
 28  9  1  0
 21 15  1  0
 28 24  2  0
  1 31  1  0
  1 32  1  0
  1 33  1  0
  2 34  1  0
  2 35  1  0
  4 36  1  0
 10 37  1  0
 14 38  1  0
 15 39  1  1
 16 40  1  0
 16 41  1  0
 17 42  1  0
 17 43  1  0
 20 44  1  0
 23 45  1  0
 26 46  1  0
 29 47  1  0
M  END
>  <meeko>  (1311) 
{"is_sidechain": [true], "free_energy": -10.12, "intermolecular_energy": 0.0, "internal_energy": -10.12, "cluster_size": 20, "cluster_id": 1, "rank_in_cluster": 1}

>  <_RMSD_MCS_to_ref>  (1311) 
0.44756054835568887

$$$$
ligand
     RDKit          3D

 47 50  0  0  0  0  0  0  0  0999 V2000
   18.9090   19.1540    7.5370 C   0  0  0  0  0  0  0  0  0  0  0  0
   18.7730   17.6460    7.6780 C   0  0  0  0  0  0  0  0  0  0  0  0
   20.0000   16.9270    7.2390 C   0  0  0  0  0  0  0  0  0  0  0  0
   20.7100   15.9400    7.8930 C   0  0  0  0  0  0  0  0  0  0  0  0
   21.7150   15.6200    7.0270 N   0  0  0  0  0  0  0  0  0  0  0  0
   23.0410   14.6400    7.3740 S   0  0  0  0  0  6  0  0  0  0  0  0
   23.7210   14.4690    6.1040 O   0  0  0  0  0  0  0  0  0  0  0  0
   22.4850   13.5080    8.0950 O   0  0  0  0  0  0  0  0  0  0  0  0
   23.9890   15.5050    8.3780 O   0  0  0  0  0  0  0  0  0  0  0  0
   23.7050   15.6670    9.7100 C   0  0  0  0  0  0  0  0  0  0  0  0
   22.5500   15.2160   10.3560 C   0  0  0  0  0  0  0  0  0  0  0  0
   22.3730   15.4450   11.7250 C   0  0  0  0  0  0  0  0  0  0  0  0
   23.3580   16.1260   12.4380 C   0  0  0  0  0  0  0  0  0  0  0  0
   23.2130   16.3910   13.8630 C   0  0  0  0  0  0  0  0  0  0  0  0
   24.0930   17.0140   14.5810 N   0  0  0  0  0  0  0  0  0  0  0  0
   25.2500   17.4530   13.9650 N   0  0  0  0  0  0  0  0  0  0  0  0
   26.1540   18.2840   14.7630 C   0  0  2  0  0  0  0  0  0  0  0  0
   26.0280   18.0420   16.2680 C   0  0  0  0  0  0  0  0  0  0  0  0
   27.0230   18.9230   17.0060 C   0  0  0  0  0  0  0  0  0  0  0  0
   26.8170   20.3800   16.6670 C   0  0  0  0  0  0  0  0  0  0  0  0
   27.0870   21.2810   17.4550 O   0  0  0  0  0  0  0  0  0  0  0  0
   26.3560   20.6570   15.4050 N   0  0  0  0  0  0  0  0  0  0  0  0
   25.9000   19.7660   14.4550 C   0  0  0  0  0  0  0  0  0  0  0  0
   25.3880   20.1910   13.4200 O   0  0  0  0  0  0  0  0  0  0  0  0
   25.5200   17.2930   12.6040 C   0  0  0  0  0  0  0  0  0  0  0  0
   26.5390   17.6960   12.0500 O   0  0  0  0  0  0  0  0  0  0  0  0
   24.5070   16.5770   11.8100 C   0  0  0  0  0  0  0  0  0  0  0  0
   24.6840   16.3490   10.4410 C   0  0  0  0  0  0  0  0  0  0  0  0
   21.6500   16.4420    5.9470 C   0  0  0  0  0  0  0  0  0  0  0  0
   20.6000   17.2310    6.0330 N   0  0  0  0  0  0  0  0  0  0  0  0
   18.9504   19.6134    8.5356 H   0  0  0  0  0  0  0  0  0  0  0  0
   19.8320   19.3891    6.9867 H   0  0  0  0  0  0  0  0  0  0  0  0
   18.0430   19.5504    6.9867 H   0  0  0  0  0  0  0  0  0  0  0  0
   18.5799   17.4050    8.7338 H   0  0  0  0  0  0  0  0  0  0  0  0
   17.9425   17.3204    7.0344 H   0  0  0  0  0  0  0  0  0  0  0  0
   20.5110   15.5097    8.8856 H   0  0  0  0  0  0  0  0  0  0  0  0
   21.7775   14.6791    9.7859 H   0  0  0  0  0  0  0  0  0  0  0  0
   21.4645   15.0907   12.2339 H   0  0  0  0  0  0  0  0  0  0  0  0
   22.2975   16.0395   14.3614 H   0  0  0  0  0  0  0  0  0  0  0  0
   27.1785   17.9999   14.4807 H   0  0  0  0  0  0  0  0  0  0  0  0
   25.0069   18.2879   16.5951 H   0  0  0  0  0  0  0  0  0  0  0  0
   26.2383   16.9852   16.4891 H   0  0  0  0  0  0  0  0  0  0  0  0
   26.8909   18.7843   18.0892 H   0  0  0  0  0  0  0  0  0  0  0  0
   28.0391   18.6339   16.6996 H   0  0  0  0  0  0  0  0  0  0  0  0
   26.3494   21.6506   15.1336 H   0  0  0  0  0  0  0  0  0  0  0  0
   25.5947   16.7066    9.9383 H   0  0  0  0  0  0  0  0  0  0  0  0
   22.3729   16.4473    5.1179 H   0  0  0  0  0  0  0  0  0  0  0  0
  1  2  1  0
  2  3  1  0
  3  4  2  0
  4  5  1  0
  5  6  1  0
  6  7  2  0
  6  8  2  0
  6  9  1  0
  9 10  1  0
 10 11  2  0
 11 12  1  0
 12 13  2  0
 13 14  1  0
 14 15  2  0
 15 16  1  0
 16 17  1  0
 17 18  1  0
 18 19  1  0
 19 20  1  0
 20 21  2  0
 20 22  1  0
 22 23  1  0
 23 24  2  0
 16 25  1  0
 25 26  2  0
 25 27  1  0
 27 28  2  0
  5 29  1  0
 29 30  2  0
 30  3  1  0
 28 10  1  0
 27 13  1  0
 23 17  1  0
  1 31  1  0
  1 32  1  0
  1 33  1  0
  2 34  1  0
  2 35  1  0
  4 36  1  0
 11 37  1  0
 12 38  1  0
 14 39  1  0
 17 40  1  6
 18 41  1  0
 18 42  1  0
 19 43  1  0
 19 44  1  0
 22 45  1  0
 28 46  1  0
 29 47  1  0
M  END
>  <meeko>  (1312) 
{"is_sidechain": [true], "free_energy": -10.12, "intermolecular_energy": 0.0, "internal_energy": -10.12, "cluster_size": 20, "cluster_id": 1, "rank_in_cluster": 1}

>  <_RMSD_MCS_to_ref>  (1312) 
0.7843707315067564

$$$$
ligand
     RDKit          3D

 46 49  0  0  0  0  0  0  0  0999 V2000
   18.9090   19.1540    7.5370 C   0  0  0  0  0  0  0  0  0  0  0  0
   18.7730   17.6460    7.6780 C   0  0  0  0  0  0  0  0  0  0  0  0
   20.0920   16.9590    7.6380 C   0  0  0  0  0  0  0  0  0  0  0  0
   20.9760   16.7180    8.6710 C   0  0  0  0  0  0  0  0  0  0  0  0
   22.0200   16.0730    8.0750 N   0  0  0  0  0  0  0  0  0  0  0  0
   23.4890   15.6740    8.7810 S   0  0  0  0  0  6  0  0  0  0  0  0
   23.8390   14.3500    8.3090 O   0  0  0  0  0  0  0  0  0  0  0  0
   24.3370   16.8260    8.5430 O   0  0  0  0  0  0  0  0  0  0  0  0
   23.1880   15.5770   10.5000 C   0  0  0  0  0  0  0  0  0  0  0  0
   23.9350   16.3500   11.4170 C   0  0  0  0  0  0  0  0  0  0  0  0
   23.7360   16.2860   12.8280 C   0  0  0  0  0  0  0  0  0  0  0  0
   24.5830   17.1770   13.6730 C   0  0  0  0  0  0  0  0  0  0  0  0
   25.8030   17.0960   13.6120 O   0  0  0  0  0  0  0  0  0  0  0  0
   23.9250   18.0430   14.5160 N   0  0  0  0  0  0  0  0  0  0  0  0
   24.6590   18.8430   15.4900 C   0  0  1  0  0  0  0  0  0  0  0  0
   25.6940   18.0230   16.2510 C   0  0  0  0  0  0  0  0  0  0  0  0
   26.4500   18.9290   17.2110 C   0  0  0  0  0  0  0  0  0  0  0  0
   27.0770   20.0960   16.4850 C   0  0  0  0  0  0  0  0  0  0  0  0
   28.1510   20.5840   16.8250 O   0  0  0  0  0  0  0  0  0  0  0  0
   26.3720   20.6140   15.4280 N   0  0  0  0  0  0  0  0  0  0  0  0
   25.3700   19.9760   14.7430 C   0  0  0  0  0  0  0  0  0  0  0  0
   25.0620   20.3100   13.5990 O   0  0  0  0  0  0  0  0  0  0  0  0
   22.7660   15.4540   13.4240 C   0  0  0  0  0  0  0  0  0  0  0  0
   22.0220   14.6780   12.5150 C   0  0  0  0  0  0  0  0  0  0  0  0
   21.0450   13.8010   12.7700 N   0  0  0  0  0  0  0  0  0  0  0  0
   20.6480   13.3070   11.5410 O   0  0  0  0  0  0  0  0  0  0  0  0
   21.3700   13.8730   10.5060 N   0  0  0  0  0  0  0  0  0  0  0  0
   22.2270   14.7300   11.0710 C   0  0  0  0  0  0  0  0  0  0  0  0
   21.7630   15.9400    6.7480 C   0  0  0  0  0  0  0  0  0  0  0  0
   20.5980   16.4720    6.4470 N   0  0  0  0  0  0  0  0  0  0  0  0
   18.9504   19.6134    8.5356 H   0  0  0  0  0  0  0  0  0  0  0  0
   19.8320   19.3891    6.9867 H   0  0  0  0  0  0  0  0  0  0  0  0
   18.0430   19.5504    6.9867 H   0  0  0  0  0  0  0  0  0  0  0  0
   18.2854   17.4221    8.6383 H   0  0  0  0  0  0  0  0  0  0  0  0
   18.1742   17.2792    6.8313 H   0  0  0  0  0  0  0  0  0  0  0  0
   20.8640   16.9851    9.7322 H   0  0  0  0  0  0  0  0  0  0  0  0
   24.7044   17.0316   11.0253 H   0  0  0  0  0  0  0  0  0  0  0  0
   22.9001   18.1274   14.4584 H   0  0  0  0  0  0  0  0  0  0  0  0
   23.9407   19.2325   16.2264 H   0  0  0  0  0  0  0  0  0  0  0  0
   25.1876   17.2282   16.8184 H   0  0  0  0  0  0  0  0  0  0  0  0
   26.4004   17.5710   15.5391 H   0  0  0  0  0  0  0  0  0  0  0  0
   25.7503   19.3122   17.9683 H   0  0  0  0  0  0  0  0  0  0  0  0
   27.2517   18.3425   17.6835 H   0  0  0  0  0  0  0  0  0  0  0  0
   26.6171   21.5664   15.1220 H   0  0  0  0  0  0  0  0  0  0  0  0
   22.6037   15.4145   14.5113 H   0  0  0  0  0  0  0  0  0  0  0  0
   22.4355   15.4548    6.0253 H   0  0  0  0  0  0  0  0  0  0  0  0
  1  2  1  0
  2  3  1  0
  3  4  2  0
  4  5  1  0
  5  6  1  0
  6  7  2  0
  6  8  2  0
  6  9  1  0
  9 10  2  0
 10 11  1  0
 11 12  1  0
 12 13  2  0
 12 14  1  0
 14 15  1  0
 15 16  1  0
 16 17  1  0
 17 18  1  0
 18 19  2  0
 18 20  1  0
 20 21  1  0
 21 22  2  0
 11 23  2  0
 23 24  1  0
 24 25  2  0
 25 26  1  0
 26 27  1  0
 27 28  2  0
  5 29  1  0
 29 30  2  0
 30  3  1  0
 28  9  1  0
 21 15  1  0
 28 24  1  0
  1 31  1  0
  1 32  1  0
  1 33  1  0
  2 34  1  0
  2 35  1  0
  4 36  1  0
 10 37  1  0
 14 38  1  0
 15 39  1  1
 16 40  1  0
 16 41  1  0
 17 42  1  0
 17 43  1  0
 20 44  1  0
 23 45  1  0
 29 46  1  0
M  END
>  <meeko>  (1313) 
{"is_sidechain": [true], "free_energy": -10.12, "intermolecular_energy": 0.0, "internal_energy": -10.12, "cluster_size": 19, "cluster_id": 1, "rank_in_cluster": 1}

>  <_RMSD_MCS_to_ref>  (1313) 
0.7502739499676103

$$$$
ligand
     RDKit          3D

 50 53  0  0  0  0  0  0  0  0999 V2000
   18.9090   19.1540    7.5370 C   0  0  0  0  0  0  0  0  0  0  0  0
   18.7730   17.6460    7.6780 C   0  0  0  0  0  0  0  0  0  0  0  0
   19.9240   16.9200    7.0750 C   0  0  0  0  0  0  0  0  0  0  0  0
   21.2730   17.1990    7.1670 C   0  0  0  0  0  0  0  0  0  0  0  0
   21.8680   16.2300    6.4120 N   0  0  0  0  0  0  0  0  0  0  0  0
   23.5180   15.9170    6.3370 S   0  0  0  0  0  6  0  0  0  0  0  0
   24.1640   17.2130    6.2880 O   0  0  0  0  0  0  0  0  0  0  0  0
   23.6820   14.9250    5.2920 O   0  0  0  0  0  0  0  0  0  0  0  0
   23.8670   15.1710    7.8850 C   0  0  0  0  0  0  0  0  0  0  0  0
   23.9610   13.7970    7.9710 C   0  0  0  0  0  0  0  0  0  0  0  0
   24.2390   13.1490    9.1260 N   0  0  0  0  0  0  0  0  0  0  0  0
   24.4110   13.8780   10.2440 C   0  0  0  0  0  0  0  0  0  0  0  0
   24.6860   13.2360   11.4430 C   0  0  0  0  0  0  0  0  0  0  0  0
   24.8700   13.9450   12.6370 C   0  0  0  0  0  0  0  0  0  0  0  0
   24.7860   15.3400   12.6370 C   0  0  0  0  0  0  0  0  0  0  0  0
   24.9670   16.1500   13.8730 C   0  0  0  0  0  0  0  0  0  0  0  0
   24.7770   15.6480   14.9750 O   0  0  0  0  0  0  0  0  0  0  0  0
   25.3160   17.4720   13.7050 N   0  0  0  0  0  0  0  0  0  0  0  0
   25.3650   18.3850   14.8400 C   0  0  1  0  0  0  0  0  0  0  0  0
   26.2170   17.8430   15.9830 C   0  0  0  0  0  0  0  0  0  0  0  0
   26.2580   18.8620   17.1110 C   0  0  0  0  0  0  0  0  0  0  0  0
   26.7570   20.2010   16.6230 C   0  0  0  0  0  0  0  0  0  0  0  0
   27.4290   20.9500   17.3260 O   0  0  0  0  0  0  0  0  0  0  0  0
   26.3970   20.5640   15.3500 N   0  0  0  0  0  0  0  0  0  0  0  0
   25.9560   19.7160   14.3660 C   0  0  0  0  0  0  0  0  0  0  0  0
   26.0260   20.0260   13.1770 O   0  0  0  0  0  0  0  0  0  0  0  0
   24.4960   16.0060   11.4410 C   0  0  0  0  0  0  0  0  0  0  0  0
   24.3130   15.2870   10.2470 C   0  0  0  0  0  0  0  0  0  0  0  0
   24.0300   15.9340    9.0370 C   0  0  0  0  0  0  0  0  0  0  0  0
   20.9150   15.3890    5.9340 C   0  0  0  0  0  0  0  0  0  0  0  0
   19.7180   15.7870    6.3110 N   0  0  0  0  0  0  0  0  0  0  0  0
   18.9504   19.6134    8.5356 H   0  0  0  0  0  0  0  0  0  0  0  0
   19.8320   19.3891    6.9867 H   0  0  0  0  0  0  0  0  0  0  0  0
   18.0430   19.5504    6.9867 H   0  0  0  0  0  0  0  0  0  0  0  0
   18.7156   17.3937    8.7471 H   0  0  0  0  0  0  0  0  0  0  0  0
   17.8617   17.3373    7.1449 H   0  0  0  0  0  0  0  0  0  0  0  0
   21.7576   18.0157    7.7220 H   0  0  0  0  0  0  0  0  0  0  0  0
   23.8028   13.2016    7.0597 H   0  0  0  0  0  0  0  0  0  0  0  0
   24.7617   12.1387   11.4563 H   0  0  0  0  0  0  0  0  0  0  0  0
   25.0800   13.4052   13.5721 H   0  0  0  0  0  0  0  0  0  0  0  0
   25.5457   17.8204   12.7633 H   0  0  0  0  0  0  0  0  0  0  0  0
   24.3409   18.5117   15.2209 H   0  0  0  0  0  0  0  0  0  0  0  0
   25.7799   16.9038   16.3529 H   0  0  0  0  0  0  0  0  0  0  0  0
   27.2387   17.6543   15.6216 H   0  0  0  0  0  0  0  0  0  0  0  0
   25.2443   18.9848   17.5200 H   0  0  0  0  0  0  0  0  0  0  0  0
   26.9482   18.4954   17.8851 H   0  0  0  0  0  0  0  0  0  0  0  0
   26.4639   21.5638   15.1114 H   0  0  0  0  0  0  0  0  0  0  0  0
   24.4104   17.1026   11.4351 H   0  0  0  0  0  0  0  0  0  0  0  0
   23.9380   17.0295    8.9983 H   0  0  0  0  0  0  0  0  0  0  0  0
   21.1151   14.4998    5.3181 H   0  0  0  0  0  0  0  0  0  0  0  0
  1  2  1  0
  2  3  1  0
  3  4  2  0
  4  5  1  0
  5  6  1  0
  6  7  2  0
  6  8  2  0
  6  9  1  0
  9 10  2  0
 10 11  1  0
 11 12  2  0
 12 13  1  0
 13 14  2  0
 14 15  1  0
 15 16  1  0
 16 17  2  0
 16 18  1  0
 18 19  1  0
 19 20  1  0
 20 21  1  0
 21 22  1  0
 22 23  2  0
 22 24  1  0
 24 25  1  0
 25 26  2  0
 15 27  2  0
 27 28  1  0
 28 29  2  0
  5 30  1  0
 30 31  2  0
 31  3  1  0
 29  9  1  0
 28 12  1  0
 25 19  1  0
  1 32  1  0
  1 33  1  0
  1 34  1  0
  2 35  1  0
  2 36  1  0
  4 37  1  0
 10 38  1  0
 13 39  1  0
 14 40  1  0
 18 41  1  0
 19 42  1  1
 20 43  1  0
 20 44  1  0
 21 45  1  0
 21 46  1  0
 24 47  1  0
 27 48  1  0
 29 49  1  0
 30 50  1  0
M  END
>  <meeko>  (1314) 
{"is_sidechain": [true], "free_energy": -10.12, "intermolecular_energy": 0.0, "internal_energy": -10.12, "cluster_size": 20, "cluster_id": 1, "rank_in_cluster": 1}

>  <_RMSD_MCS_to_ref>  (1314) 
0.6749261688016936

$$$$
ligand
     RDKit          3D

 52 56  0  0  0  0  0  0  0  0999 V2000
   18.9090   19.1540    7.5370 C   0  0  0  0  0  0  0  0  0  0  0  0
   18.7730   17.6460    7.6780 C   0  0  0  0  0  0  0  0  0  0  0  0
   20.0800   16.9810    7.9370 C   0  0  0  0  0  0  0  0  0  0  0  0
   21.2870   17.1840    7.2990 C   0  0  0  0  0  0  0  0  0  0  0  0
   22.1440   16.3210    7.9150 N   0  0  0  0  0  0  0  0  0  0  0  0
   23.7190   15.9840    7.4350 S   0  0  0  0  0  6  0  0  0  0  0  0
   24.4790   17.1940    7.6830 O   0  0  0  0  0  0  0  0  0  0  0  0
   23.5960   15.4030    6.1090 O   0  0  0  0  0  0  0  0  0  0  0  0
   24.2790   14.7230    8.5460 C   0  0  0  0  0  0  0  0  0  0  0  0
   24.3870   13.4190    8.1140 C   0  0  0  0  0  0  0  0  0  0  0  0
   24.7850   12.4810    9.0560 C   0  0  0  0  0  0  0  0  0  0  0  0
   25.0490   12.8720   10.3790 C   0  0  0  0  0  0  0  0  0  0  0  0
   25.4250   11.9120   11.3330 C   0  0  0  0  0  0  0  0  0  0  0  0
   25.6690   12.2820   12.6500 C   0  0  0  0  0  0  0  0  0  0  0  0
   25.5470   13.6160   13.0180 C   0  0  0  0  0  0  0  0  0  0  0  0
   25.1880   14.5950   12.0720 C   0  0  0  0  0  0  0  0  0  0  0  0
   25.0980   15.9690   12.5350 C   0  0  0  0  0  0  0  0  0  0  0  0
   24.6040   16.4090   13.7400 C   0  0  0  0  0  0  0  0  0  0  0  0
   24.7340   17.7650   13.6820 N   0  0  0  0  0  0  0  0  0  0  0  0
   24.3760   18.7290   14.7030 C   0  0  1  0  0  0  0  0  0  0  0  0
   24.7820   18.3610   16.1320 C   0  0  0  0  0  0  0  0  0  0  0  0
   26.2550   18.6100   16.4170 C   0  0  0  0  0  0  0  0  0  0  0  0
   26.6780   19.9980   16.0130 C   0  0  0  0  0  0  0  0  0  0  0  0
   27.6000   20.5920   16.5660 O   0  0  0  0  0  0  0  0  0  0  0  0
   26.0010   20.5710   14.9670 N   0  0  0  0  0  0  0  0  0  0  0  0
   24.8870   20.1000   14.3150 C   0  0  0  0  0  0  0  0  0  0  0  0
   24.3460   20.7830   13.4450 O   0  0  0  0  0  0  0  0  0  0  0  0
   25.2120   18.1540   12.4860 N   0  0  0  0  0  0  0  0  0  0  0  0
   25.4450   17.0580   11.7740 N   0  0  0  0  0  0  0  0  0  0  0  0
   24.9220   14.2390   10.7350 C   0  0  0  0  0  0  0  0  0  0  0  0
   24.5360   15.1480    9.8070 N   0  0  0  0  0  0  0  0  0  0  0  0
   21.4690   15.6340    8.8730 C   0  0  0  0  0  0  0  0  0  0  0  0
   20.2060   16.0110    8.9170 N   0  0  0  0  0  0  0  0  0  0  0  0
   18.9504   19.6134    8.5356 H   0  0  0  0  0  0  0  0  0  0  0  0
   19.8320   19.3891    6.9867 H   0  0  0  0  0  0  0  0  0  0  0  0
   18.0430   19.5504    6.9867 H   0  0  0  0  0  0  0  0  0  0  0  0
   18.0939   17.4291    8.5158 H   0  0  0  0  0  0  0  0  0  0  0  0
   18.3790   17.2541    6.7287 H   0  0  0  0  0  0  0  0  0  0  0  0
   21.5075   17.8836    6.4793 H   0  0  0  0  0  0  0  0  0  0  0  0
   24.1685   13.1356    7.0738 H   0  0  0  0  0  0  0  0  0  0  0  0
   24.8943   11.4258    8.7651 H   0  0  0  0  0  0  0  0  0  0  0  0
   25.5272   10.8581   11.0349 H   0  0  0  0  0  0  0  0  0  0  0  0
   25.9563   11.5251   13.3947 H   0  0  0  0  0  0  0  0  0  0  0  0
   25.7332   13.9110   14.0612 H   0  0  0  0  0  0  0  0  0  0  0  0
   24.1965   15.8045   14.5637 H   0  0  0  0  0  0  0  0  0  0  0  0
   23.2766   18.7290   14.7382 H   0  0  0  0  0  0  0  0  0  0  0  0
   24.1835   18.9627   16.8318 H   0  0  0  0  0  0  0  0  0  0  0  0
   24.6016   17.2831   16.2568 H   0  0  0  0  0  0  0  0  0  0  0  0
   26.4353   18.4827   17.4946 H   0  0  0  0  0  0  0  0  0  0  0  0
   26.8427   17.8896   15.8291 H   0  0  0  0  0  0  0  0  0  0  0  0
   26.3751   21.4684   14.6270 H   0  0  0  0  0  0  0  0  0  0  0  0
   21.9152   14.8674    9.5236 H   0  0  0  0  0  0  0  0  0  0  0  0
  1  2  1  0
  2  3  1  0
  3  4  2  0
  4  5  1  0
  5  6  1  0
  6  7  2  0
  6  8  2  0
  6  9  1  0
  9 10  2  0
 10 11  1  0
 11 12  2  0
 12 13  1  0
 13 14  2  0
 14 15  1  0
 15 16  2  0
 16 17  1  0
 17 18  2  0
 18 19  1  0
 19 20  1  0
 20 21  1  0
 21 22  1  0
 22 23  1  0
 23 24  2  0
 23 25  1  0
 25 26  1  0
 26 27  2  0
 19 28  1  0
 28 29  2  0
 16 30  1  0
 30 31  2  0
  5 32  1  0
 32 33  2  0
 33  3  1  0
 31  9  1  0
 30 12  1  0
 29 17  1  0
 26 20  1  0
  1 34  1  0
  1 35  1  0
  1 36  1  0
  2 37  1  0
  2 38  1  0
  4 39  1  0
 10 40  1  0
 11 41  1  0
 13 42  1  0
 14 43  1  0
 15 44  1  0
 18 45  1  0
 20 46  1  1
 21 47  1  0
 21 48  1  0
 22 49  1  0
 22 50  1  0
 25 51  1  0
 32 52  1  0
M  END
>  <meeko>  (1315) 
{"is_sidechain": [true], "free_energy": -10.12, "intermolecular_energy": 0.0, "internal_energy": -10.12, "cluster_size": 2, "cluster_id": 1, "rank_in_cluster": 1}

>  <_RMSD_MCS_to_ref>  (1315) 
0.6530661868788229

$$$$
ligand
     RDKit          3D

 52 56  0  0  0  0  0  0  0  0999 V2000
   18.9090   19.1540    7.5370 C   0  0  0  0  0  0  0  0  0  0  0  0
   18.7730   17.6460    7.6780 C   0  0  0  0  0  0  0  0  0  0  0  0
   20.0880   16.9540    7.5940 C   0  0  0  0  0  0  0  0  0  0  0  0
   20.6700   16.0830    8.4950 C   0  0  0  0  0  0  0  0  0  0  0  0
   21.8590   15.7490    7.9120 N   0  0  0  0  0  0  0  0  0  0  0  0
   22.9900   14.6890    8.5510 S   0  0  0  0  0  6  0  0  0  0  0  0
   23.7250   14.1970    7.4030 O   0  0  0  0  0  0  0  0  0  0  0  0
   22.2920   13.7920    9.4540 O   0  0  0  0  0  0  0  0  0  0  0  0
   24.0770   15.6920    9.5350 C   0  0  0  0  0  0  0  0  0  0  0  0
   23.6110   16.0850   10.8020 C   0  0  0  0  0  0  0  0  0  0  0  0
   24.4630   16.8300   11.5920 C   0  0  0  0  0  0  0  0  0  0  0  0
   25.7370   17.2010   11.1800 C   0  0  0  0  0  0  0  0  0  0  0  0
   26.1970   16.8320    9.9290 C   0  0  0  0  0  0  0  0  0  0  0  0
   25.3610   16.0800    9.0730 C   0  0  0  0  0  0  0  0  0  0  0  0
   25.9220   15.7320    7.7720 C   0  0  0  0  0  0  0  0  0  0  0  0
   26.2830   16.5860    6.8370 N   0  0  0  0  0  0  0  0  0  0  0  0
   26.7150   15.7870    5.8180 C   0  0  0  0  0  0  0  0  0  0  0  0
   26.6240   14.4780    6.0520 N   0  0  0  0  0  0  0  0  0  0  0  0
   26.1030   14.4610    7.2890 N   0  0  0  0  0  0  0  0  0  0  0  0
   26.4020   18.0080   12.2440 C   0  0  0  0  0  0  0  0  0  0  0  0
   25.4310   17.9660   13.3300 N   0  0  0  0  0  0  0  0  0  0  0  0
   25.5650   18.8310   14.4980 C   0  0  2  0  0  0  0  0  0  0  0  0
   26.3720   20.1030   14.2370 C   0  0  0  0  0  0  0  0  0  0  0  0
   26.3930   20.9520   15.4970 C   0  0  0  0  0  0  0  0  0  0  0  0
   26.9500   20.1790   16.6710 C   0  0  0  0  0  0  0  0  0  0  0  0
   27.4520   20.7370   17.6430 O   0  0  0  0  0  0  0  0  0  0  0  0
   26.7950   18.8160   16.6410 N   0  0  0  0  0  0  0  0  0  0  0  0
   26.1500   18.0590   15.6920 C   0  0  0  0  0  0  0  0  0  0  0  0
   25.9770   16.8530   15.8670 O   0  0  0  0  0  0  0  0  0  0  0  0
   24.2450   17.3630   12.9400 C   0  0  0  0  0  0  0  0  0  0  0  0
   23.1970   17.2800   13.5480 O   0  0  0  0  0  0  0  0  0  0  0  0
   21.9810   16.4080    6.7320 C   0  0  0  0  0  0  0  0  0  0  0  0
   20.9140   17.1460    6.5060 N   0  0  0  0  0  0  0  0  0  0  0  0
   18.9504   19.6134    8.5356 H   0  0  0  0  0  0  0  0  0  0  0  0
   19.8320   19.3891    6.9867 H   0  0  0  0  0  0  0  0  0  0  0  0
   18.0430   19.5504    6.9867 H   0  0  0  0  0  0  0  0  0  0  0  0
   18.3156   17.4209    8.6527 H   0  0  0  0  0  0  0  0  0  0  0  0
   18.1466   17.2839    6.8494 H   0  0  0  0  0  0  0  0  0  0  0  0
   20.2684   15.7382    9.4593 H   0  0  0  0  0  0  0  0  0  0  0  0
   22.6049   15.8090   11.1506 H   0  0  0  0  0  0  0  0  0  0  0  0
   27.2067   17.1219    9.6025 H   0  0  0  0  0  0  0  0  0  0  0  0
   27.1087   16.1930    4.8745 H   0  0  0  0  0  0  0  0  0  0  0  0
   25.8691   13.6032    7.8090 H   0  0  0  0  0  0  0  0  0  0  0  0
   27.3570   17.5544   12.5477 H   0  0  0  0  0  0  0  0  0  0  0  0
   26.6556   19.0293   11.9237 H   0  0  0  0  0  0  0  0  0  0  0  0
   24.5438   19.1596   14.7411 H   0  0  0  0  0  0  0  0  0  0  0  0
   27.4015   19.8342   13.9579 H   0  0  0  0  0  0  0  0  0  0  0  0
   25.9086   20.6716   13.4173 H   0  0  0  0  0  0  0  0  0  0  0  0
   27.0204   21.8383   15.3215 H   0  0  0  0  0  0  0  0  0  0  0  0
   25.3602   21.2471   15.7341 H   0  0  0  0  0  0  0  0  0  0  0  0
   27.2132   18.2963   17.4258 H   0  0  0  0  0  0  0  0  0  0  0  0
   22.8484   16.3359    6.0594 H   0  0  0  0  0  0  0  0  0  0  0  0
  1  2  1  0
  2  3  1  0
  3  4  2  0
  4  5  1  0
  5  6  1  0
  6  7  2  0
  6  8  2  0
  6  9  1  0
  9 10  2  0
 10 11  1  0
 11 12  2  0
 12 13  1  0
 13 14  2  0
 14 15  1  0
 15 16  2  0
 16 17  1  0
 17 18  2  0
 18 19  1  0
 12 20  1  0
 20 21  1  0
 21 22  1  0
 22 23  1  0
 23 24  1  0
 24 25  1  0
 25 26  2  0
 25 27  1  0
 27 28  1  0
 28 29  2  0
 21 30  1  0
 30 31  2  0
  5 32  1  0
 32 33  2  0
 33  3  1  0
 14  9  1  0
 19 15  1  0
 28 22  1  0
 30 11  1  0
  1 34  1  0
  1 35  1  0
  1 36  1  0
  2 37  1  0
  2 38  1  0
  4 39  1  0
 10 40  1  0
 13 41  1  0
 17 42  1  0
 19 43  1  0
 20 44  1  0
 20 45  1  0
 22 46  1  1
 23 47  1  0
 23 48  1  0
 24 49  1  0
 24 50  1  0
 27 51  1  0
 32 52  1  0
M  END
>  <meeko>  (1316) 
{"is_sidechain": [true], "free_energy": -10.12, "intermolecular_energy": 0.0, "internal_energy": -10.12, "cluster_size": 13, "cluster_id": 2, "rank_in_cluster": 1}

>  <_RMSD_MCS_to_ref>  (1316) 
1.7739861580319305

$$$$
ligand
     RDKit          3D

 55 59  0  0  0  0  0  0  0  0999 V2000
   18.8250   19.0170    7.5350 C   0  0  0  0  0  0  0  0  0  0  0  0
   18.5200   17.5420    7.7330 C   0  0  0  0  0  0  0  0  0  0  0  0
   19.5230   16.6660    7.0690 C   0  0  0  0  0  0  0  0  0  0  0  0
   20.9000   16.6920    7.1770 C   0  0  0  0  0  0  0  0  0  0  0  0
   21.3180   15.6860    6.3570 N   0  0  0  0  0  0  0  0  0  0  0  0
   22.9150   15.3410    5.9520 S   0  0  0  0  0  6  0  0  0  0  0  0
   23.4500   16.5490    5.3530 O   0  0  0  0  0  0  0  0  0  0  0  0
   22.8580   14.0780    5.2430 O   0  0  0  0  0  0  0  0  0  0  0  0
   23.7330   15.0920    7.5020 C   0  0  0  0  0  0  0  0  0  0  0  0
   25.0590   14.6640    7.5310 C   0  0  0  0  0  0  0  0  0  0  0  0
   25.6690   14.4200    8.7610 C   0  0  0  0  0  0  0  0  0  0  0  0
   24.9480   14.5840    9.9490 C   0  0  0  0  0  0  0  0  0  0  0  0
   23.6120   15.0160    9.9320 C   0  0  0  0  0  0  0  0  0  0  0  0
   22.8280   15.1310   11.1680 C   0  0  0  0  0  0  0  0  0  0  0  0
   21.5580   14.5300   11.2860 C   0  0  0  0  0  0  0  0  0  0  0  0
   20.8110   14.5990   12.4820 C   0  0  0  0  0  0  0  0  0  0  0  0
   21.3140   15.2660   13.6000 C   0  0  0  0  0  0  0  0  0  0  0  0
   22.5570   15.8530   13.4760 C   0  0  0  0  0  0  0  0  0  0  0  0
   23.2870   15.8040   12.2980 C   0  0  0  0  0  0  0  0  0  0  0  0
   24.5200   16.5660   12.5390 C   0  0  0  0  0  0  0  0  0  0  0  0
   25.3640   16.8210   11.7000 O   0  0  0  0  0  0  0  0  0  0  0  0
   24.5160   16.9290   13.8580 N   0  0  0  0  0  0  0  0  0  0  0  0
   25.5500   17.7740   14.4360 C   0  0  2  0  0  0  0  0  0  0  0  0
   25.6790   17.6550   15.9520 C   0  0  0  0  0  0  0  0  0  0  0  0
   26.8240   18.5390   16.4240 C   0  0  0  0  0  0  0  0  0  0  0  0
   26.6230   19.9740   15.9920 C   0  0  0  0  0  0  0  0  0  0  0  0
   27.0910   20.9200   16.6190 O   0  0  0  0  0  0  0  0  0  0  0  0
   25.9350   20.1740   14.8200 N   0  0  0  0  0  0  0  0  0  0  0  0
   25.3020   19.2320   14.0410 C   0  0  0  0  0  0  0  0  0  0  0  0
   24.6390   19.5740   13.0640 O   0  0  0  0  0  0  0  0  0  0  0  0
   23.3390   16.5960   14.4620 C   0  0  0  0  0  0  0  0  0  0  0  0
   22.9520   16.8500   15.5870 O   0  0  0  0  0  0  0  0  0  0  0  0
   23.0270   15.3060    8.6890 C   0  0  0  0  0  0  0  0  0  0  0  0
   20.2350   15.0990    5.7820 C   0  0  0  0  0  0  0  0  0  0  0  0
   19.1220   15.6710    6.1970 N   0  0  0  0  0  0  0  0  0  0  0  0
   18.9260   19.5054    8.5155 H   0  0  0  0  0  0  0  0  0  0  0  0
   19.7645   19.1250    6.9731 H   0  0  0  0  0  0  0  0  0  0  0  0
   18.0054   19.4887    6.9731 H   0  0  0  0  0  0  0  0  0  0  0  0
   18.5166   17.3226    8.8109 H   0  0  0  0  0  0  0  0  0  0  0  0
   17.5393   17.3363    7.2792 H   0  0  0  0  0  0  0  0  0  0  0  0
   21.5177   17.3692    7.7852 H   0  0  0  0  0  0  0  0  0  0  0  0
   25.6179   14.5203    6.5945 H   0  0  0  0  0  0  0  0  0  0  0  0
   26.7201   14.0977    8.7975 H   0  0  0  0  0  0  0  0  0  0  0  0
   25.4357   14.3711   10.9117 H   0  0  0  0  0  0  0  0  0  0  0  0
   21.1379   13.9929   10.4229 H   0  0  0  0  0  0  0  0  0  0  0  0
   19.8213   14.1216   12.5333 H   0  0  0  0  0  0  0  0  0  0  0  0
   20.7444   15.3215   14.5394 H   0  0  0  0  0  0  0  0  0  0  0  0
   26.5063   17.4175   14.0257 H   0  0  0  0  0  0  0  0  0  0  0  0
   24.7421   17.9798   16.4282 H   0  0  0  0  0  0  0  0  0  0  0  0
   25.8804   16.6090   16.2263 H   0  0  0  0  0  0  0  0  0  0  0  0
   26.8784   18.4994   17.5219 H   0  0  0  0  0  0  0  0  0  0  0  0
   27.7572   18.1683   15.9750 H   0  0  0  0  0  0  0  0  0  0  0  0
   25.8870   21.1463   14.4834 H   0  0  0  0  0  0  0  0  0  0  0  0
   22.0029   15.7056    8.6490 H   0  0  0  0  0  0  0  0  0  0  0  0
   20.2810   14.2625    5.0691 H   0  0  0  0  0  0  0  0  0  0  0  0
  1  2  1  0
  2  3  1  0
  3  4  2  0
  4  5  1  0
  5  6  1  0
  6  7  2  0
  6  8  2  0
  6  9  1  0
  9 10  2  0
 10 11  1  0
 11 12  2  0
 12 13  1  0
 13 14  1  0
 14 15  2  0
 15 16  1  0
 16 17  2  0
 17 18  1  0
 18 19  2  0
 19 20  1  0
 20 21  2  0
 20 22  1  0
 22 23  1  0
 23 24  1  0
 24 25  1  0
 25 26  1  0
 26 27  2  0
 26 28  1  0
 28 29  1  0
 29 30  2  0
 22 31  1  0
 31 32  2  0
 13 33  2  0
  5 34  1  0
 34 35  2  0
 35  3  1  0
 33  9  1  0
 19 14  1  0
 29 23  1  0
 31 18  1  0
  1 36  1  0
  1 37  1  0
  1 38  1  0
  2 39  1  0
  2 40  1  0
  4 41  1  0
 10 42  1  0
 11 43  1  0
 12 44  1  0
 15 45  1  0
 16 46  1  0
 17 47  1  0
 23 48  1  6
 24 49  1  0
 24 50  1  0
 25 51  1  0
 25 52  1  0
 28 53  1  0
 33 54  1  0
 34 55  1  0
M  END
>  <meeko>  (1317) 
{"is_sidechain": [true], "free_energy": -10.11, "intermolecular_energy": 0.0, "internal_energy": -10.11, "cluster_size": 12, "cluster_id": 1, "rank_in_cluster": 1}

>  <_RMSD_MCS_to_ref>  (1317) 
1.302267786935118

$$$$
ligand
     RDKit          3D

 54 58  0  0  0  0  0  0  0  0999 V2000
   18.8250   19.0170    7.5350 C   0  0  0  0  0  0  0  0  0  0  0  0
   18.5200   17.5420    7.7330 C   0  0  0  0  0  0  0  0  0  0  0  0
   19.6690   16.8030    8.3220 C   0  0  0  0  0  0  0  0  0  0  0  0
   19.6860   15.9400    9.4000 C   0  0  0  0  0  0  0  0  0  0  0  0
   20.9940   15.5530    9.4980 N   0  0  0  0  0  0  0  0  0  0  0  0
   21.6260   14.5460   10.6800 S   0  0  0  0  0  6  0  0  0  0  0  0
   20.5130   14.0000   11.4300 O   0  0  0  0  0  0  0  0  0  0  0  0
   22.5310   13.6790    9.9430 O   0  0  0  0  0  0  0  0  0  0  0  0
   22.6090   15.5420   11.7700 C   0  0  0  0  0  0  0  0  0  0  0  0
   23.6010   16.3380   11.1760 C   0  0  0  0  0  0  0  0  0  0  0  0
   24.4080   17.1760   11.9530 C   0  0  0  0  0  0  0  0  0  0  0  0
   24.2470   17.2480   13.3410 C   0  0  0  0  0  0  0  0  0  0  0  0
   25.0730   18.1050   14.1460 N   0  0  0  0  0  0  0  0  0  0  0  0
   26.0320   17.5190   15.0780 C   0  0  0  0  0  0  0  0  0  0  0  0
   26.1310   18.3470   16.3410 C   0  0  0  0  0  0  0  0  0  0  0  0
   26.4400   19.7660   15.9770 C   0  0  0  0  0  0  0  0  0  0  0  0
   26.9870   20.5430   16.7540 O   0  0  0  0  0  0  0  0  0  0  0  0
   25.9950   20.1730   14.7500 N   0  0  0  0  0  0  0  0  0  0  0  0
   25.1570   19.4820   13.9080 C   0  0  0  0  0  0  0  0  0  0  0  0
   24.5760   20.1070   13.0250 O   0  0  0  0  0  0  0  0  0  0  0  0
   23.2640   16.4330   13.9220 C   0  0  0  0  0  0  0  0  0  0  0  0
   22.4450   15.5740   13.1570 C   0  0  0  0  0  0  0  0  0  0  0  0
   21.4960   14.7560   13.8820 C   0  0  0  0  0  0  0  0  0  0  0  0
   20.4230   15.2960   14.5590 C   0  0  0  0  0  0  0  0  0  0  0  0
   19.7220   14.2660   15.1290 N   0  0  0  0  0  0  0  0  0  0  0  0
   20.3580   13.0690   14.8880 C   0  0  0  0  0  0  0  0  0  0  0  0
   20.0170   11.7720   15.2900 C   0  0  0  0  0  0  0  0  0  0  0  0
   20.8590   10.7290   14.8980 C   0  0  0  0  0  0  0  0  0  0  0  0
   21.9970   10.9760   14.1330 C   0  0  0  0  0  0  0  0  0  0  0  0
   22.3230   12.2770   13.7370 C   0  0  0  0  0  0  0  0  0  0  0  0
   21.4860   13.3480   14.1140 C   0  0  0  0  0  0  0  0  0  0  0  0
   21.7210   16.1930    8.5460 C   0  0  0  0  0  0  0  0  0  0  0  0
   20.9390   16.9460    7.7960 N   0  0  0  0  0  0  0  0  0  0  0  0
   18.9260   19.5054    8.5155 H   0  0  0  0  0  0  0  0  0  0  0  0
   19.7645   19.1250    6.9731 H   0  0  0  0  0  0  0  0  0  0  0  0
   18.0054   19.4887    6.9731 H   0  0  0  0  0  0  0  0  0  0  0  0
   17.6553   17.4466    8.4062 H   0  0  0  0  0  0  0  0  0  0  0  0
   18.3095   17.1059    6.7453 H   0  0  0  0  0  0  0  0  0  0  0  0
   18.8411   15.6340   10.0344 H   0  0  0  0  0  0  0  0  0  0  0  0
   23.7456   16.3024   10.0861 H   0  0  0  0  0  0  0  0  0  0  0  0
   25.1811   17.7878   11.4651 H   0  0  0  0  0  0  0  0  0  0  0  0
   25.7054   16.5015   15.3388 H   0  0  0  0  0  0  0  0  0  0  0  0
   27.0204   17.4929   14.5959 H   0  0  0  0  0  0  0  0  0  0  0  0
   25.1749   18.3063   16.8834 H   0  0  0  0  0  0  0  0  0  0  0  0
   26.9303   17.9478   16.9826 H   0  0  0  0  0  0  0  0  0  0  0  0
   26.3218   21.0933   14.4226 H   0  0  0  0  0  0  0  0  0  0  0  0
   23.1263   16.4643   15.0129 H   0  0  0  0  0  0  0  0  0  0  0  0
   20.1738   16.3651   14.6291 H   0  0  0  0  0  0  0  0  0  0  0  0
   18.8462   14.3719   15.6607 H   0  0  0  0  0  0  0  0  0  0  0  0
   19.1174   11.5811   15.8935 H   0  0  0  0  0  0  0  0  0  0  0  0
   20.6203    9.6978   15.1975 H   0  0  0  0  0  0  0  0  0  0  0  0
   22.6461   10.1386   13.8373 H   0  0  0  0  0  0  0  0  0  0  0  0
   23.2253   12.4637   13.1361 H   0  0  0  0  0  0  0  0  0  0  0  0
   22.8093   16.0971    8.4181 H   0  0  0  0  0  0  0  0  0  0  0  0
  1  2  1  0
  2  3  1  0
  3  4  2  0
  4  5  1  0
  5  6  1  0
  6  7  2  0
  6  8  2  0
  6  9  1  0
  9 10  2  0
 10 11  1  0
 11 12  2  0
 12 13  1  0
 13 14  1  0
 14 15  1  0
 15 16  1  0
 16 17  2  0
 16 18  1  0
 18 19  1  0
 19 20  2  0
 12 21  1  0
 21 22  2  0
 22 23  1  0
 23 24  2  0
 24 25  1  0
 25 26  1  0
 26 27  2  0
 27 28  1  0
 28 29  2  0
 29 30  1  0
 30 31  2  0
  5 32  1  0
 32 33  2  0
 33  3  1  0
 22  9  1  0
 31 23  1  0
 19 13  1  0
 31 26  1  0
  1 34  1  0
  1 35  1  0
  1 36  1  0
  2 37  1  0
  2 38  1  0
  4 39  1  0
 10 40  1  0
 11 41  1  0
 14 42  1  0
 14 43  1  0
 15 44  1  0
 15 45  1  0
 18 46  1  0
 21 47  1  0
 24 48  1  0
 25 49  1  0
 27 50  1  0
 28 51  1  0
 29 52  1  0
 30 53  1  0
 32 54  1  0
M  END
>  <meeko>  (1318) 
{"is_sidechain": [true], "free_energy": -10.11, "intermolecular_energy": 0.0, "internal_energy": -10.11, "cluster_size": 11, "cluster_id": 1, "rank_in_cluster": 1}

>  <_RMSD_MCS_to_ref>  (1318) 
0.6736746247262099

$$$$
ligand
     RDKit          3D

 54 58  0  0  0  0  0  0  0  0999 V2000
   18.8250   19.0170    7.5350 C   0  0  0  0  0  0  0  0  0  0  0  0
   18.5200   17.5420    7.7330 C   0  0  0  0  0  0  0  0  0  0  0  0
   19.7500   16.7050    7.7210 C   0  0  0  0  0  0  0  0  0  0  0  0
   20.2730   15.9160    8.7290 C   0  0  0  0  0  0  0  0  0  0  0  0
   21.3890   15.3640    8.1720 N   0  0  0  0  0  0  0  0  0  0  0  0
   22.5010   14.3840    8.9570 S   0  0  0  0  0  6  0  0  0  0  0  0
   21.8100   13.1620    9.3230 O   0  0  0  0  0  0  0  0  0  0  0  0
   23.6540   14.3700    8.0770 O   0  0  0  0  0  0  0  0  0  0  0  0
   22.9500   15.2250   10.4630 C   0  0  0  0  0  0  0  0  0  0  0  0
   21.9390   15.3870   11.4420 C   0  0  0  0  0  0  0  0  0  0  0  0
   22.2050   16.0570   12.6360 C   0  0  0  0  0  0  0  0  0  0  0  0
   23.4820   16.5470   12.8140 C   0  0  0  0  0  0  0  0  0  0  0  0
   24.4870   16.4090   11.8550 C   0  0  0  0  0  0  0  0  0  0  0  0
   24.2470   15.7590   10.6430 C   0  0  0  0  0  0  0  0  0  0  0  0
   25.3270   15.6190    9.6740 C   0  0  0  0  0  0  0  0  0  0  0  0
   26.3800   14.7190    9.8080 C   0  0  0  0  0  0  0  0  0  0  0  0
   27.3490   14.5850    8.8700 N   0  0  0  0  0  0  0  0  0  0  0  0
   27.2390   15.4020    7.7980 C   0  0  0  0  0  0  0  0  0  0  0  0
   26.1950   16.2990    7.6590 C   0  0  0  0  0  0  0  0  0  0  0  0
   25.2140   16.4180    8.5870 N   0  0  0  0  0  0  0  0  0  0  0  0
   25.7480   17.0440   12.3580 C   0  0  0  0  0  0  0  0  0  0  0  0
   25.3760   17.4860   13.6950 N   0  0  0  0  0  0  0  0  0  0  0  0
   26.1800   18.4130   14.4840 C   0  0  1  0  0  0  0  0  0  0  0  0
   25.5740   19.8110   14.5410 C   0  0  0  0  0  0  0  0  0  0  0  0
   26.5090   20.7340   15.3090 C   0  0  0  0  0  0  0  0  0  0  0  0
   26.8050   20.1890   16.6870 C   0  0  0  0  0  0  0  0  0  0  0  0
   26.9510   20.9170   17.6640 O   0  0  0  0  0  0  0  0  0  0  0  0
   26.9240   18.8270   16.7950 N   0  0  0  0  0  0  0  0  0  0  0  0
   26.3980   17.9040   15.9190 C   0  0  0  0  0  0  0  0  0  0  0  0
   26.1240   16.7690   16.3020 O   0  0  0  0  0  0  0  0  0  0  0  0
   24.0320   17.2760   13.9610 C   0  0  0  0  0  0  0  0  0  0  0  0
   23.3980   17.6180   14.9390 O   0  0  0  0  0  0  0  0  0  0  0  0
   21.5620   15.8690    6.9230 C   0  0  0  0  0  0  0  0  0  0  0  0
   20.5610   16.6630    6.6030 N   0  0  0  0  0  0  0  0  0  0  0  0
   18.9260   19.5054    8.5155 H   0  0  0  0  0  0  0  0  0  0  0  0
   19.7645   19.1250    6.9731 H   0  0  0  0  0  0  0  0  0  0  0  0
   18.0054   19.4887    6.9731 H   0  0  0  0  0  0  0  0  0  0  0  0
   18.0132   17.4123    8.7006 H   0  0  0  0  0  0  0  0  0  0  0  0
   17.8821   17.2151    6.8986 H   0  0  0  0  0  0  0  0  0  0  0  0
   19.8797   15.7677    9.7455 H   0  0  0  0  0  0  0  0  0  0  0  0
   20.9336   14.9801   11.2586 H   0  0  0  0  0  0  0  0  0  0  0  0
   21.4286   16.1892   13.4039 H   0  0  0  0  0  0  0  0  0  0  0  0
   26.4277   14.0919   10.7105 H   0  0  0  0  0  0  0  0  0  0  0  0
   28.0052   15.3517    7.0103 H   0  0  0  0  0  0  0  0  0  0  0  0
   26.1597   16.9379    6.7643 H   0  0  0  0  0  0  0  0  0  0  0  0
   26.5707   16.3149   12.3964 H   0  0  0  0  0  0  0  0  0  0  0  0
   26.1112   17.8594   11.7152 H   0  0  0  0  0  0  0  0  0  0  0  0
   27.1496   18.4725   13.9679 H   0  0  0  0  0  0  0  0  0  0  0  0
   25.4373   20.1941   13.5190 H   0  0  0  0  0  0  0  0  0  0  0  0
   24.5989   19.7693   15.0484 H   0  0  0  0  0  0  0  0  0  0  0  0
   27.4524   20.8331   14.7521 H   0  0  0  0  0  0  0  0  0  0  0  0
   26.0190   21.7126   15.4195 H   0  0  0  0  0  0  0  0  0  0  0  0
   27.4524   18.4632   17.6008 H   0  0  0  0  0  0  0  0  0  0  0  0
   22.4186   15.6460    6.2699 H   0  0  0  0  0  0  0  0  0  0  0  0
  1  2  1  0
  2  3  1  0
  3  4  2  0
  4  5  1  0
  5  6  1  0
  6  7  2  0
  6  8  2  0
  6  9  1  0
  9 10  2  0
 10 11  1  0
 11 12  2  0
 12 13  1  0
 13 14  2  0
 14 15  1  0
 15 16  2  0
 16 17  1  0
 17 18  2  0
 18 19  1  0
 19 20  2  0
 13 21  1  0
 21 22  1  0
 22 23  1  0
 23 24  1  0
 24 25  1  0
 25 26  1  0
 26 27  2  0
 26 28  1  0
 28 29  1  0
 29 30  2  0
 22 31  1  0
 31 32  2  0
  5 33  1  0
 33 34  2  0
 34  3  1  0
 14  9  1  0
 20 15  1  0
 29 23  1  0
 31 12  1  0
  1 35  1  0
  1 36  1  0
  1 37  1  0
  2 38  1  0
  2 39  1  0
  4 40  1  0
 10 41  1  0
 11 42  1  0
 16 43  1  0
 18 44  1  0
 19 45  1  0
 21 46  1  0
 21 47  1  0
 23 48  1  6
 24 49  1  0
 24 50  1  0
 25 51  1  0
 25 52  1  0
 28 53  1  0
 33 54  1  0
M  END
>  <meeko>  (1319) 
{"is_sidechain": [true], "free_energy": -10.11, "intermolecular_energy": 0.0, "internal_energy": -10.11, "cluster_size": 10, "cluster_id": 1, "rank_in_cluster": 1}

>  <_RMSD_MCS_to_ref>  (1319) 
1.80754747901373

$$$$
ligand
     RDKit          3D

 48 51  0  0  0  0  0  0  0  0999 V2000
   18.7970   18.8170    7.7190 C   0  0  0  0  0  0  0  0  0  0  0  0
   18.5280   17.3290    7.8810 C   0  0  0  0  0  0  0  0  0  0  0  0
   19.6210   16.4950    7.3120 C   0  0  0  0  0  0  0  0  0  0  0  0
   20.7530   16.0050    7.9320 C   0  0  0  0  0  0  0  0  0  0  0  0
   21.4100   15.3290    6.9440 N   0  0  0  0  0  0  0  0  0  0  0  0
   22.7800   14.3900    7.1350 S   0  0  0  0  0  6  0  0  0  0  0  0
   23.8290   15.0060    6.3420 O   0  0  0  0  0  0  0  0  0  0  0  0
   22.3760   13.0110    6.9450 O   0  0  0  0  0  0  0  0  0  0  0  0
   23.3360   14.5060    8.7970 C   0  0  0  0  0  0  0  0  0  0  0  0
   24.0250   15.5000    9.3290 N   0  0  0  0  0  0  0  0  0  0  0  0
   24.2260   15.1430   10.6390 C   0  0  0  0  0  0  0  0  0  0  0  0
   24.8970   15.8370   11.6560 C   0  0  0  0  0  0  0  0  0  0  0  0
   24.9700   15.2480   12.9290 C   0  0  0  0  0  0  0  0  0  0  0  0
   25.6600   15.9270   14.0610 C   0  0  0  0  0  0  0  0  0  0  0  0
   26.1190   15.2720   14.9910 O   0  0  0  0  0  0  0  0  0  0  0  0
   25.7800   17.2970   13.9830 N   0  0  0  0  0  0  0  0  0  0  0  0
   26.5640   18.0370   14.9620 C   0  0  2  0  0  0  0  0  0  0  0  0
   26.0320   17.8580   16.3800 C   0  0  0  0  0  0  0  0  0  0  0  0
   26.8700   18.6830   17.3430 C   0  0  0  0  0  0  0  0  0  0  0  0
   26.9030   20.1380   16.9360 C   0  0  0  0  0  0  0  0  0  0  0  0
   26.9670   21.0500   17.7540 O   0  0  0  0  0  0  0  0  0  0  0  0
   26.8910   20.3990   15.5890 N   0  0  0  0  0  0  0  0  0  0  0  0
   26.5210   19.5250   14.5980 C   0  0  0  0  0  0  0  0  0  0  0  0
   26.1930   19.9280   13.4820 O   0  0  0  0  0  0  0  0  0  0  0  0
   24.3660   14.0040   13.1750 C   0  0  0  0  0  0  0  0  0  0  0  0
   23.6940   13.3010   12.1660 C   0  0  0  0  0  0  0  0  0  0  0  0
   23.6500   13.9080   10.9120 C   0  0  0  0  0  0  0  0  0  0  0  0
   23.0900   13.5230    9.7210 N   0  0  0  0  0  0  0  0  0  0  0  0
   20.6630   15.3620    5.8110 C   0  0  0  0  0  0  0  0  0  0  0  0
   19.5810   16.0910    5.9920 N   0  0  0  0  0  0  0  0  0  0  0  0
   18.8815   19.2845    8.7111 H   0  0  0  0  0  0  0  0  0  0  0  0
   19.7359   18.9616    7.1643 H   0  0  0  0  0  0  0  0  0  0  0  0
   17.9682   19.2812    7.1643 H   0  0  0  0  0  0  0  0  0  0  0  0
   18.4300   17.1014    8.9527 H   0  0  0  0  0  0  0  0  0  0  0  0
   17.6030   17.0917    7.3351 H   0  0  0  0  0  0  0  0  0  0  0  0
   21.0564   16.1304    8.9819 H   0  0  0  0  0  0  0  0  0  0  0  0
   25.3548   16.8182   11.4617 H   0  0  0  0  0  0  0  0  0  0  0  0
   25.3085   17.8053   13.2213 H   0  0  0  0  0  0  0  0  0  0  0  0
   27.5929   17.6486   14.9395 H   0  0  0  0  0  0  0  0  0  0  0  0
   24.9854   18.1938   16.4242 H   0  0  0  0  0  0  0  0  0  0  0  0
   26.0884   16.7962   16.6616 H   0  0  0  0  0  0  0  0  0  0  0  0
   26.4390   18.6030   18.3519 H   0  0  0  0  0  0  0  0  0  0  0  0
   27.8992   18.2950   17.3271 H   0  0  0  0  0  0  0  0  0  0  0  0
   27.1878   21.3401   15.2938 H   0  0  0  0  0  0  0  0  0  0  0  0
   24.4218   13.5709   14.1846 H   0  0  0  0  0  0  0  0  0  0  0  0
   23.2265   12.3231   12.3535 H   0  0  0  0  0  0  0  0  0  0  0  0
   22.5744   12.6479    9.5501 H   0  0  0  0  0  0  0  0  0  0  0  0
   20.9248   14.8512    4.8726 H   0  0  0  0  0  0  0  0  0  0  0  0
  1  2  1  0
  2  3  1  0
  3  4  2  0
  4  5  1  0
  5  6  1  0
  6  7  2  0
  6  8  2  0
  6  9  1  0
  9 10  2  0
 10 11  1  0
 11 12  2  0
 12 13  1  0
 13 14  1  0
 14 15  2  0
 14 16  1  0
 16 17  1  0
 17 18  1  0
 18 19  1  0
 19 20  1  0
 20 21  2  0
 20 22  1  0
 22 23  1  0
 23 24  2  0
 13 25  2  0
 25 26  1  0
 26 27  2  0
 27 28  1  0
  5 29  1  0
 29 30  2  0
 30  3  1  0
 28  9  1  0
 27 11  1  0
 23 17  1  0
  1 31  1  0
  1 32  1  0
  1 33  1  0
  2 34  1  0
  2 35  1  0
  4 36  1  0
 12 37  1  0
 16 38  1  0
 17 39  1  1
 18 40  1  0
 18 41  1  0
 19 42  1  0
 19 43  1  0
 22 44  1  0
 25 45  1  0
 26 46  1  0
 28 47  1  0
 29 48  1  0
M  END
>  <meeko>  (1320) 
{"is_sidechain": [true], "free_energy": -10.11, "intermolecular_energy": 0.0, "internal_energy": -10.11, "cluster_size": 11, "cluster_id": 1, "rank_in_cluster": 1}

>  <_RMSD_MCS_to_ref>  (1320) 
0.9648637209471607

$$$$
ligand
     RDKit          3D

 47 50  0  0  0  0  0  0  0  0999 V2000
   18.7970   18.8170    7.7190 C   0  0  0  0  0  0  0  0  0  0  0  0
   18.5280   17.3290    7.8810 C   0  0  0  0  0  0  0  0  0  0  0  0
   19.6210   16.4960    7.3100 C   0  0  0  0  0  0  0  0  0  0  0  0
   20.6880   15.9030    7.9550 C   0  0  0  0  0  0  0  0  0  0  0  0
   21.3600   15.2500    6.9600 N   0  0  0  0  0  0  0  0  0  0  0  0
   22.8290   14.4640    7.1110 S   0  0  0  0  0  6  0  0  0  0  0  0
   22.5890   13.0690    6.7960 O   0  0  0  0  0  0  0  0  0  0  0  0
   23.8080   15.2760    6.4130 O   0  0  0  0  0  0  0  0  0  0  0  0
   23.3310   14.4770    8.7720 C   0  0  0  0  0  0  0  0  0  0  0  0
   24.0690   15.5250    9.3550 C   0  0  0  0  0  0  0  0  0  0  0  0
   24.2450   15.1510   10.6660 C   0  0  0  0  0  0  0  0  0  0  0  0
   24.8820   15.7690   11.7080 N   0  0  0  0  0  0  0  0  0  0  0  0
   24.8630   15.1330   12.8500 C   0  0  0  0  0  0  0  0  0  0  0  0
   25.5630   15.7840   14.0480 C   0  0  0  0  0  0  0  0  0  0  0  0
   25.9210   15.1130   15.0040 O   0  0  0  0  0  0  0  0  0  0  0  0
   25.7420   17.1390   13.9180 N   0  0  0  0  0  0  0  0  0  0  0  0
   26.5350   17.9120   14.8560 C   0  0  2  0  0  0  0  0  0  0  0  0
   26.0160   17.7840   16.2850 C   0  0  0  0  0  0  0  0  0  0  0  0
   26.8700   18.6330   17.2140 C   0  0  0  0  0  0  0  0  0  0  0  0
   26.9100   20.0740   16.7590 C   0  0  0  0  0  0  0  0  0  0  0  0
   26.9930   21.0100   17.5470 O   0  0  0  0  0  0  0  0  0  0  0  0
   26.8870   20.2900   15.4040 N   0  0  0  0  0  0  0  0  0  0  0  0
   26.5070   19.3870   14.4410 C   0  0  0  0  0  0  0  0  0  0  0  0
   26.1890   19.7610   13.3140 O   0  0  0  0  0  0  0  0  0  0  0  0
   24.2110   13.8090   13.0970 C   0  0  0  0  0  0  0  0  0  0  0  0
   23.6050   13.2590   12.0350 C   0  0  0  0  0  0  0  0  0  0  0  0
   23.6090   13.9130   10.8080 N   0  0  0  0  0  0  0  0  0  0  0  0
   23.0490   13.4970    9.6450 N   0  0  0  0  0  0  0  0  0  0  0  0
   20.7490   15.5000    5.7740 C   0  0  0  0  0  0  0  0  0  0  0  0
   19.6710   16.2360    5.9540 N   0  0  0  0  0  0  0  0  0  0  0  0
   18.8815   19.2845    8.7111 H   0  0  0  0  0  0  0  0  0  0  0  0
   19.7359   18.9616    7.1643 H   0  0  0  0  0  0  0  0  0  0  0  0
   17.9682   19.2812    7.1643 H   0  0  0  0  0  0  0  0  0  0  0  0
   18.4314   17.1009    8.9527 H   0  0  0  0  0  0  0  0  0  0  0  0
   17.6021   17.0914    7.3367 H   0  0  0  0  0  0  0  0  0  0  0  0
   20.9397   15.9462    9.0249 H   0  0  0  0  0  0  0  0  0  0  0  0
   24.4270   16.4436    8.8672 H   0  0  0  0  0  0  0  0  0  0  0  0
   25.2973   17.6246   13.1259 H   0  0  0  0  0  0  0  0  0  0  0  0
   27.5623   17.5193   14.8339 H   0  0  0  0  0  0  0  0  0  0  0  0
   24.9727   18.1298   16.3282 H   0  0  0  0  0  0  0  0  0  0  0  0
   26.0675   16.7314   16.6003 H   0  0  0  0  0  0  0  0  0  0  0  0
   26.4478   18.5892   18.2288 H   0  0  0  0  0  0  0  0  0  0  0  0
   27.8959   18.2364   17.2020 H   0  0  0  0  0  0  0  0  0  0  0  0
   27.1838   21.2205   15.0769 H   0  0  0  0  0  0  0  0  0  0  0  0
   24.2277   13.3204   14.0824 H   0  0  0  0  0  0  0  0  0  0  0  0
   23.1023   12.2857   12.1349 H   0  0  0  0  0  0  0  0  0  0  0  0
   21.1045   15.1383    4.7979 H   0  0  0  0  0  0  0  0  0  0  0  0
  1  2  1  0
  2  3  1  0
  3  4  2  0
  4  5  1  0
  5  6  1  0
  6  7  2  0
  6  8  2  0
  6  9  1  0
  9 10  1  0
 10 11  2  0
 11 12  1  0
 12 13  2  0
 13 14  1  0
 14 15  2  0
 14 16  1  0
 16 17  1  0
 17 18  1  0
 18 19  1  0
 19 20  1  0
 20 21  2  0
 20 22  1  0
 22 23  1  0
 23 24  2  0
 13 25  1  0
 25 26  2  0
 26 27  1  0
 27 28  1  0
  5 29  1  0
 29 30  2  0
 30  3  1  0
 28  9  2  0
 27 11  1  0
 23 17  1  0
  1 31  1  0
  1 32  1  0
  1 33  1  0
  2 34  1  0
  2 35  1  0
  4 36  1  0
 10 37  1  0
 16 38  1  0
 17 39  1  1
 18 40  1  0
 18 41  1  0
 19 42  1  0
 19 43  1  0
 22 44  1  0
 25 45  1  0
 26 46  1  0
 29 47  1  0
M  END
>  <meeko>  (1321) 
{"is_sidechain": [true], "free_energy": -10.11, "intermolecular_energy": 0.0, "internal_energy": -10.11, "cluster_size": 14, "cluster_id": 1, "rank_in_cluster": 1}

>  <_RMSD_MCS_to_ref>  (1321) 
0.9449945326120501

$$$$
ligand
     RDKit          3D

 47 50  0  0  0  0  0  0  0  0999 V2000
   18.7970   18.8170    7.7190 C   0  0  0  0  0  0  0  0  0  0  0  0
   18.5280   17.3290    7.8810 C   0  0  0  0  0  0  0  0  0  0  0  0
   19.7830   16.5490    8.0540 C   0  0  0  0  0  0  0  0  0  0  0  0
   20.0050   15.4160    8.8120 C   0  0  0  0  0  0  0  0  0  0  0  0
   21.3210   15.1210    8.5930 N   0  0  0  0  0  0  0  0  0  0  0  0
   22.1700   13.8580    9.3210 S   0  0  0  0  0  6  0  0  0  0  0  0
   23.1450   13.4270    8.3340 O   0  0  0  0  0  0  0  0  0  0  0  0
   21.1110   12.9460    9.7320 O   0  0  0  0  0  0  0  0  0  0  0  0
   22.9790   14.4470   10.7160 C   0  0  0  0  0  0  0  0  0  0  0  0
   24.2310   14.9270   10.6120 C   0  0  0  0  0  0  0  0  0  0  0  0
   24.9510   15.4340   11.6800 N   0  0  0  0  0  0  0  0  0  0  0  0
   24.3710   15.4480   12.8550 C   0  0  0  0  0  0  0  0  0  0  0  0
   25.1540   16.0140   14.0450 C   0  0  0  0  0  0  0  0  0  0  0  0
   25.4940   15.3120   14.9840 O   0  0  0  0  0  0  0  0  0  0  0  0
   25.4420   17.3540   13.9250 N   0  0  0  0  0  0  0  0  0  0  0  0
   26.3500   18.0300   14.8360 C   0  0  2  0  0  0  0  0  0  0  0  0
   25.8970   17.9110   16.2880 C   0  0  0  0  0  0  0  0  0  0  0  0
   26.8670   18.6630   17.1860 C   0  0  0  0  0  0  0  0  0  0  0  0
   27.0060   20.1050   16.7590 C   0  0  0  0  0  0  0  0  0  0  0  0
   27.2070   21.0120   17.5610 O   0  0  0  0  0  0  0  0  0  0  0  0
   26.9300   20.3570   15.4130 N   0  0  0  0  0  0  0  0  0  0  0  0
   26.4270   19.5130   14.4540 C   0  0  0  0  0  0  0  0  0  0  0  0
   26.0830   19.9360   13.3510 O   0  0  0  0  0  0  0  0  0  0  0  0
   23.0280   14.9630   13.0470 C   0  0  0  0  0  0  0  0  0  0  0  0
   22.1790   14.8600   14.1240 C   0  0  0  0  0  0  0  0  0  0  0  0
   21.0130   14.2910   13.5930 C   0  0  0  0  0  0  0  0  0  0  0  0
   21.1100   14.0570   12.2850 N   0  0  0  0  0  0  0  0  0  0  0  0
   22.3530   14.4690   11.9440 N   0  0  0  0  0  0  0  0  0  0  0  0
   21.8580   16.0560    7.7680 C   0  0  0  0  0  0  0  0  0  0  0  0
   20.9420   16.9330    7.4090 N   0  0  0  0  0  0  0  0  0  0  0  0
   18.8815   19.2845    8.7111 H   0  0  0  0  0  0  0  0  0  0  0  0
   19.7359   18.9616    7.1643 H   0  0  0  0  0  0  0  0  0  0  0  0
   17.9682   19.2812    7.1643 H   0  0  0  0  0  0  0  0  0  0  0  0
   17.8917   17.1778    8.7654 H   0  0  0  0  0  0  0  0  0  0  0  0
   18.0313   16.9730    6.9664 H   0  0  0  0  0  0  0  0  0  0  0  0
   19.2872   14.8753    9.4463 H   0  0  0  0  0  0  0  0  0  0  0  0
   24.7101   14.9161    9.6219 H   0  0  0  0  0  0  0  0  0  0  0  0
   25.0009   17.8940   13.1669 H   0  0  0  0  0  0  0  0  0  0  0  0
   27.3362   17.5503   14.7504 H   0  0  0  0  0  0  0  0  0  0  0  0
   24.8903   18.3415   16.3943 H   0  0  0  0  0  0  0  0  0  0  0  0
   25.8755   16.8505   16.5792 H   0  0  0  0  0  0  0  0  0  0  0  0
   26.4959   18.6301   18.2210 H   0  0  0  0  0  0  0  0  0  0  0  0
   27.8535   18.1822   17.1104 H   0  0  0  0  0  0  0  0  0  0  0  0
   27.2849   21.2684   15.0901 H   0  0  0  0  0  0  0  0  0  0  0  0
   22.3712   15.1567   15.1656 H   0  0  0  0  0  0  0  0  0  0  0  0
   20.1176   14.0631   14.1899 H   0  0  0  0  0  0  0  0  0  0  0  0
   22.9092   16.0784    7.4448 H   0  0  0  0  0  0  0  0  0  0  0  0
  1  2  1  0
  2  3  1  0
  3  4  2  0
  4  5  1  0
  5  6  1  0
  6  7  2  0
  6  8  2  0
  6  9  1  0
  9 10  2  0
 10 11  1  0
 11 12  2  0
 12 13  1  0
 13 14  2  0
 13 15  1  0
 15 16  1  0
 16 17  1  0
 17 18  1  0
 18 19  1  0
 19 20  2  0
 19 21  1  0
 21 22  1  0
 22 23  2  0
 12 24  1  0
 24 25  2  0
 25 26  1  0
 26 27  2  0
 27 28  1  0
  5 29  1  0
 29 30  2  0
 30  3  1  0
 28  9  1  0
 22 16  1  0
 28 24  1  0
  1 31  1  0
  1 32  1  0
  1 33  1  0
  2 34  1  0
  2 35  1  0
  4 36  1  0
 10 37  1  0
 15 38  1  0
 16 39  1  1
 17 40  1  0
 17 41  1  0
 18 42  1  0
 18 43  1  0
 21 44  1  0
 25 45  1  0
 26 46  1  0
 29 47  1  0
M  END
>  <meeko>  (1322) 
{"is_sidechain": [true], "free_energy": -10.11, "intermolecular_energy": 0.0, "internal_energy": -10.11, "cluster_size": 13, "cluster_id": 1, "rank_in_cluster": 1}

>  <_RMSD_MCS_to_ref>  (1322) 
0.8367268238665337

$$$$
ligand
     RDKit          3D

 50 53  0  0  0  0  0  0  0  0999 V2000
   18.7970   18.8170    7.7190 C   0  0  0  0  0  0  0  0  0  0  0  0
   18.5280   17.3290    7.8810 C   0  0  0  0  0  0  0  0  0  0  0  0
   19.7670   16.5170    7.7380 C   0  0  0  0  0  0  0  0  0  0  0  0
   20.2660   15.5380    8.5740 C   0  0  0  0  0  0  0  0  0  0  0  0
   21.4260   15.1410    7.9710 N   0  0  0  0  0  0  0  0  0  0  0  0
   22.3730   13.8280    8.4200 S   0  0  0  0  0  6  0  0  0  0  0  0
   21.8050   12.6960    7.7160 O   0  0  0  0  0  0  0  0  0  0  0  0
   23.7410   14.2660    8.2220 O   0  0  0  0  0  0  0  0  0  0  0  0
   22.1420   13.5510   10.1620 C   0  0  0  0  0  0  0  0  0  0  0  0
   21.1110   12.7180   10.6140 C   0  0  0  0  0  0  0  0  0  0  0  0
   20.9450   12.5130   11.9770 C   0  0  0  0  0  0  0  0  0  0  0  0
   21.8040   13.1350   12.8810 C   0  0  0  0  0  0  0  0  0  0  0  0
   22.8350   13.9640   12.4650 C   0  0  0  0  0  0  0  0  0  0  0  0
   23.6010   14.5110   13.4190 N   0  0  0  0  0  0  0  0  0  0  0  0
   24.6160   15.3290   13.0350 C   0  0  0  0  0  0  0  0  0  0  0  0
   25.4400   15.9220   14.1370 C   0  0  0  0  0  0  0  0  0  0  0  0
   25.9610   15.2290   15.0020 O   0  0  0  0  0  0  0  0  0  0  0  0
   25.5680   17.2920   14.0780 N   0  0  0  0  0  0  0  0  0  0  0  0
   26.4620   18.0320   14.9480 C   0  0  2  0  0  0  0  0  0  0  0  0
   26.0890   17.8760   16.4190 C   0  0  0  0  0  0  0  0  0  0  0  0
   27.0480   18.6880   17.2750 C   0  0  0  0  0  0  0  0  0  0  0  0
   27.0660   20.1380   16.8520 C   0  0  0  0  0  0  0  0  0  0  0  0
   27.2360   21.0550   17.6510 O   0  0  0  0  0  0  0  0  0  0  0  0
   26.9140   20.3890   15.5120 N   0  0  0  0  0  0  0  0  0  0  0  0
   26.4120   19.5190   14.5750 C   0  0  0  0  0  0  0  0  0  0  0  0
   25.9730   19.9320   13.5030 O   0  0  0  0  0  0  0  0  0  0  0  0
   24.9010   15.6270   11.7180 C   0  0  0  0  0  0  0  0  0  0  0  0
   24.0990   15.0510   10.7380 C   0  0  0  0  0  0  0  0  0  0  0  0
   23.0260   14.1910   11.0820 C   0  0  0  0  0  0  0  0  0  0  0  0
   21.5920   15.8410    6.8180 C   0  0  0  0  0  0  0  0  0  0  0  0
   20.5940   16.6820    6.6430 N   0  0  0  0  0  0  0  0  0  0  0  0
   18.8815   19.2845    8.7111 H   0  0  0  0  0  0  0  0  0  0  0  0
   19.7359   18.9616    7.1643 H   0  0  0  0  0  0  0  0  0  0  0  0
   17.9682   19.2812    7.1643 H   0  0  0  0  0  0  0  0  0  0  0  0
   18.1015   17.1524    8.8794 H   0  0  0  0  0  0  0  0  0  0  0  0
   17.8292   17.0230    7.0885 H   0  0  0  0  0  0  0  0  0  0  0  0
   19.8293   15.1632    9.5115 H   0  0  0  0  0  0  0  0  0  0  0  0
   20.4376   12.2297    9.8943 H   0  0  0  0  0  0  0  0  0  0  0  0
   20.1376   11.8614   12.3424 H   0  0  0  0  0  0  0  0  0  0  0  0
   21.6598   12.9631   13.9579 H   0  0  0  0  0  0  0  0  0  0  0  0
   25.0065   17.8118   13.3885 H   0  0  0  0  0  0  0  0  0  0  0  0
   27.4755   17.6271   14.8105 H   0  0  0  0  0  0  0  0  0  0  0  0
   25.0618   18.2365   16.5768 H   0  0  0  0  0  0  0  0  0  0  0  0
   26.1534   16.8152   16.7026 H   0  0  0  0  0  0  0  0  0  0  0  0
   26.7311   18.6252   18.3265 H   0  0  0  0  0  0  0  0  0  0  0  0
   28.0603   18.2764   17.1490 H   0  0  0  0  0  0  0  0  0  0  0  0
   27.2040   21.3186   15.1764 H   0  0  0  0  0  0  0  0  0  0  0  0
   25.7327   16.2962   11.4526 H   0  0  0  0  0  0  0  0  0  0  0  0
   24.3009   15.2666    9.6784 H   0  0  0  0  0  0  0  0  0  0  0  0
   22.4405   15.7218    6.1282 H   0  0  0  0  0  0  0  0  0  0  0  0
  1  2  1  0
  2  3  1  0
  3  4  2  0
  4  5  1  0
  5  6  1  0
  6  7  2  0
  6  8  2  0
  6  9  1  0
  9 10  2  0
 10 11  1  0
 11 12  2  0
 12 13  1  0
 13 14  2  0
 14 15  1  0
 15 16  1  0
 16 17  2  0
 16 18  1  0
 18 19  1  0
 19 20  1  0
 20 21  1  0
 21 22  1  0
 22 23  2  0
 22 24  1  0
 24 25  1  0
 25 26  2  0
 15 27  2  0
 27 28  1  0
 28 29  2  0
  5 30  1  0
 30 31  2  0
 31  3  1  0
 29  9  1  0
 29 13  1  0
 25 19  1  0
  1 32  1  0
  1 33  1  0
  1 34  1  0
  2 35  1  0
  2 36  1  0
  4 37  1  0
 10 38  1  0
 11 39  1  0
 12 40  1  0
 18 41  1  0
 19 42  1  1
 20 43  1  0
 20 44  1  0
 21 45  1  0
 21 46  1  0
 24 47  1  0
 27 48  1  0
 28 49  1  0
 30 50  1  0
M  END
>  <meeko>  (1323) 
{"is_sidechain": [true], "free_energy": -10.11, "intermolecular_energy": 0.0, "internal_energy": -10.11, "cluster_size": 5, "cluster_id": 1, "rank_in_cluster": 1}

>  <_RMSD_MCS_to_ref>  (1323) 
0.8755712421042613

$$$$
ligand
     RDKit          3D

 52 56  0  0  0  0  0  0  0  0999 V2000
   18.7970   18.8170    7.7190 C   0  0  0  0  0  0  0  0  0  0  0  0
   18.5280   17.3290    7.8810 C   0  0  0  0  0  0  0  0  0  0  0  0
   19.7760   16.5580    8.1320 C   0  0  0  0  0  0  0  0  0  0  0  0
   20.0680   15.6900    9.1660 C   0  0  0  0  0  0  0  0  0  0  0  0
   21.3340   15.2590    8.8940 N   0  0  0  0  0  0  0  0  0  0  0  0
   22.2980   14.3430    9.9200 S   0  0  0  0  0  6  0  0  0  0  0  0
   21.8870   12.9640    9.7440 O   0  0  0  0  0  0  0  0  0  0  0  0
   22.2500   15.0160   11.2040 O   0  0  0  0  0  0  0  0  0  0  0  0
   23.9310   14.5420    9.2540 C   0  0  0  0  0  0  0  0  0  0  0  0
   24.2670   13.8480    8.0770 C   0  0  0  0  0  0  0  0  0  0  0  0
   25.5290   14.0130    7.5510 C   0  0  0  0  0  0  0  0  0  0  0  0
   26.4710   14.8250    8.1420 C   0  0  0  0  0  0  0  0  0  0  0  0
   26.1930   15.5190    9.3210 C   0  0  0  0  0  0  0  0  0  0  0  0
   26.9080   16.4050   10.1700 C   0  0  0  0  0  0  0  0  0  0  0  0
   26.0780   16.7680   11.2180 C   0  0  0  0  0  0  0  0  0  0  0  0
   26.2740   17.6310   12.3590 C   0  0  0  0  0  0  0  0  0  0  0  0
   27.2860   18.3110   12.5020 O   0  0  0  0  0  0  0  0  0  0  0  0
   25.2580   17.6320   13.2820 N   0  0  0  0  0  0  0  0  0  0  0  0
   25.3750   18.3420   14.5470 C   0  0  1  0  0  0  0  0  0  0  0  0
   26.4260   17.7240   15.4610 C   0  0  0  0  0  0  0  0  0  0  0  0
   26.5220   18.5350   16.7440 C   0  0  0  0  0  0  0  0  0  0  0  0
   26.8120   19.9890   16.4540 C   0  0  0  0  0  0  0  0  0  0  0  0
   27.4940   20.6860   17.1980 O   0  0  0  0  0  0  0  0  0  0  0  0
   26.2450   20.5140   15.3200 N   0  0  0  0  0  0  0  0  0  0  0  0
   25.7620   19.7950   14.2550 C   0  0  0  0  0  0  0  0  0  0  0  0
   25.6430   20.3070   13.1420 O   0  0  0  0  0  0  0  0  0  0  0  0
   24.8840   16.1070   11.0180 N   0  0  0  0  0  0  0  0  0  0  0  0
   24.9160   15.3560    9.8630 C   0  0  0  0  0  0  0  0  0  0  0  0
   27.6570   14.8380    7.4420 O   0  0  0  0  0  0  0  0  0  0  0  0
   27.3370   13.9400    6.3580 C   0  0  0  0  0  0  0  0  0  0  0  0
   25.9940   13.4180    6.4190 O   0  0  0  0  0  0  0  0  0  0  0  0
   21.7850   15.8780    7.7740 C   0  0  0  0  0  0  0  0  0  0  0  0
   20.8560   16.6690    7.2780 N   0  0  0  0  0  0  0  0  0  0  0  0
   18.8815   19.2845    8.7111 H   0  0  0  0  0  0  0  0  0  0  0  0
   19.7359   18.9616    7.1643 H   0  0  0  0  0  0  0  0  0  0  0  0
   17.9682   19.2812    7.1643 H   0  0  0  0  0  0  0  0  0  0  0  0
   17.8440   17.1827    8.7300 H   0  0  0  0  0  0  0  0  0  0  0  0
   18.0855   16.9610    6.9436 H   0  0  0  0  0  0  0  0  0  0  0  0
   19.4267   15.4101   10.0147 H   0  0  0  0  0  0  0  0  0  0  0  0
   23.5367   13.1872    7.5871 H   0  0  0  0  0  0  0  0  0  0  0  0
   27.9435   16.7448   10.0209 H   0  0  0  0  0  0  0  0  0  0  0  0
   24.3906   17.1170   13.0740 H   0  0  0  0  0  0  0  0  0  0  0  0
   24.4061   18.2800   15.0641 H   0  0  0  0  0  0  0  0  0  0  0  0
   26.1400   16.6895   15.7017 H   0  0  0  0  0  0  0  0  0  0  0  0
   27.4012   17.7258   14.9522 H   0  0  0  0  0  0  0  0  0  0  0  0
   25.5681   18.4612   17.2867 H   0  0  0  0  0  0  0  0  0  0  0  0
   27.3466   18.1306   17.3494 H   0  0  0  0  0  0  0  0  0  0  0  0
   26.1756   21.5401   15.2627 H   0  0  0  0  0  0  0  0  0  0  0  0
   24.0731   16.1670   11.6503 H   0  0  0  0  0  0  0  0  0  0  0  0
   27.4562   14.4836    5.4092 H   0  0  0  0  0  0  0  0  0  0  0  0
   28.0208   13.0820    6.4369 H   0  0  0  0  0  0  0  0  0  0  0  0
   22.7865   15.7387    7.3408 H   0  0  0  0  0  0  0  0  0  0  0  0
  1  2  1  0
  2  3  1  0
  3  4  2  0
  4  5  1  0
  5  6  1  0
  6  7  2  0
  6  8  2  0
  6  9  1  0
  9 10  2  0
 10 11  1  0
 11 12  2  0
 12 13  1  0
 13 14  1  0
 14 15  2  0
 15 16  1  0
 16 17  2  0
 16 18  1  0
 18 19  1  0
 19 20  1  0
 20 21  1  0
 21 22  1  0
 22 23  2  0
 22 24  1  0
 24 25  1  0
 25 26  2  0
 15 27  1  0
 27 28  1  0
 12 29  1  0
 29 30  1  0
 30 31  1  0
  5 32  1  0
 32 33  2  0
 33  3  1  0
 28  9  1  0
 31 11  1  0
 28 13  2  0
 25 19  1  0
  1 34  1  0
  1 35  1  0
  1 36  1  0
  2 37  1  0
  2 38  1  0
  4 39  1  0
 10 40  1  0
 14 41  1  0
 18 42  1  0
 19 43  1  1
 20 44  1  0
 20 45  1  0
 21 46  1  0
 21 47  1  0
 24 48  1  0
 27 49  1  0
 30 50  1  0
 30 51  1  0
 32 52  1  0
M  END
>  <meeko>  (1324) 
{"is_sidechain": [true], "free_energy": -10.11, "intermolecular_energy": 0.0, "internal_energy": -10.11, "cluster_size": 12, "cluster_id": 1, "rank_in_cluster": 1}

>  <_RMSD_MCS_to_ref>  (1324) 
0.4923836156900428

$$$$
ligand
     RDKit          3D

 42 44  0  0  0  0  0  0  0  0999 V2000
   18.9090   19.1540    7.5370 C   0  0  0  0  0  0  0  0  0  0  0  0
   18.7730   17.6460    7.6780 C   0  0  0  0  0  0  0  0  0  0  0  0
   20.0940   16.9640    7.7230 C   0  0  0  0  0  0  0  0  0  0  0  0
   20.8950   16.6880    8.8140 C   0  0  0  0  0  0  0  0  0  0  0  0
   21.9660   16.0260    8.2860 N   0  0  0  0  0  0  0  0  0  0  0  0
   23.3930   15.6500    9.1030 S   0  0  0  0  0  6  0  0  0  0  0  0
   23.7920   14.3630    8.5640 O   0  0  0  0  0  0  0  0  0  0  0  0
   24.2240   16.8300    8.9470 O   0  0  0  0  0  0  0  0  0  0  0  0
   22.9750   15.4810   10.6680 O   0  0  0  0  0  0  0  0  0  0  0  0
   23.5150   16.2520   11.6650 C   0  0  0  0  0  0  0  0  0  0  0  0
   24.7800   16.8350   11.6430 C   0  0  0  0  0  0  0  0  0  0  0  0
   25.2180   17.5990   12.7310 C   0  0  0  0  0  0  0  0  0  0  0  0
   24.4030   17.7870   13.8560 C   0  0  0  0  0  0  0  0  0  0  0  0
   24.8950   18.6430   15.0130 C   0  0  1  0  0  0  0  0  0  0  0  0
   25.9730   17.8910   15.8030 C   0  0  0  0  0  0  0  0  0  0  0  0
   26.4160   18.7270   16.9930 C   0  0  0  0  0  0  0  0  0  0  0  0
   26.9130   20.0800   16.5510 C   0  0  0  0  0  0  0  0  0  0  0  0
   27.7180   20.7320   17.2100 O   0  0  0  0  0  0  0  0  0  0  0  0
   26.3700   20.5830   15.3950 N   0  0  0  0  0  0  0  0  0  0  0  0
   25.4110   20.0170   14.5870 C   0  0  0  0  0  0  0  0  0  0  0  0
   24.9820   20.6450   13.6220 O   0  0  0  0  0  0  0  0  0  0  0  0
   23.1310   17.1980   13.8650 C   0  0  0  0  0  0  0  0  0  0  0  0
   22.6950   16.4340   12.7800 C   0  0  0  0  0  0  0  0  0  0  0  0
   21.8420   15.9890    6.9340 C   0  0  0  0  0  0  0  0  0  0  0  0
   20.7010   16.5270    6.5600 N   0  0  0  0  0  0  0  0  0  0  0  0
   18.9504   19.6134    8.5356 H   0  0  0  0  0  0  0  0  0  0  0  0
   19.8320   19.3891    6.9867 H   0  0  0  0  0  0  0  0  0  0  0  0
   18.0430   19.5504    6.9867 H   0  0  0  0  0  0  0  0  0  0  0  0
   18.2285   17.4249    8.6078 H   0  0  0  0  0  0  0  0  0  0  0  0
   18.2301   17.2723    6.7973 H   0  0  0  0  0  0  0  0  0  0  0  0
   20.7117   16.9434    9.8681 H   0  0  0  0  0  0  0  0  0  0  0  0
   25.4349   16.6949   10.7704 H   0  0  0  0  0  0  0  0  0  0  0  0
   26.2169   18.0589   12.7028 H   0  0  0  0  0  0  0  0  0  0  0  0
   24.0201   18.8310   15.6526 H   0  0  0  0  0  0  0  0  0  0  0  0
   25.5635   16.9347   16.1606 H   0  0  0  0  0  0  0  0  0  0  0  0
   26.8374   17.7025   15.1494 H   0  0  0  0  0  0  0  0  0  0  0  0
   25.5630   18.8626   17.6742 H   0  0  0  0  0  0  0  0  0  0  0  0
   27.2378   18.2022   17.5021 H   0  0  0  0  0  0  0  0  0  0  0  0
   26.7260   21.5015   15.0940 H   0  0  0  0  0  0  0  0  0  0  0  0
   22.4708   17.3386   14.7336 H   0  0  0  0  0  0  0  0  0  0  0  0
   21.6971   15.9719   12.8043 H   0  0  0  0  0  0  0  0  0  0  0  0
   22.5911   15.5679    6.2473 H   0  0  0  0  0  0  0  0  0  0  0  0
  1  2  1  0
  2  3  1  0
  3  4  2  0
  4  5  1  0
  5  6  1  0
  6  7  2  0
  6  8  2  0
  6  9  1  0
  9 10  1  0
 10 11  2  0
 11 12  1  0
 12 13  2  0
 13 14  1  0
 14 15  1  0
 15 16  1  0
 16 17  1  0
 17 18  2  0
 17 19  1  0
 19 20  1  0
 20 21  2  0
 13 22  1  0
 22 23  2  0
  5 24  1  0
 24 25  2  0
 25  3  1  0
 23 10  1  0
 20 14  1  0
  1 26  1  0
  1 27  1  0
  1 28  1  0
  2 29  1  0
  2 30  1  0
  4 31  1  0
 11 32  1  0
 12 33  1  0
 14 34  1  1
 15 35  1  0
 15 36  1  0
 16 37  1  0
 16 38  1  0
 19 39  1  0
 22 40  1  0
 23 41  1  0
 24 42  1  0
M  END
>  <meeko>  (1325) 
{"is_sidechain": [true], "free_energy": -10.11, "intermolecular_energy": 0.0, "internal_energy": -10.11, "cluster_size": 20, "cluster_id": 1, "rank_in_cluster": 1}

>  <_RMSD_MCS_to_ref>  (1325) 
0.39739180917578015

$$$$
ligand
     RDKit          3D

 45 48  0  0  0  0  0  0  0  0999 V2000
   18.9090   19.1540    7.5370 C   0  0  0  0  0  0  0  0  0  0  0  0
   18.7730   17.6460    7.6780 C   0  0  0  0  0  0  0  0  0  0  0  0
   20.0850   16.9840    7.9140 C   0  0  0  0  0  0  0  0  0  0  0  0
   20.4210   16.0370    8.8620 C   0  0  0  0  0  0  0  0  0  0  0  0
   21.7460   15.7970    8.6380 N   0  0  0  0  0  0  0  0  0  0  0  0
   22.6570   14.5860    9.3610 S   0  0  0  0  0  6  0  0  0  0  0  0
   22.8070   13.5550    8.3510 O   0  0  0  0  0  0  0  0  0  0  0  0
   22.0560   14.3340   10.6560 O   0  0  0  0  0  0  0  0  0  0  0  0
   24.2420   15.3330    9.6080 C   0  0  0  0  0  0  0  0  0  0  0  0
   25.2560   15.1480    8.6540 C   0  0  0  0  0  0  0  0  0  0  0  0
   26.5220   15.7120    8.8350 C   0  0  0  0  0  0  0  0  0  0  0  0
   26.8120   16.4830    9.9690 C   0  0  0  0  0  0  0  0  0  0  0  0
   25.8030   16.6930   10.9210 C   0  0  0  0  0  0  0  0  0  0  0  0
   25.8390   17.4020   12.0970 N   0  0  0  0  0  0  0  0  0  0  0  0
   24.6340   17.2850   12.5970 C   0  0  0  0  0  0  0  0  0  0  0  0
   24.0420   17.9320   14.0790 S   0  0  0  0  0  0  0  0  0  0  0  0
   25.5870   18.4150   14.9270 C   0  0  2  0  0  0  0  0  0  0  0  0
   25.4350   18.3280   16.4460 C   0  0  0  0  0  0  0  0  0  0  0  0
   26.7130   18.8070   17.1150 C   0  0  0  0  0  0  0  0  0  0  0  0
   27.0640   20.2090   16.6820 C   0  0  0  0  0  0  0  0  0  0  0  0
   27.7550   20.9540   17.3720 O   0  0  0  0  0  0  0  0  0  0  0  0
   26.6540   20.5820   15.4280 N   0  0  0  0  0  0  0  0  0  0  0  0
   26.0770   19.7860   14.4660 C   0  0  0  0  0  0  0  0  0  0  0  0
   26.0580   20.1600   13.2930 O   0  0  0  0  0  0  0  0  0  0  0  0
   23.8140   16.5400   11.8040 N   0  0  0  0  0  0  0  0  0  0  0  0
   24.5480   16.1270   10.7180 C   0  0  0  0  0  0  0  0  0  0  0  0
   22.1610   16.5360    7.5790 C   0  0  0  0  0  0  0  0  0  0  0  0
   21.1750   17.2780    7.1200 N   0  0  0  0  0  0  0  0  0  0  0  0
   18.9504   19.6134    8.5356 H   0  0  0  0  0  0  0  0  0  0  0  0
   19.8320   19.3891    6.9867 H   0  0  0  0  0  0  0  0  0  0  0  0
   18.0430   19.5504    6.9867 H   0  0  0  0  0  0  0  0  0  0  0  0
   18.1081   17.4279    8.5267 H   0  0  0  0  0  0  0  0  0  0  0  0
   18.3609   17.2541    6.7364 H   0  0  0  0  0  0  0  0  0  0  0  0
   19.7703   15.5810    9.6227 H   0  0  0  0  0  0  0  0  0  0  0  0
   25.0512   14.5515    7.7527 H   0  0  0  0  0  0  0  0  0  0  0  0
   27.3019   15.5484    8.0767 H   0  0  0  0  0  0  0  0  0  0  0  0
   27.8133   16.9159   10.1101 H   0  0  0  0  0  0  0  0  0  0  0  0
   26.3675   17.6939   14.6425 H   0  0  0  0  0  0  0  0  0  0  0  0
   24.5946   18.9612   16.7666 H   0  0  0  0  0  0  0  0  0  0  0  0
   25.2410   17.2844   16.7344 H   0  0  0  0  0  0  0  0  0  0  0  0
   26.5737   18.7929   18.2061 H   0  0  0  0  0  0  0  0  0  0  0  0
   27.5330   18.1360   16.8196 H   0  0  0  0  0  0  0  0  0  0  0  0
   26.7940   21.5713   15.1777 H   0  0  0  0  0  0  0  0  0  0  0  0
   22.8232   16.3252   11.9856 H   0  0  0  0  0  0  0  0  0  0  0  0
   23.1788   16.5179    7.1621 H   0  0  0  0  0  0  0  0  0  0  0  0
  1  2  1  0
  2  3  1  0
  3  4  2  0
  4  5  1  0
  5  6  1  0
  6  7  2  0
  6  8  2  0
  6  9  1  0
  9 10  2  0
 10 11  1  0
 11 12  2  0
 12 13  1  0
 13 14  1  0
 14 15  2  0
 15 16  1  0
 16 17  1  0
 17 18  1  0
 18 19  1  0
 19 20  1  0
 20 21  2  0
 20 22  1  0
 22 23  1  0
 23 24  2  0
 15 25  1  0
 25 26  1  0
  5 27  1  0
 27 28  2  0
 28  3  1  0
 26  9  1  0
 26 13  2  0
 23 17  1  0
  1 29  1  0
  1 30  1  0
  1 31  1  0
  2 32  1  0
  2 33  1  0
  4 34  1  0
 10 35  1  0
 11 36  1  0
 12 37  1  0
 17 38  1  6
 18 39  1  0
 18 40  1  0
 19 41  1  0
 19 42  1  0
 22 43  1  0
 25 44  1  0
 27 45  1  0
M  END
>  <meeko>  (1326) 
{"is_sidechain": [true], "free_energy": -10.11, "intermolecular_energy": 0.0, "internal_energy": -10.11, "cluster_size": 2, "cluster_id": 1, "rank_in_cluster": 1}

>  <_RMSD_MCS_to_ref>  (1326) 
0.8842610615649659

$$$$
ligand
     RDKit          3D

 48 51  0  0  0  0  0  0  0  0999 V2000
   18.9090   19.1540    7.5370 C   0  0  0  0  0  0  0  0  0  0  0  0
   18.7730   17.6460    7.6780 C   0  0  0  0  0  0  0  0  0  0  0  0
   20.0620   16.9400    7.4380 C   0  0  0  0  0  0  0  0  0  0  0  0
   21.1630   16.8390    8.2650 C   0  0  0  0  0  0  0  0  0  0  0  0
   22.0550   16.1000    7.5450 N   0  0  0  0  0  0  0  0  0  0  0  0
   23.5180   15.4850    8.0980 S   0  0  0  0  0  6  0  0  0  0  0  0
   24.2640   16.6110    8.6240 O   0  0  0  0  0  0  0  0  0  0  0  0
   24.0180   14.6670    7.0090 O   0  0  0  0  0  0  0  0  0  0  0  0
   23.0640   14.4290    9.4350 C   0  0  0  0  0  0  0  0  0  0  0  0
   22.4310   13.2100    9.1590 C   0  0  0  0  0  0  0  0  0  0  0  0
   22.0620   12.4000   10.2210 C   0  0  0  0  0  0  0  0  0  0  0  0
   22.2610   12.6820   11.5250 N   0  0  0  0  0  0  0  0  0  0  0  0
   22.8880   13.8530   11.7330 C   0  0  0  0  0  0  0  0  0  0  0  0
   23.2100   14.3430   12.9640 N   0  0  0  0  0  0  0  0  0  0  0  0
   23.8540   15.5580   12.8500 C   0  0  0  0  0  0  0  0  0  0  0  0
   24.2970   16.2840   14.0180 C   0  0  0  0  0  0  0  0  0  0  0  0
   24.3630   15.7650   15.1270 O   0  0  0  0  0  0  0  0  0  0  0  0
   24.6200   17.6000   13.8050 N   0  0  0  0  0  0  0  0  0  0  0  0
   24.9260   18.5000   14.9050 C   0  0  1  0  0  0  0  0  0  0  0  0
   25.9500   17.9110   15.8670 C   0  0  0  0  0  0  0  0  0  0  0  0
   26.2560   18.9220   16.9630 C   0  0  0  0  0  0  0  0  0  0  0  0
   26.7180   20.2380   16.3820 C   0  0  0  0  0  0  0  0  0  0  0  0
   27.5430   20.9520   16.9440 O   0  0  0  0  0  0  0  0  0  0  0  0
   26.1440   20.6230   15.1960 N   0  0  0  0  0  0  0  0  0  0  0  0
   25.4820   19.8020   14.3180 C   0  0  0  0  0  0  0  0  0  0  0  0
   25.3420   20.1110   13.1350 O   0  0  0  0  0  0  0  0  0  0  0  0
   23.9440   15.8250   11.4910 C   0  0  0  0  0  0  0  0  0  0  0  0
   23.3210   14.7620   10.7770 C   0  0  0  0  0  0  0  0  0  0  0  0
   21.4980   15.7610    6.3550 C   0  0  0  0  0  0  0  0  0  0  0  0
   20.2820   16.2580    6.2580 N   0  0  0  0  0  0  0  0  0  0  0  0
   18.9504   19.6134    8.5356 H   0  0  0  0  0  0  0  0  0  0  0  0
   19.8320   19.3891    6.9867 H   0  0  0  0  0  0  0  0  0  0  0  0
   18.0430   19.5504    6.9867 H   0  0  0  0  0  0  0  0  0  0  0  0
   18.4270   17.4152    8.6963 H   0  0  0  0  0  0  0  0  0  0  0  0
   18.0526   17.2998    6.9223 H   0  0  0  0  0  0  0  0  0  0  0  0
   21.2914   17.2585    9.2737 H   0  0  0  0  0  0  0  0  0  0  0  0
   22.2313   12.9026    8.1219 H   0  0  0  0  0  0  0  0  0  0  0  0
   21.5657   11.4482    9.9808 H   0  0  0  0  0  0  0  0  0  0  0  0
   23.0014   13.8714   13.8556 H   0  0  0  0  0  0  0  0  0  0  0  0
   24.6464   17.9600   12.8403 H   0  0  0  0  0  0  0  0  0  0  0  0
   24.0015   18.6751   15.4748 H   0  0  0  0  0  0  0  0  0  0  0  0
   25.5444   16.9931   16.3176 H   0  0  0  0  0  0  0  0  0  0  0  0
   26.8737   17.6730   15.3191 H   0  0  0  0  0  0  0  0  0  0  0  0
   25.3463   19.0924   17.5576 H   0  0  0  0  0  0  0  0  0  0  0  0
   27.0624   18.5182   17.5928 H   0  0  0  0  0  0  0  0  0  0  0  0
   26.2168   21.6185   14.9420 H   0  0  0  0  0  0  0  0  0  0  0  0
   24.4175   16.7099   11.0407 H   0  0  0  0  0  0  0  0  0  0  0  0
   21.9923   15.1563    5.5804 H   0  0  0  0  0  0  0  0  0  0  0  0
  1  2  1  0
  2  3  1  0
  3  4  2  0
  4  5  1  0
  5  6  1  0
  6  7  2  0
  6  8  2  0
  6  9  1  0
  9 10  2  0
 10 11  1  0
 11 12  2  0
 12 13  1  0
 13 14  1  0
 14 15  1  0
 15 16  1  0
 16 17  2  0
 16 18  1  0
 18 19  1  0
 19 20  1  0
 20 21  1  0
 21 22  1  0
 22 23  2  0
 22 24  1  0
 24 25  1  0
 25 26  2  0
 15 27  2  0
 27 28  1  0
  5 29  1  0
 29 30  2  0
 30  3  1  0
 28  9  1  0
 28 13  2  0
 25 19  1  0
  1 31  1  0
  1 32  1  0
  1 33  1  0
  2 34  1  0
  2 35  1  0
  4 36  1  0
 10 37  1  0
 11 38  1  0
 14 39  1  0
 18 40  1  0
 19 41  1  1
 20 42  1  0
 20 43  1  0
 21 44  1  0
 21 45  1  0
 24 46  1  0
 27 47  1  0
 29 48  1  0
M  END
>  <meeko>  (1327) 
{"is_sidechain": [true], "free_energy": -10.11, "intermolecular_energy": 0.0, "internal_energy": -10.11, "cluster_size": 20, "cluster_id": 1, "rank_in_cluster": 1}

>  <_RMSD_MCS_to_ref>  (1327) 
0.385217975812252

$$$$
ligand
     RDKit          3D

 48 51  0  0  0  0  0  0  0  0999 V2000
   18.9090   19.1540    7.5370 C   0  0  0  0  0  0  0  0  0  0  0  0
   18.7730   17.6460    7.6780 C   0  0  0  0  0  0  0  0  0  0  0  0
   20.0700   16.9830    7.9850 C   0  0  0  0  0  0  0  0  0  0  0  0
   20.3840   16.1480    9.0400 C   0  0  0  0  0  0  0  0  0  0  0  0
   21.6990   15.8370    8.8440 N   0  0  0  0  0  0  0  0  0  0  0  0
   22.5680   14.6620    9.6960 S   0  0  0  0  0  6  0  0  0  0  0  0
   22.3510   14.9960   11.0950 O   0  0  0  0  0  0  0  0  0  0  0  0
   22.0580   13.4060    9.1690 O   0  0  0  0  0  0  0  0  0  0  0  0
   24.2600   14.7790    9.3360 C   0  0  0  0  0  0  0  0  0  0  0  0
   24.7920   13.9210    8.4370 C   0  0  0  0  0  0  0  0  0  0  0  0
   26.2160   13.9350    8.1270 C   0  0  0  0  0  0  0  0  0  0  0  0
   27.0140   14.8050    8.7700 C   0  0  0  0  0  0  0  0  0  0  0  0
   26.4570   15.6780    9.7010 N   0  0  0  0  0  0  0  0  0  0  0  0
   27.0610   16.6310   10.4800 C   0  0  0  0  0  0  0  0  0  0  0  0
   26.0510   17.2110   11.2200 C   0  0  0  0  0  0  0  0  0  0  0  0
   26.1640   18.2520   12.2410 C   0  0  0  0  0  0  0  0  0  0  0  0
   27.0880   19.0560   12.2840 O   0  0  0  0  0  0  0  0  0  0  0  0
   25.1260   18.2120   13.1500 N   0  0  0  0  0  0  0  0  0  0  0  0
   25.2670   18.8070   14.4640 C   0  0  1  0  0  0  0  0  0  0  0  0
   26.2880   18.0430   15.2960 C   0  0  0  0  0  0  0  0  0  0  0  0
   26.4280   18.7000   16.6600 C   0  0  0  0  0  0  0  0  0  0  0  0
   26.7940   20.1590   16.5330 C   0  0  0  0  0  0  0  0  0  0  0  0
   27.4770   20.7400   17.3700 O   0  0  0  0  0  0  0  0  0  0  0  0
   26.2880   20.8270   15.4460 N   0  0  0  0  0  0  0  0  0  0  0  0
   25.7250   20.2680   14.3220 C   0  0  0  0  0  0  0  0  0  0  0  0
   25.5880   20.9360   13.2990 O   0  0  0  0  0  0  0  0  0  0  0  0
   24.8360   16.6370   10.8910 N   0  0  0  0  0  0  0  0  0  0  0  0
   25.0990   15.7090   10.0020 C   0  0  0  0  0  0  0  0  0  0  0  0
   22.1380   16.4550    7.7150 C   0  0  0  0  0  0  0  0  0  0  0  0
   21.1650   17.1510    7.1580 N   0  0  0  0  0  0  0  0  0  0  0  0
   18.9504   19.6134    8.5356 H   0  0  0  0  0  0  0  0  0  0  0  0
   19.8320   19.3891    6.9867 H   0  0  0  0  0  0  0  0  0  0  0  0
   18.0430   19.5504    6.9867 H   0  0  0  0  0  0  0  0  0  0  0  0
   18.0651   17.4302    8.4919 H   0  0  0  0  0  0  0  0  0  0  0  0
   18.4153   17.2512    6.7156 H   0  0  0  0  0  0  0  0  0  0  0  0
   19.7245   15.8105    9.8531 H   0  0  0  0  0  0  0  0  0  0  0  0
   24.1370   13.1977    7.9292 H   0  0  0  0  0  0  0  0  0  0  0  0
   26.6314   13.2443    7.3784 H   0  0  0  0  0  0  0  0  0  0  0  0
   28.0942   14.8270    8.5632 H   0  0  0  0  0  0  0  0  0  0  0  0
   28.1316   16.8819   10.5091 H   0  0  0  0  0  0  0  0  0  0  0  0
   24.2406   17.7538   12.8913 H   0  0  0  0  0  0  0  0  0  0  0  0
   24.2916   18.7646   14.9707 H   0  0  0  0  0  0  0  0  0  0  0  0
   25.9524   17.0032   15.4231 H   0  0  0  0  0  0  0  0  0  0  0  0
   27.2608   18.0556   14.7827 H   0  0  0  0  0  0  0  0  0  0  0  0
   25.4720   18.6162   17.1975 H   0  0  0  0  0  0  0  0  0  0  0  0
   27.2311   18.1880   17.2104 H   0  0  0  0  0  0  0  0  0  0  0  0
   26.3347   21.8555   15.4748 H   0  0  0  0  0  0  0  0  0  0  0  0
   23.1624   16.3845    7.3206 H   0  0  0  0  0  0  0  0  0  0  0  0
  1  2  1  0
  2  3  1  0
  3  4  2  0
  4  5  1  0
  5  6  1  0
  6  7  2  0
  6  8  2  0
  6  9  1  0
  9 10  2  0
 10 11  1  0
 11 12  2  0
 12 13  1  0
 13 14  1  0
 14 15  2  0
 15 16  1  0
 16 17  2  0
 16 18  1  0
 18 19  1  0
 19 20  1  0
 20 21  1  0
 21 22  1  0
 22 23  2  0
 22 24  1  0
 24 25  1  0
 25 26  2  0
 15 27  1  0
 27 28  2  0
  5 29  1  0
 29 30  2  0
 30  3  1  0
 28  9  1  0
 28 13  1  0
 25 19  1  0
  1 31  1  0
  1 32  1  0
  1 33  1  0
  2 34  1  0
  2 35  1  0
  4 36  1  0
 10 37  1  0
 11 38  1  0
 12 39  1  0
 14 40  1  0
 18 41  1  0
 19 42  1  1
 20 43  1  0
 20 44  1  0
 21 45  1  0
 21 46  1  0
 24 47  1  0
 29 48  1  0
M  END
>  <meeko>  (1328) 
{"is_sidechain": [true], "free_energy": -10.11, "intermolecular_energy": 0.0, "internal_energy": -10.11, "cluster_size": 10, "cluster_id": 1, "rank_in_cluster": 1}

>  <_RMSD_MCS_to_ref>  (1328) 
0.6884646363870524

$$$$
ligand
     RDKit          3D

 47 50  0  0  0  0  0  0  0  0999 V2000
   18.9090   19.1540    7.5370 C   0  0  0  0  0  0  0  0  0  0  0  0
   18.7730   17.6460    7.6780 C   0  0  0  0  0  0  0  0  0  0  0  0
   20.0750   16.9450    7.5040 C   0  0  0  0  0  0  0  0  0  0  0  0
   20.9810   16.5460    8.4660 C   0  0  0  0  0  0  0  0  0  0  0  0
   21.9950   15.9740    7.7550 N   0  0  0  0  0  0  0  0  0  0  0  0
   23.2740   15.0650    8.3800 S   0  0  0  0  0  6  0  0  0  0  0  0
   23.3270   13.9080    7.5020 O   0  0  0  0  0  0  0  0  0  0  0  0
   24.3940   15.9850    8.4400 O   0  0  0  0  0  0  0  0  0  0  0  0
   22.8170   14.5670    9.9730 C   0  0  0  0  0  0  0  0  0  0  0  0
   21.9990   13.5060   10.0920 C   0  0  0  0  0  0  0  0  0  0  0  0
   21.6210   13.1500   11.4810 C   0  0  0  0  0  0  0  0  0  0  0  0
   21.9920   13.7670   12.5560 N   0  0  0  0  0  0  0  0  0  0  0  0
   22.8230   14.8340   12.3890 C   0  0  0  0  0  0  0  0  0  0  0  0
   23.3220   15.6210   13.3180 N   0  0  0  0  0  0  0  0  0  0  0  0
   24.1160   16.5360   12.6600 C   0  0  0  0  0  0  0  0  0  0  0  0
   24.8720   17.5780   13.3530 C   0  0  0  0  0  0  0  0  0  0  0  0
   26.0090   17.9070   13.0360 O   0  0  0  0  0  0  0  0  0  0  0  0
   24.1640   18.1400   14.3930 N   0  0  0  0  0  0  0  0  0  0  0  0
   24.8340   18.9350   15.4030 C   0  0  1  0  0  0  0  0  0  0  0  0
   25.8830   18.1060   16.1350 C   0  0  0  0  0  0  0  0  0  0  0  0
   26.5640   18.9650   17.1880 C   0  0  0  0  0  0  0  0  0  0  0  0
   27.1570   20.2140   16.5780 C   0  0  0  0  0  0  0  0  0  0  0  0
   28.1940   20.7200   16.9950 O   0  0  0  0  0  0  0  0  0  0  0  0
   26.4600   20.7800   15.5420 N   0  0  0  0  0  0  0  0  0  0  0  0
   25.5200   20.1510   14.7600 C   0  0  0  0  0  0  0  0  0  0  0  0
   25.2680   20.5660   13.6310 O   0  0  0  0  0  0  0  0  0  0  0  0
   24.0910   16.2970   11.3020 C   0  0  0  0  0  0  0  0  0  0  0  0
   23.2500   15.2300   11.1170 N   0  0  0  0  0  0  0  0  0  0  0  0
   21.6870   16.0110    6.4330 C   0  0  0  0  0  0  0  0  0  0  0  0
   20.5230   16.5940    6.2450 N   0  0  0  0  0  0  0  0  0  0  0  0
   18.9504   19.6134    8.5356 H   0  0  0  0  0  0  0  0  0  0  0  0
   19.8320   19.3891    6.9867 H   0  0  0  0  0  0  0  0  0  0  0  0
   18.0430   19.5504    6.9867 H   0  0  0  0  0  0  0  0  0  0  0  0
   18.3790   17.4180    8.6794 H   0  0  0  0  0  0  0  0  0  0  0  0
   18.0917   17.2933    6.8897 H   0  0  0  0  0  0  0  0  0  0  0  0
   20.9031   16.6627    9.5570 H   0  0  0  0  0  0  0  0  0  0  0  0
   21.6359   12.9420    9.2202 H   0  0  0  0  0  0  0  0  0  0  0  0
   20.9625   12.2783   11.6096 H   0  0  0  0  0  0  0  0  0  0  0  0
   23.1463   17.9934   14.4534 H   0  0  0  0  0  0  0  0  0  0  0  0
   24.0736   19.2757   16.1211 H   0  0  0  0  0  0  0  0  0  0  0  0
   25.3976   17.2467   16.6208 H   0  0  0  0  0  0  0  0  0  0  0  0
   26.6327   17.7454   15.4153 H   0  0  0  0  0  0  0  0  0  0  0  0
   25.8235   19.2543   17.9482 H   0  0  0  0  0  0  0  0  0  0  0  0
   27.3778   18.3795   17.6406 H   0  0  0  0  0  0  0  0  0  0  0  0
   26.6589   21.7681   15.3297 H   0  0  0  0  0  0  0  0  0  0  0  0
   24.6362   16.8510   10.5237 H   0  0  0  0  0  0  0  0  0  0  0  0
   22.3229   15.6091    5.6304 H   0  0  0  0  0  0  0  0  0  0  0  0
  1  2  1  0
  2  3  1  0
  3  4  2  0
  4  5  1  0
  5  6  1  0
  6  7  2  0
  6  8  2  0
  6  9  1  0
  9 10  2  0
 10 11  1  0
 11 12  2  0
 12 13  1  0
 13 14  2  0
 14 15  1  0
 15 16  1  0
 16 17  2  0
 16 18  1  0
 18 19  1  0
 19 20  1  0
 20 21  1  0
 21 22  1  0
 22 23  2  0
 22 24  1  0
 24 25  1  0
 25 26  2  0
 15 27  2  0
 27 28  1  0
  5 29  1  0
 29 30  2  0
 30  3  1  0
 28  9  1  0
 28 13  1  0
 25 19  1  0
  1 31  1  0
  1 32  1  0
  1 33  1  0
  2 34  1  0
  2 35  1  0
  4 36  1  0
 10 37  1  0
 11 38  1  0
 18 39  1  0
 19 40  1  1
 20 41  1  0
 20 42  1  0
 21 43  1  0
 21 44  1  0
 24 45  1  0
 27 46  1  0
 29 47  1  0
M  END
>  <meeko>  (1329) 
{"is_sidechain": [true], "free_energy": -10.11, "intermolecular_energy": 0.0, "internal_energy": -10.11, "cluster_size": 17, "cluster_id": 1, "rank_in_cluster": 1}

>  <_RMSD_MCS_to_ref>  (1329) 
0.777850099812154

$$$$
ligand
     RDKit          3D

 47 50  0  0  0  0  0  0  0  0999 V2000
   18.9090   19.1540    7.5370 C   0  0  0  0  0  0  0  0  0  0  0  0
   18.7730   17.6460    7.6780 C   0  0  0  0  0  0  0  0  0  0  0  0
   19.8810   16.9160    7.0040 C   0  0  0  0  0  0  0  0  0  0  0  0
   21.1830   16.7350    7.4240 C   0  0  0  0  0  0  0  0  0  0  0  0
   21.7620   16.0110    6.4200 N   0  0  0  0  0  0  0  0  0  0  0  0
   23.2980   15.3440    6.4390 S   0  0  0  0  0  6  0  0  0  0  0  0
   23.1490   13.9810    5.9620 O   0  0  0  0  0  0  0  0  0  0  0  0
   24.1680   16.3210    5.8110 O   0  0  0  0  0  0  0  0  0  0  0  0
   23.8180   15.2200    8.1060 C   0  0  0  0  0  0  0  0  0  0  0  0
   24.3420   14.0500    8.6150 N   0  0  0  0  0  0  0  0  0  0  0  0
   24.6140   14.3620    9.8600 C   0  0  0  0  0  0  0  0  0  0  0  0
   25.1640   13.6050   10.9300 C   0  0  0  0  0  0  0  0  0  0  0  0
   25.3460   14.1850   12.1320 C   0  0  0  0  0  0  0  0  0  0  0  0
   25.0010   15.5870   12.3630 C   0  0  0  0  0  0  0  0  0  0  0  0
   25.1690   16.2720   13.6790 C   0  0  0  0  0  0  0  0  0  0  0  0
   25.0320   15.6750   14.7400 O   0  0  0  0  0  0  0  0  0  0  0  0
   25.4350   17.6130   13.5970 N   0  0  0  0  0  0  0  0  0  0  0  0
   25.4480   18.4550   14.7870 C   0  0  1  0  0  0  0  0  0  0  0  0
   26.3300   17.8850   15.8930 C   0  0  0  0  0  0  0  0  0  0  0  0
   26.3330   18.8360   17.0810 C   0  0  0  0  0  0  0  0  0  0  0  0
   26.7680   20.2230   16.6700 C   0  0  0  0  0  0  0  0  0  0  0  0
   27.4200   20.9550   17.4080 O   0  0  0  0  0  0  0  0  0  0  0  0
   26.3750   20.6480   15.4260 N   0  0  0  0  0  0  0  0  0  0  0  0
   25.9770   19.8380   14.3930 C   0  0  0  0  0  0  0  0  0  0  0  0
   26.0390   20.2130   13.2220 O   0  0  0  0  0  0  0  0  0  0  0  0
   24.4560   16.2920   11.3540 C   0  0  0  0  0  0  0  0  0  0  0  0
   24.2680   15.6930   10.1130 N   0  0  0  0  0  0  0  0  0  0  0  0
   23.7600   16.2380    8.9850 N   0  0  0  0  0  0  0  0  0  0  0  0
   20.8240   15.7310    5.4770 C   0  0  0  0  0  0  0  0  0  0  0  0
   19.6720   16.2840    5.7930 N   0  0  0  0  0  0  0  0  0  0  0  0
   18.9504   19.6134    8.5356 H   0  0  0  0  0  0  0  0  0  0  0  0
   19.8320   19.3891    6.9867 H   0  0  0  0  0  0  0  0  0  0  0  0
   18.0430   19.5504    6.9867 H   0  0  0  0  0  0  0  0  0  0  0  0
   18.7780   17.3883    8.7474 H   0  0  0  0  0  0  0  0  0  0  0  0
   17.8298   17.3457    7.1982 H   0  0  0  0  0  0  0  0  0  0  0  0
   21.6485   17.0920    8.3545 H   0  0  0  0  0  0  0  0  0  0  0  0
   25.4395   12.5511   10.7772 H   0  0  0  0  0  0  0  0  0  0  0  0
   25.7634   13.5907   12.9582 H   0  0  0  0  0  0  0  0  0  0  0  0
   25.6295   18.0344   12.6775 H   0  0  0  0  0  0  0  0  0  0  0  0
   24.4213   18.5097   15.1779 H   0  0  0  0  0  0  0  0  0  0  0  0
   25.9373   16.9068   16.2075 H   0  0  0  0  0  0  0  0  0  0  0  0
   27.3569   17.7646   15.5174 H   0  0  0  0  0  0  0  0  0  0  0  0
   25.3178   18.8882   17.5012 H   0  0  0  0  0  0  0  0  0  0  0  0
   27.0438   18.4558   17.8295 H   0  0  0  0  0  0  0  0  0  0  0  0
   26.3792   21.6633   15.2528 H   0  0  0  0  0  0  0  0  0  0  0  0
   24.1599   17.3398   11.5107 H   0  0  0  0  0  0  0  0  0  0  0  0
   21.0026   15.1266    4.5755 H   0  0  0  0  0  0  0  0  0  0  0  0
  1  2  1  0
  2  3  1  0
  3  4  2  0
  4  5  1  0
  5  6  1  0
  6  7  2  0
  6  8  2  0
  6  9  1  0
  9 10  1  0
 10 11  2  0
 11 12  1  0
 12 13  2  0
 13 14  1  0
 14 15  1  0
 15 16  2  0
 15 17  1  0
 17 18  1  0
 18 19  1  0
 19 20  1  0
 20 21  1  0
 21 22  2  0
 21 23  1  0
 23 24  1  0
 24 25  2  0
 14 26  2  0
 26 27  1  0
 27 28  1  0
  5 29  1  0
 29 30  2  0
 30  3  1  0
 28  9  2  0
 27 11  1  0
 24 18  1  0
  1 31  1  0
  1 32  1  0
  1 33  1  0
  2 34  1  0
  2 35  1  0
  4 36  1  0
 12 37  1  0
 13 38  1  0
 17 39  1  0
 18 40  1  1
 19 41  1  0
 19 42  1  0
 20 43  1  0
 20 44  1  0
 23 45  1  0
 26 46  1  0
 29 47  1  0
M  END
>  <meeko>  (1330) 
{"is_sidechain": [true], "free_energy": -10.11, "intermolecular_energy": 0.0, "internal_energy": -10.11, "cluster_size": 10, "cluster_id": 1, "rank_in_cluster": 1}

>  <_RMSD_MCS_to_ref>  (1330) 
0.7068851077477551

$$$$
ligand
     RDKit          3D

 47 50  0  0  0  0  0  0  0  0999 V2000
   18.9090   19.1540    7.5370 C   0  0  0  0  0  0  0  0  0  0  0  0
   18.7730   17.6460    7.6780 C   0  0  0  0  0  0  0  0  0  0  0  0
   20.0520   16.9390    7.3950 C   0  0  0  0  0  0  0  0  0  0  0  0
   21.1780   16.8310    8.1880 C   0  0  0  0  0  0  0  0  0  0  0  0
   22.0440   16.0890    7.4370 N   0  0  0  0  0  0  0  0  0  0  0  0
   23.5440   15.5340    7.9340 S   0  0  0  0  0  6  0  0  0  0  0  0
   23.4740   14.0870    7.9560 O   0  0  0  0  0  0  0  0  0  0  0  0
   24.5230   16.2580    7.1460 O   0  0  0  0  0  0  0  0  0  0  0  0
   23.8780   15.9770    9.5380 C   0  0  0  0  0  0  0  0  0  0  0  0
   24.9120   16.8220    9.9440 C   0  0  0  0  0  0  0  0  0  0  0  0
   24.9450   16.9830   11.2700 N   0  0  0  0  0  0  0  0  0  0  0  0
   23.9100   16.2250   11.7390 N   0  0  0  0  0  0  0  0  0  0  0  0
   23.4960   16.0400   13.0630 C   0  0  0  0  0  0  0  0  0  0  0  0
   24.1500   16.6760   14.2420 C   0  0  0  0  0  0  0  0  0  0  0  0
   24.3850   16.0370   15.2650 O   0  0  0  0  0  0  0  0  0  0  0  0
   24.4630   18.0010   14.1210 N   0  0  0  0  0  0  0  0  0  0  0  0
   25.0460   18.7660   15.2110 C   0  0  1  0  0  0  0  0  0  0  0  0
   26.1910   18.0100   15.8770 C   0  0  0  0  0  0  0  0  0  0  0  0
   26.7720   18.8520   17.0020 C   0  0  0  0  0  0  0  0  0  0  0  0
   27.2150   20.2070   16.5000 C   0  0  0  0  0  0  0  0  0  0  0  0
   28.1710   20.8060   16.9810 O   0  0  0  0  0  0  0  0  0  0  0  0
   26.4680   20.7620   15.4920 N   0  0  0  0  0  0  0  0  0  0  0  0
   25.5690   20.1080   14.6830 C   0  0  0  0  0  0  0  0  0  0  0  0
   25.2060   20.6030   13.6180 O   0  0  0  0  0  0  0  0  0  0  0  0
   22.4440   15.2400   13.3190 C   0  0  0  0  0  0  0  0  0  0  0  0
   21.7990   14.6150   12.1380 C   0  0  0  0  0  0  0  0  0  0  0  0
   22.1620   14.7720   10.9010 N   0  0  0  0  0  0  0  0  0  0  0  0
   23.2330   15.5880   10.6860 C   0  0  0  0  0  0  0  0  0  0  0  0
   21.4370   15.7340    6.2760 C   0  0  0  0  0  0  0  0  0  0  0  0
   20.2280   16.2550    6.2080 N   0  0  0  0  0  0  0  0  0  0  0  0
   18.9504   19.6134    8.5356 H   0  0  0  0  0  0  0  0  0  0  0  0
   19.8320   19.3891    6.9867 H   0  0  0  0  0  0  0  0  0  0  0  0
   18.0430   19.5504    6.9867 H   0  0  0  0  0  0  0  0  0  0  0  0
   18.4589   17.4129    8.7061 H   0  0  0  0  0  0  0  0  0  0  0  0
   18.0275   17.3034    6.9453 H   0  0  0  0  0  0  0  0  0  0  0  0
   21.3398   17.2471    9.1933 H   0  0  0  0  0  0  0  0  0  0  0  0
   25.6194   17.3010    9.2511 H   0  0  0  0  0  0  0  0  0  0  0  0
   24.2791   18.4746   13.2250 H   0  0  0  0  0  0  0  0  0  0  0  0
   24.2585   18.9337   15.9605 H   0  0  0  0  0  0  0  0  0  0  0  0
   25.8139   17.0614   16.2869 H   0  0  0  0  0  0  0  0  0  0  0  0
   26.9744   17.8040   15.1328 H   0  0  0  0  0  0  0  0  0  0  0  0
   26.0055   18.9905   17.7788 H   0  0  0  0  0  0  0  0  0  0  0  0
   27.6492   18.3288   17.4104 H   0  0  0  0  0  0  0  0  0  0  0  0
   26.5933   21.7705   15.3243 H   0  0  0  0  0  0  0  0  0  0  0  0
   22.0840   15.0604   14.3428 H   0  0  0  0  0  0  0  0  0  0  0  0
   20.9359   13.9598   12.3272 H   0  0  0  0  0  0  0  0  0  0  0  0
   21.8907   15.0999    5.5000 H   0  0  0  0  0  0  0  0  0  0  0  0
  1  2  1  0
  2  3  1  0
  3  4  2  0
  4  5  1  0
  5  6  1  0
  6  7  2  0
  6  8  2  0
  6  9  1  0
  9 10  1  0
 10 11  2  0
 11 12  1  0
 12 13  1  0
 13 14  1  0
 14 15  2  0
 14 16  1  0
 16 17  1  0
 17 18  1  0
 18 19  1  0
 19 20  1  0
 20 21  2  0
 20 22  1  0
 22 23  1  0
 23 24  2  0
 13 25  2  0
 25 26  1  0
 26 27  2  0
 27 28  1  0
  5 29  1  0
 29 30  2  0
 30  3  1  0
 28  9  2  0
 28 12  1  0
 23 17  1  0
  1 31  1  0
  1 32  1  0
  1 33  1  0
  2 34  1  0
  2 35  1  0
  4 36  1  0
 10 37  1  0
 16 38  1  0
 17 39  1  1
 18 40  1  0
 18 41  1  0
 19 42  1  0
 19 43  1  0
 22 44  1  0
 25 45  1  0
 26 46  1  0
 29 47  1  0
M  END
>  <meeko>  (1331) 
{"is_sidechain": [true], "free_energy": -10.11, "intermolecular_energy": 0.0, "internal_energy": -10.11, "cluster_size": 11, "cluster_id": 1, "rank_in_cluster": 1}

>  <_RMSD_MCS_to_ref>  (1331) 
0.6721456522047714

$$$$
ligand
     RDKit          3D

 47 50  0  0  0  0  0  0  0  0999 V2000
   18.9090   19.1540    7.5370 C   0  0  0  0  0  0  0  0  0  0  0  0
   18.7730   17.6460    7.6780 C   0  0  0  0  0  0  0  0  0  0  0  0
   19.8490   16.9140    6.9550 C   0  0  0  0  0  0  0  0  0  0  0  0
   20.9260   16.2210    7.4690 C   0  0  0  0  0  0  0  0  0  0  0  0
   21.5640   15.7290    6.3680 N   0  0  0  0  0  0  0  0  0  0  0  0
   23.0690   14.9960    6.3570 S   0  0  0  0  0  6  0  0  0  0  0  0
   22.8640   13.6230    5.9400 O   0  0  0  0  0  0  0  0  0  0  0  0
   23.9800   15.9030    5.6950 O   0  0  0  0  0  0  0  0  0  0  0  0
   23.6650   14.8640    8.0170 C   0  0  0  0  0  0  0  0  0  0  0  0
   24.2560   13.8390    8.7370 C   0  0  0  0  0  0  0  0  0  0  0  0
   24.5230   14.3230   10.0370 C   0  0  0  0  0  0  0  0  0  0  0  0
   25.0940   13.7010   11.0950 N   0  0  0  0  0  0  0  0  0  0  0  0
   25.2350   14.3860   12.2220 N   0  0  0  0  0  0  0  0  0  0  0  0
   24.8120   15.6780   12.3070 C   0  0  0  0  0  0  0  0  0  0  0  0
   25.0230   16.3470   13.6260 C   0  0  0  0  0  0  0  0  0  0  0  0
   24.9680   15.7140   14.6750 O   0  0  0  0  0  0  0  0  0  0  0  0
   25.2680   17.7020   13.5750 N   0  0  0  0  0  0  0  0  0  0  0  0
   25.3640   18.5200   14.7730 C   0  0  1  0  0  0  0  0  0  0  0  0
   26.3190   17.9170   15.7990 C   0  0  0  0  0  0  0  0  0  0  0  0
   26.3910   18.8230   17.0190 C   0  0  0  0  0  0  0  0  0  0  0  0
   26.7910   20.2280   16.6360 C   0  0  0  0  0  0  0  0  0  0  0  0
   27.4610   20.9450   17.3740 O   0  0  0  0  0  0  0  0  0  0  0  0
   26.3390   20.6880   15.4260 N   0  0  0  0  0  0  0  0  0  0  0  0
   25.8560   19.9200   14.3930 C   0  0  0  0  0  0  0  0  0  0  0  0
   25.8140   20.3600   13.2460 O   0  0  0  0  0  0  0  0  0  0  0  0
   24.2190   16.3820   11.2660 C   0  0  0  0  0  0  0  0  0  0  0  0
   24.0860   15.6400   10.1000 C   0  0  0  0  0  0  0  0  0  0  0  0
   23.5640   15.9470    8.8690 N   0  0  0  0  0  0  0  0  0  0  0  0
   20.9290   16.1690    5.2510 C   0  0  0  0  0  0  0  0  0  0  0  0
   19.8690   16.8790    5.5740 N   0  0  0  0  0  0  0  0  0  0  0  0
   18.9504   19.6134    8.5356 H   0  0  0  0  0  0  0  0  0  0  0  0
   19.8320   19.3891    6.9867 H   0  0  0  0  0  0  0  0  0  0  0  0
   18.0430   19.5504    6.9867 H   0  0  0  0  0  0  0  0  0  0  0  0
   18.8220   17.3842    8.7453 H   0  0  0  0  0  0  0  0  0  0  0  0
   17.8092   17.3513    7.2372 H   0  0  0  0  0  0  0  0  0  0  0  0
   21.2061   16.0942    8.5252 H   0  0  0  0  0  0  0  0  0  0  0  0
   24.4779   12.8285    8.3633 H   0  0  0  0  0  0  0  0  0  0  0  0
   25.3873   18.1511   12.6558 H   0  0  0  0  0  0  0  0  0  0  0  0
   24.3633   18.5699   15.2270 H   0  0  0  0  0  0  0  0  0  0  0  0
   25.9538   16.9242   16.1007 H   0  0  0  0  0  0  0  0  0  0  0  0
   27.3206   17.8200   15.3548 H   0  0  0  0  0  0  0  0  0  0  0  0
   25.4038   18.8509   17.5034 H   0  0  0  0  0  0  0  0  0  0  0  0
   27.1502   18.4208   17.7059 H   0  0  0  0  0  0  0  0  0  0  0  0
   26.3637   21.7068   15.2766 H   0  0  0  0  0  0  0  0  0  0  0  0
   23.8869   17.4267   11.3570 H   0  0  0  0  0  0  0  0  0  0  0  0
   23.1542   16.8573    8.6154 H   0  0  0  0  0  0  0  0  0  0  0  0
   21.2548   15.9612    4.2211 H   0  0  0  0  0  0  0  0  0  0  0  0
  1  2  1  0
  2  3  1  0
  3  4  2  0
  4  5  1  0
  5  6  1  0
  6  7  2  0
  6  8  2  0
  6  9  1  0
  9 10  2  0
 10 11  1  0
 11 12  2  0
 12 13  1  0
 13 14  2  0
 14 15  1  0
 15 16  2  0
 15 17  1  0
 17 18  1  0
 18 19  1  0
 19 20  1  0
 20 21  1  0
 21 22  2  0
 21 23  1  0
 23 24  1  0
 24 25  2  0
 14 26  1  0
 26 27  2  0
 27 28  1  0
  5 29  1  0
 29 30  2  0
 30  3  1  0
 28  9  1  0
 27 11  1  0
 24 18  1  0
  1 31  1  0
  1 32  1  0
  1 33  1  0
  2 34  1  0
  2 35  1  0
  4 36  1  0
 10 37  1  0
 17 38  1  0
 18 39  1  1
 19 40  1  0
 19 41  1  0
 20 42  1  0
 20 43  1  0
 23 44  1  0
 26 45  1  0
 28 46  1  0
 29 47  1  0
M  END
>  <meeko>  (1332) 
{"is_sidechain": [true], "free_energy": -10.11, "intermolecular_energy": 0.0, "internal_energy": -10.11, "cluster_size": 9, "cluster_id": 1, "rank_in_cluster": 1}

>  <_RMSD_MCS_to_ref>  (1332) 
0.6176178250162294

$$$$
ligand
     RDKit          3D

 46 49  0  0  0  0  0  0  0  0999 V2000
   18.9090   19.1540    7.5370 C   0  0  0  0  0  0  0  0  0  0  0  0
   18.7730   17.6460    7.6780 C   0  0  0  0  0  0  0  0  0  0  0  0
   20.0680   16.9430    7.4640 C   0  0  0  0  0  0  0  0  0  0  0  0
   21.1420   16.8200    8.3230 C   0  0  0  0  0  0  0  0  0  0  0  0
   22.0600   16.1000    7.6120 N   0  0  0  0  0  0  0  0  0  0  0  0
   23.4640   15.4250    8.2290 S   0  0  0  0  0  6  0  0  0  0  0  0
   24.2570   16.5280    8.7300 O   0  0  0  0  0  0  0  0  0  0  0  0
   23.9390   14.4940    7.2260 O   0  0  0  0  0  0  0  0  0  0  0  0
   23.1180   14.4620    9.6060 C   0  0  0  0  0  0  0  0  0  0  0  0
   22.4920   13.2170    9.5980 C   0  0  0  0  0  0  0  0  0  0  0  0
   22.3220   12.5500   11.2080 S   0  0  0  0  0  0  0  0  0  0  0  0
   23.0610   13.8990   11.8360 C   0  0  0  0  0  0  0  0  0  0  0  0
   23.4160   14.3510   13.0580 N   0  0  0  0  0  0  0  0  0  0  0  0
   24.0250   15.6000   12.9060 C   0  0  0  0  0  0  0  0  0  0  0  0
   24.5130   16.3270   14.0560 C   0  0  0  0  0  0  0  0  0  0  0  0
   24.7630   15.7730   15.1230 O   0  0  0  0  0  0  0  0  0  0  0  0
   24.6680   17.6780   13.8800 N   0  0  0  0  0  0  0  0  0  0  0  0
   25.0160   18.5580   14.9840 C   0  0  1  0  0  0  0  0  0  0  0  0
   26.0680   17.9440   15.9030 C   0  0  0  0  0  0  0  0  0  0  0  0
   26.4100   18.9280   17.0110 C   0  0  0  0  0  0  0  0  0  0  0  0
   26.8590   20.2550   16.4480 C   0  0  0  0  0  0  0  0  0  0  0  0
   27.7020   20.9550   17.0030 O   0  0  0  0  0  0  0  0  0  0  0  0
   26.2540   20.6680   15.2880 N   0  0  0  0  0  0  0  0  0  0  0  0
   25.5620   19.8700   14.4120 C   0  0  0  0  0  0  0  0  0  0  0  0
   25.3870   20.2110   13.2420 O   0  0  0  0  0  0  0  0  0  0  0  0
   24.0330   15.8940   11.5370 C   0  0  0  0  0  0  0  0  0  0  0  0
   23.4230   14.8060   10.9220 C   0  0  0  0  0  0  0  0  0  0  0  0
   21.5270   15.7660    6.4080 C   0  0  0  0  0  0  0  0  0  0  0  0
   20.3170   16.2730    6.2830 N   0  0  0  0  0  0  0  0  0  0  0  0
   18.9504   19.6134    8.5356 H   0  0  0  0  0  0  0  0  0  0  0  0
   19.8320   19.3891    6.9867 H   0  0  0  0  0  0  0  0  0  0  0  0
   18.0430   19.5504    6.9867 H   0  0  0  0  0  0  0  0  0  0  0  0
   18.4079   17.4161    8.6899 H   0  0  0  0  0  0  0  0  0  0  0  0
   18.0677   17.2968    6.9095 H   0  0  0  0  0  0  0  0  0  0  0  0
   21.2369   17.2122    9.3463 H   0  0  0  0  0  0  0  0  0  0  0  0
   22.1445   12.7113    8.6850 H   0  0  0  0  0  0  0  0  0  0  0  0
   23.2639   13.8592   13.9501 H   0  0  0  0  0  0  0  0  0  0  0  0
   24.5344   18.0800   12.9411 H   0  0  0  0  0  0  0  0  0  0  0  0
   24.1080   18.7281   15.5811 H   0  0  0  0  0  0  0  0  0  0  0  0
   25.6730   17.0173   16.3447 H   0  0  0  0  0  0  0  0  0  0  0  0
   26.9741   17.7164   15.3223 H   0  0  0  0  0  0  0  0  0  0  0  0
   25.5191   19.0872   17.6362 H   0  0  0  0  0  0  0  0  0  0  0  0
   27.2337   18.5073   17.6064 H   0  0  0  0  0  0  0  0  0  0  0  0
   26.3257   21.6683   15.0532 H   0  0  0  0  0  0  0  0  0  0  0  0
   24.4363   16.7946   11.0510 H   0  0  0  0  0  0  0  0  0  0  0  0
   22.0341   15.1578    5.6446 H   0  0  0  0  0  0  0  0  0  0  0  0
  1  2  1  0
  2  3  1  0
  3  4  2  0
  4  5  1  0
  5  6  1  0
  6  7  2  0
  6  8  2  0
  6  9  1  0
  9 10  2  0
 10 11  1  0
 11 12  1  0
 12 13  1  0
 13 14  1  0
 14 15  1  0
 15 16  2  0
 15 17  1  0
 17 18  1  0
 18 19  1  0
 19 20  1  0
 20 21  1  0
 21 22  2  0
 21 23  1  0
 23 24  1  0
 24 25  2  0
 14 26  2  0
 26 27  1  0
  5 28  1  0
 28 29  2  0
 29  3  1  0
 27  9  1  0
 27 12  2  0
 24 18  1  0
  1 30  1  0
  1 31  1  0
  1 32  1  0
  2 33  1  0
  2 34  1  0
  4 35  1  0
 10 36  1  0
 13 37  1  0
 17 38  1  0
 18 39  1  1
 19 40  1  0
 19 41  1  0
 20 42  1  0
 20 43  1  0
 23 44  1  0
 26 45  1  0
 28 46  1  0
M  END
>  <meeko>  (1333) 
{"is_sidechain": [true], "free_energy": -10.11, "intermolecular_energy": 0.0, "internal_energy": -10.11, "cluster_size": 20, "cluster_id": 1, "rank_in_cluster": 1}

>  <_RMSD_MCS_to_ref>  (1333) 
0.4510142890074429

$$$$
ligand
     RDKit          3D

 41 43  0  0  0  0  0  0  0  0999 V2000
   18.9090   19.1540    7.5370 C   0  0  0  0  0  0  0  0  0  0  0  0
   18.7730   17.6460    7.6780 C   0  0  0  0  0  0  0  0  0  0  0  0
   20.0940   16.9710    7.7960 C   0  0  0  0  0  0  0  0  0  0  0  0
   20.5840   16.1950    8.8270 C   0  0  0  0  0  0  0  0  0  0  0  0
   21.8430   15.8560    8.4210 N   0  0  0  0  0  0  0  0  0  0  0  0
   22.8750   14.7900    9.1950 S   0  0  0  0  0  6  0  0  0  0  0  0
   24.1720   14.9340    8.5630 O   0  0  0  0  0  0  0  0  0  0  0  0
   22.1760   13.5230    9.2790 O   0  0  0  0  0  0  0  0  0  0  0  0
   23.1160   15.2780   10.8290 C   0  0  0  0  0  0  0  0  0  0  0  0
   24.3580   15.6520   11.3830 C   0  0  0  0  0  0  0  0  0  0  0  0
   24.0680   15.9530   12.6940 C   0  0  0  0  0  0  0  0  0  0  0  0
   24.9040   16.3970   13.7820 C   0  0  0  0  0  0  0  0  0  0  0  0
   25.3530   15.6370   14.6360 O   0  0  0  0  0  0  0  0  0  0  0  0
   25.1790   17.7460   13.7960 N   0  0  0  0  0  0  0  0  0  0  0  0
   26.1190   18.3320   14.7380 C   0  0  2  0  0  0  0  0  0  0  0  0
   25.7340   18.0530   16.1870 C   0  0  0  0  0  0  0  0  0  0  0  0
   26.7350   18.7210   17.1160 C   0  0  0  0  0  0  0  0  0  0  0  0
   26.8410   20.2020   16.8360 C   0  0  0  0  0  0  0  0  0  0  0  0
   27.0560   21.0260   17.7200 O   0  0  0  0  0  0  0  0  0  0  0  0
   26.7140   20.5900   15.5270 N   0  0  0  0  0  0  0  0  0  0  0  0
   26.1570   19.8480   14.5150 C   0  0  0  0  0  0  0  0  0  0  0  0
   25.7300   20.3810   13.4930 O   0  0  0  0  0  0  0  0  0  0  0  0
   22.7300   15.7690   12.9030 O   0  0  0  0  0  0  0  0  0  0  0  0
   22.1270   15.3420   11.7310 N   0  0  0  0  0  0  0  0  0  0  0  0
   22.0620   16.3600    7.1800 C   0  0  0  0  0  0  0  0  0  0  0  0
   21.0240   17.0640    6.7790 N   0  0  0  0  0  0  0  0  0  0  0  0
   18.9504   19.6134    8.5356 H   0  0  0  0  0  0  0  0  0  0  0  0
   19.8320   19.3891    6.9867 H   0  0  0  0  0  0  0  0  0  0  0  0
   18.0430   19.5504    6.9867 H   0  0  0  0  0  0  0  0  0  0  0  0
   18.1812   17.4264    8.5789 H   0  0  0  0  0  0  0  0  0  0  0  0
   18.2790   17.2653    6.7719 H   0  0  0  0  0  0  0  0  0  0  0  0
   20.0766   15.9140    9.7616 H   0  0  0  0  0  0  0  0  0  0  0  0
   25.3360   15.6936   10.8812 H   0  0  0  0  0  0  0  0  0  0  0  0
   24.7041   18.3591   13.1182 H   0  0  0  0  0  0  0  0  0  0  0  0
   27.1049   17.8774   14.5611 H   0  0  0  0  0  0  0  0  0  0  0  0
   24.7284   18.4537   16.3827 H   0  0  0  0  0  0  0  0  0  0  0  0
   25.7376   16.9674   16.3644 H   0  0  0  0  0  0  0  0  0  0  0  0
   26.4102   18.5755   18.1568 H   0  0  0  0  0  0  0  0  0  0  0  0
   27.7218   18.2647   16.9487 H   0  0  0  0  0  0  0  0  0  0  0  0
   27.0694   21.5247   15.2801 H   0  0  0  0  0  0  0  0  0  0  0  0
   22.9781   16.2025    6.5917 H   0  0  0  0  0  0  0  0  0  0  0  0
  1  2  1  0
  2  3  1  0
  3  4  2  0
  4  5  1  0
  5  6  1  0
  6  7  2  0
  6  8  2  0
  6  9  1  0
  9 10  1  0
 10 11  2  0
 11 12  1  0
 12 13  2  0
 12 14  1  0
 14 15  1  0
 15 16  1  0
 16 17  1  0
 17 18  1  0
 18 19  2  0
 18 20  1  0
 20 21  1  0
 21 22  2  0
 11 23  1  0
 23 24  1  0
  5 25  1  0
 25 26  2  0
 26  3  1  0
 24  9  2  0
 21 15  1  0
  1 27  1  0
  1 28  1  0
  1 29  1  0
  2 30  1  0
  2 31  1  0
  4 32  1  0
 10 33  1  0
 14 34  1  0
 15 35  1  6
 16 36  1  0
 16 37  1  0
 17 38  1  0
 17 39  1  0
 20 40  1  0
 25 41  1  0
M  END
>  <meeko>  (1334) 
{"is_sidechain": [true], "free_energy": -10.11, "intermolecular_energy": 0.0, "internal_energy": -10.11, "cluster_size": 20, "cluster_id": 1, "rank_in_cluster": 1}

>  <_RMSD_MCS_to_ref>  (1334) 
0.843569993144216

$$$$
ligand
     RDKit          3D

 41 43  0  0  0  0  0  0  0  0999 V2000
   18.9090   19.1540    7.5370 C   0  0  0  0  0  0  0  0  0  0  0  0
   18.7730   17.6460    7.6780 C   0  0  0  0  0  0  0  0  0  0  0  0
   20.0910   16.9560    7.6370 C   0  0  0  0  0  0  0  0  0  0  0  0
   20.6180   16.0340    8.5200 C   0  0  0  0  0  0  0  0  0  0  0  0
   21.8340   15.7160    7.9860 N   0  0  0  0  0  0  0  0  0  0  0  0
   23.0220   14.8000    8.7300 S   0  0  0  0  0  6  0  0  0  0  0  0
   24.2530   15.0680    8.0140 O   0  0  0  0  0  0  0  0  0  0  0  0
   22.4750   13.4690    8.8920 O   0  0  0  0  0  0  0  0  0  0  0  0
   23.2780   15.4160   10.3650 C   0  0  0  0  0  0  0  0  0  0  0  0
   24.4270   15.6410   11.0990 C   0  0  0  0  0  0  0  0  0  0  0  0
   23.9950   16.1400   12.3490 C   0  0  0  0  0  0  0  0  0  0  0  0
   24.8270   16.5350   13.4860 C   0  0  0  0  0  0  0  0  0  0  0  0
   25.2560   15.7230   14.3010 O   0  0  0  0  0  0  0  0  0  0  0  0
   25.0960   17.8820   13.5610 N   0  0  0  0  0  0  0  0  0  0  0  0
   26.0270   18.4370   14.5280 C   0  0  2  0  0  0  0  0  0  0  0  0
   25.6630   18.0500   15.9580 C   0  0  0  0  0  0  0  0  0  0  0  0
   26.6540   18.6820   16.9230 C   0  0  0  0  0  0  0  0  0  0  0  0
   26.7150   20.1800   16.7450 C   0  0  0  0  0  0  0  0  0  0  0  0
   26.9210   20.9470   17.6810 O   0  0  0  0  0  0  0  0  0  0  0  0
   26.5610   20.6530   15.4650 N   0  0  0  0  0  0  0  0  0  0  0  0
   26.0220   19.9630   14.4070 C   0  0  0  0  0  0  0  0  0  0  0  0
   25.5850   20.5560   13.4210 O   0  0  0  0  0  0  0  0  0  0  0  0
   22.6540   16.2200   12.3820 N   0  0  0  0  0  0  0  0  0  0  0  0
   22.2170   15.7680   11.1550 O   0  0  0  0  0  0  0  0  0  0  0  0
   22.0410   16.4650    6.8740 C   0  0  0  0  0  0  0  0  0  0  0  0
   20.9900   17.2170    6.6210 N   0  0  0  0  0  0  0  0  0  0  0  0
   18.9504   19.6134    8.5356 H   0  0  0  0  0  0  0  0  0  0  0  0
   19.8320   19.3891    6.9867 H   0  0  0  0  0  0  0  0  0  0  0  0
   18.0430   19.5504    6.9867 H   0  0  0  0  0  0  0  0  0  0  0  0
   18.2860   17.4226    8.6387 H   0  0  0  0  0  0  0  0  0  0  0  0
   18.1742   17.2804    6.8308 H   0  0  0  0  0  0  0  0  0  0  0  0
   20.1624   15.6448    9.4425 H   0  0  0  0  0  0  0  0  0  0  0  0
   25.4644   15.4675   10.7768 H   0  0  0  0  0  0  0  0  0  0  0  0
   24.6199   18.5203   12.9077 H   0  0  0  0  0  0  0  0  0  0  0  0
   27.0250   18.0288   14.3103 H   0  0  0  0  0  0  0  0  0  0  0  0
   24.6486   18.4080   16.1877 H   0  0  0  0  0  0  0  0  0  0  0  0
   25.6982   16.9554   16.0615 H   0  0  0  0  0  0  0  0  0  0  0  0
   26.3438   18.4561   17.9539 H   0  0  0  0  0  0  0  0  0  0  0  0
   27.6517   18.2673   16.7166 H   0  0  0  0  0  0  0  0  0  0  0  0
   26.8795   21.6151   15.2813 H   0  0  0  0  0  0  0  0  0  0  0  0
   22.9589   16.4467    6.2681 H   0  0  0  0  0  0  0  0  0  0  0  0
  1  2  1  0
  2  3  1  0
  3  4  2  0
  4  5  1  0
  5  6  1  0
  6  7  2  0
  6  8  2  0
  6  9  1  0
  9 10  2  0
 10 11  1  0
 11 12  1  0
 12 13  2  0
 12 14  1  0
 14 15  1  0
 15 16  1  0
 16 17  1  0
 17 18  1  0
 18 19  2  0
 18 20  1  0
 20 21  1  0
 21 22  2  0
 11 23  2  0
 23 24  1  0
  5 25  1  0
 25 26  2  0
 26  3  1  0
 24  9  1  0
 21 15  1  0
  1 27  1  0
  1 28  1  0
  1 29  1  0
  2 30  1  0
  2 31  1  0
  4 32  1  0
 10 33  1  0
 14 34  1  0
 15 35  1  6
 16 36  1  0
 16 37  1  0
 17 38  1  0
 17 39  1  0
 20 40  1  0
 25 41  1  0
M  END
>  <meeko>  (1335) 
{"is_sidechain": [true], "free_energy": -10.11, "intermolecular_energy": 0.0, "internal_energy": -10.11, "cluster_size": 20, "cluster_id": 1, "rank_in_cluster": 1}

>  <_RMSD_MCS_to_ref>  (1335) 
0.7550949903452181

$$$$
ligand
     RDKit          3D

 43 45  0  0  0  0  0  0  0  0999 V2000
   18.9090   19.1530    7.5370 C   0  0  0  0  0  0  0  0  0  0  0  0
   18.7730   17.6470    7.6780 C   0  0  0  0  0  0  0  0  0  0  0  0
   20.0640   16.9910    8.0230 C   0  0  0  0  0  0  0  0  0  0  0  0
   20.3770   16.2180    9.1250 C   0  0  0  0  0  0  0  0  0  0  0  0
   21.6990   15.9160    8.9600 N   0  0  0  0  0  0  0  0  0  0  0  0
   22.5830   14.8110    9.8690 S   0  0  0  0  0  6  0  0  0  0  0  0
   23.9760   15.1440    9.6410 O   0  0  0  0  0  0  0  0  0  0  0  0
   22.0280   13.5090    9.5510 O   0  0  0  0  0  0  0  0  0  0  0  0
   22.1840   15.1920   11.5380 C   0  0  0  0  0  0  0  0  0  0  0  0
   21.1460   14.5310   12.1640 C   0  0  0  0  0  0  0  0  0  0  0  0
   20.8160   14.8050   13.4520 N   0  0  0  0  0  0  0  0  0  0  0  0
   21.5700   15.7550   14.0710 C   0  0  0  0  0  0  0  0  0  0  0  0
   22.6100   16.4080   13.4240 C   0  0  0  0  0  0  0  0  0  0  0  0
   23.4270   17.4330   14.1320 C   0  0  0  0  0  0  0  0  0  0  0  0
   23.0050   18.0090   15.1260 O   0  0  0  0  0  0  0  0  0  0  0  0
   24.6780   17.6460   13.5830 N   0  0  0  0  0  0  0  0  0  0  0  0
   25.7200   18.3070   14.3470 C   0  0  2  0  0  0  0  0  0  0  0  0
   25.6330   17.9280   15.8200 C   0  0  0  0  0  0  0  0  0  0  0  0
   26.7150   18.6570   16.6010 C   0  0  0  0  0  0  0  0  0  0  0  0
   26.6240   20.1510   16.3950 C   0  0  0  0  0  0  0  0  0  0  0  0
   26.8780   20.9550   17.2860 O   0  0  0  0  0  0  0  0  0  0  0  0
   26.2640   20.5770   15.1410 N   0  0  0  0  0  0  0  0  0  0  0  0
   25.5720   19.8330   14.2160 C   0  0  0  0  0  0  0  0  0  0  0  0
   24.8880   20.3850   13.3560 O   0  0  0  0  0  0  0  0  0  0  0  0
   22.9500   16.1440   12.1310 N   0  0  0  0  0  0  0  0  0  0  0  0
   22.1320   16.4520    7.7880 C   0  0  0  0  0  0  0  0  0  0  0  0
   21.1580   17.1050    7.1880 N   0  0  0  0  0  0  0  0  0  0  0  0
   18.9505   19.6125    8.5356 H   0  0  0  0  0  0  0  0  0  0  0  0
   19.8320   19.3879    6.9867 H   0  0  0  0  0  0  0  0  0  0  0  0
   18.0430   19.5494    6.9867 H   0  0  0  0  0  0  0  0  0  0  0  0
   18.0435   17.4309    8.4724 H   0  0  0  0  0  0  0  0  0  0  0  0
   18.4423   17.2476    6.7079 H   0  0  0  0  0  0  0  0  0  0  0  0
   19.7128   15.9149    9.9478 H   0  0  0  0  0  0  0  0  0  0  0  0
   20.5771   13.7698   11.6100 H   0  0  0  0  0  0  0  0  0  0  0  0
   21.3479   16.0131   15.1170 H   0  0  0  0  0  0  0  0  0  0  0  0
   24.8725   17.3322   12.6214 H   0  0  0  0  0  0  0  0  0  0  0  0
   26.6941   17.9856   13.9497 H   0  0  0  0  0  0  0  0  0  0  0  0
   24.6451   18.2107   16.2127 H   0  0  0  0  0  0  0  0  0  0  0  0
   25.7756   16.8425   15.9261 H   0  0  0  0  0  0  0  0  0  0  0  0
   26.5965   18.4344   17.6717 H   0  0  0  0  0  0  0  0  0  0  0  0
   27.6961   18.3145   16.2402 H   0  0  0  0  0  0  0  0  0  0  0  0
   26.5349   21.5333   14.8710 H   0  0  0  0  0  0  0  0  0  0  0  0
   23.1547   16.3539    7.3950 H   0  0  0  0  0  0  0  0  0  0  0  0
  1  2  1  0
  2  3  1  0
  3  4  2  0
  4  5  1  0
  5  6  1  0
  6  7  2  0
  6  8  2  0
  6  9  1  0
  9 10  2  0
 10 11  1  0
 11 12  2  0
 12 13  1  0
 13 14  1  0
 14 15  2  0
 14 16  1  0
 16 17  1  0
 17 18  1  0
 18 19  1  0
 19 20  1  0
 20 21  2  0
 20 22  1  0
 22 23  1  0
 23 24  2  0
 13 25  2  0
  5 26  1  0
 26 27  2  0
 27  3  1  0
 25  9  1  0
 23 17  1  0
  1 28  1  0
  1 29  1  0
  1 30  1  0
  2 31  1  0
  2 32  1  0
  4 33  1  0
 10 34  1  0
 12 35  1  0
 16 36  1  0
 17 37  1  6
 18 38  1  0
 18 39  1  0
 19 40  1  0
 19 41  1  0
 22 42  1  0
 26 43  1  0
M  END
>  <meeko>  (1336) 
{"is_sidechain": [true], "free_energy": -10.11, "intermolecular_energy": 0.0, "internal_energy": -10.11, "cluster_size": 20, "cluster_id": 1, "rank_in_cluster": 1}

>  <_RMSD_MCS_to_ref>  (1336) 
0.49113281751929855

$$$$
ligand
     RDKit          3D

 42 44  0  0  0  0  0  0  0  0999 V2000
   18.9090   19.1540    7.5370 C   0  0  0  0  0  0  0  0  0  0  0  0
   18.7730   17.6460    7.6780 C   0  0  0  0  0  0  0  0  0  0  0  0
   20.0710   16.9440    7.4850 C   0  0  0  0  0  0  0  0  0  0  0  0
   21.0290   16.6130    8.4220 C   0  0  0  0  0  0  0  0  0  0  0  0
   22.0150   16.0080    7.6970 N   0  0  0  0  0  0  0  0  0  0  0  0
   23.3100   15.1500    8.3330 S   0  0  0  0  0  6  0  0  0  0  0  0
   22.9850   13.7500    8.1500 O   0  0  0  0  0  0  0  0  0  0  0  0
   24.5000   15.7730    7.7900 O   0  0  0  0  0  0  0  0  0  0  0  0
   23.3560   15.4270   10.0840 C   0  0  0  0  0  0  0  0  0  0  0  0
   22.4210   15.2760   11.0900 C   0  0  0  0  0  0  0  0  0  0  0  0
   22.9450   15.6380   12.3650 C   0  0  0  0  0  0  0  0  0  0  0  0
   24.2640   16.0520   12.3050 C   0  0  0  0  0  0  0  0  0  0  0  0
   25.0870   16.4880   13.4250 C   0  0  0  0  0  0  0  0  0  0  0  0
   25.6630   15.7020   14.1720 O   0  0  0  0  0  0  0  0  0  0  0  0
   25.1990   17.8490   13.6050 N   0  0  0  0  0  0  0  0  0  0  0  0
   26.1040   18.4280   14.5830 C   0  0  2  0  0  0  0  0  0  0  0  0
   25.7490   18.0200   16.0080 C   0  0  0  0  0  0  0  0  0  0  0  0
   26.7100   18.6850   16.9810 C   0  0  0  0  0  0  0  0  0  0  0  0
   26.7130   20.1860   16.8090 C   0  0  0  0  0  0  0  0  0  0  0  0
   26.8800   20.9560   17.7510 O   0  0  0  0  0  0  0  0  0  0  0  0
   26.5510   20.6590   15.5320 N   0  0  0  0  0  0  0  0  0  0  0  0
   26.0370   19.9550   14.4710 C   0  0  0  0  0  0  0  0  0  0  0  0
   25.5670   20.5310   13.4910 O   0  0  0  0  0  0  0  0  0  0  0  0
   24.8490   15.9950   10.6950 S   0  0  0  0  0  0  0  0  0  0  0  0
   21.6270   15.9290    6.3980 C   0  0  0  0  0  0  0  0  0  0  0  0
   20.4510   16.5000    6.2340 N   0  0  0  0  0  0  0  0  0  0  0  0
   18.9504   19.6134    8.5356 H   0  0  0  0  0  0  0  0  0  0  0  0
   19.8320   19.3891    6.9867 H   0  0  0  0  0  0  0  0  0  0  0  0
   18.0430   19.5504    6.9867 H   0  0  0  0  0  0  0  0  0  0  0  0
   18.3927   17.4172    8.6845 H   0  0  0  0  0  0  0  0  0  0  0  0
   18.0802   17.2951    6.8990 H   0  0  0  0  0  0  0  0  0  0  0  0
   21.0037   16.7953    9.5065 H   0  0  0  0  0  0  0  0  0  0  0  0
   21.3936   14.9186   10.9262 H   0  0  0  0  0  0  0  0  0  0  0  0
   22.3630   15.5931   13.2973 H   0  0  0  0  0  0  0  0  0  0  0  0
   24.6221   18.4769   13.0272 H   0  0  0  0  0  0  0  0  0  0  0  0
   27.1172   18.0561   14.3705 H   0  0  0  0  0  0  0  0  0  0  0  0
   24.7203   18.3370   16.2345 H   0  0  0  0  0  0  0  0  0  0  0  0
   25.8263   16.9271   16.1061 H   0  0  0  0  0  0  0  0  0  0  0  0
   26.4037   18.4427   18.0093 H   0  0  0  0  0  0  0  0  0  0  0  0
   27.7241   18.3100   16.7787 H   0  0  0  0  0  0  0  0  0  0  0  0
   26.8413   21.6308   15.3524 H   0  0  0  0  0  0  0  0  0  0  0  0
   22.2120   15.4552    5.5959 H   0  0  0  0  0  0  0  0  0  0  0  0
  1  2  1  0
  2  3  1  0
  3  4  2  0
  4  5  1  0
  5  6  1  0
  6  7  2  0
  6  8  2  0
  6  9  1  0
  9 10  2  0
 10 11  1  0
 11 12  2  0
 12 13  1  0
 13 14  2  0
 13 15  1  0
 15 16  1  0
 16 17  1  0
 17 18  1  0
 18 19  1  0
 19 20  2  0
 19 21  1  0
 21 22  1  0
 22 23  2  0
 12 24  1  0
  5 25  1  0
 25 26  2  0
 26  3  1  0
 24  9  1  0
 22 16  1  0
  1 27  1  0
  1 28  1  0
  1 29  1  0
  2 30  1  0
  2 31  1  0
  4 32  1  0
 10 33  1  0
 11 34  1  0
 15 35  1  0
 16 36  1  6
 17 37  1  0
 17 38  1  0
 18 39  1  0
 18 40  1  0
 21 41  1  0
 25 42  1  0
M  END
>  <meeko>  (1337) 
{"is_sidechain": [true], "free_energy": -10.11, "intermolecular_energy": 0.0, "internal_energy": -10.11, "cluster_size": 20, "cluster_id": 1, "rank_in_cluster": 1}

>  <_RMSD_MCS_to_ref>  (1337) 
0.787223743431448

$$$$
ligand
     RDKit          3D

 54 58  0  0  0  0  0  0  0  0999 V2000
   18.9090   19.1540    7.5370 C   0  0  0  0  0  0  0  0  0  0  0  0
   18.7730   17.6460    7.6780 C   0  0  0  0  0  0  0  0  0  0  0  0
   20.0920   16.9570    7.6550 C   0  0  0  0  0  0  0  0  0  0  0  0
   20.5230   15.8830    8.4090 C   0  0  0  0  0  0  0  0  0  0  0  0
   21.7940   15.6510    7.9620 N   0  0  0  0  0  0  0  0  0  0  0  0
   22.8890   14.5630    8.6180 S   0  0  0  0  0  6  0  0  0  0  0  0
   23.6060   14.0490    7.4650 O   0  0  0  0  0  0  0  0  0  0  0  0
   22.1410   13.6750    9.4860 O   0  0  0  0  0  0  0  0  0  0  0  0
   24.0310   15.5160    9.6020 C   0  0  0  0  0  0  0  0  0  0  0  0
   23.6060   15.8710   10.8970 C   0  0  0  0  0  0  0  0  0  0  0  0
   24.4330   16.6860   11.6420 C   0  0  0  0  0  0  0  0  0  0  0  0
   25.6360   17.1770   11.1560 C   0  0  0  0  0  0  0  0  0  0  0  0
   26.0580   16.8420    9.8800 C   0  0  0  0  0  0  0  0  0  0  0  0
   25.2640   15.9880    9.0720 C   0  0  0  0  0  0  0  0  0  0  0  0
   25.7750   15.6240    7.7480 C   0  0  0  0  0  0  0  0  0  0  0  0
   26.6320   14.5920    7.6930 N   0  0  0  0  0  0  0  0  0  0  0  0
   27.1370   14.3030    6.4780 C   0  0  0  0  0  0  0  0  0  0  0  0
   26.8260   15.0080    5.3400 C   0  0  0  0  0  0  0  0  0  0  0  0
   25.9590   16.0610    5.5150 C   0  0  0  0  0  0  0  0  0  0  0  0
   25.4330   16.4030    6.7060 N   0  0  0  0  0  0  0  0  0  0  0  0
   26.2760   18.0620   12.1720 C   0  0  0  0  0  0  0  0  0  0  0  0
   25.3860   17.9240   13.3170 N   0  0  0  0  0  0  0  0  0  0  0  0
   25.5090   18.7980   14.4800 C   0  0  2  0  0  0  0  0  0  0  0  0
   26.3280   20.0620   14.2190 C   0  0  0  0  0  0  0  0  0  0  0  0
   26.3370   20.9230   15.4720 C   0  0  0  0  0  0  0  0  0  0  0  0
   26.8720   20.1580   16.6600 C   0  0  0  0  0  0  0  0  0  0  0  0
   27.3540   20.7220   17.6380 O   0  0  0  0  0  0  0  0  0  0  0  0
   26.7170   18.7950   16.6370 N   0  0  0  0  0  0  0  0  0  0  0  0
   26.0680   18.0340   15.6910 C   0  0  0  0  0  0  0  0  0  0  0  0
   25.8720   16.8350   15.8850 O   0  0  0  0  0  0  0  0  0  0  0  0
   24.2440   17.2040   13.0000 C   0  0  0  0  0  0  0  0  0  0  0  0
   23.2510   17.0180   13.6750 O   0  0  0  0  0  0  0  0  0  0  0  0
   22.1280   16.6150    7.0630 C   0  0  0  0  0  0  0  0  0  0  0  0
   21.0980   17.3980    6.8160 N   0  0  0  0  0  0  0  0  0  0  0  0
   18.9504   19.6134    8.5356 H   0  0  0  0  0  0  0  0  0  0  0  0
   19.8320   19.3891    6.9867 H   0  0  0  0  0  0  0  0  0  0  0  0
   18.0430   19.5504    6.9867 H   0  0  0  0  0  0  0  0  0  0  0  0
   18.2738   17.4232    8.6325 H   0  0  0  0  0  0  0  0  0  0  0  0
   18.1858   17.2789    6.8233 H   0  0  0  0  0  0  0  0  0  0  0  0
   19.9706   15.3394    9.1896 H   0  0  0  0  0  0  0  0  0  0  0  0
   22.6480   15.5110   11.3003 H   0  0  0  0  0  0  0  0  0  0  0  0
   27.0086   17.2380    9.4932 H   0  0  0  0  0  0  0  0  0  0  0  0
   27.8356   13.4576    6.3922 H   0  0  0  0  0  0  0  0  0  0  0  0
   27.2424   14.7476    4.3557 H   0  0  0  0  0  0  0  0  0  0  0  0
   25.6800   16.6566    4.6333 H   0  0  0  0  0  0  0  0  0  0  0  0
   27.2922   17.7180   12.4149 H   0  0  0  0  0  0  0  0  0  0  0  0
   26.3967   19.1017   11.8336 H   0  0  0  0  0  0  0  0  0  0  0  0
   24.4864   19.1351   14.7051 H   0  0  0  0  0  0  0  0  0  0  0  0
   27.3595   19.7838   13.9570 H   0  0  0  0  0  0  0  0  0  0  0  0
   25.8799   20.6261   13.3877 H   0  0  0  0  0  0  0  0  0  0  0  0
   26.9726   21.8036   15.2971 H   0  0  0  0  0  0  0  0  0  0  0  0
   25.3029   21.2269   15.6918 H   0  0  0  0  0  0  0  0  0  0  0  0
   27.1372   18.2784   17.4228 H   0  0  0  0  0  0  0  0  0  0  0  0
   23.1219   16.7257    6.6049 H   0  0  0  0  0  0  0  0  0  0  0  0
  1  2  1  0
  2  3  1  0
  3  4  2  0
  4  5  1  0
  5  6  1  0
  6  7  2  0
  6  8  2  0
  6  9  1  0
  9 10  2  0
 10 11  1  0
 11 12  2  0
 12 13  1  0
 13 14  2  0
 14 15  1  0
 15 16  2  0
 16 17  1  0
 17 18  2  0
 18 19  1  0
 19 20  2  0
 12 21  1  0
 21 22  1  0
 22 23  1  0
 23 24  1  0
 24 25  1  0
 25 26  1  0
 26 27  2  0
 26 28  1  0
 28 29  1  0
 29 30  2  0
 22 31  1  0
 31 32  2  0
  5 33  1  0
 33 34  2  0
 34  3  1  0
 14  9  1  0
 20 15  1  0
 29 23  1  0
 31 11  1  0
  1 35  1  0
  1 36  1  0
  1 37  1  0
  2 38  1  0
  2 39  1  0
  4 40  1  0
 10 41  1  0
 13 42  1  0
 17 43  1  0
 18 44  1  0
 19 45  1  0
 21 46  1  0
 21 47  1  0
 23 48  1  1
 24 49  1  0
 24 50  1  0
 25 51  1  0
 25 52  1  0
 28 53  1  0
 33 54  1  0
M  END
>  <meeko>  (1338) 
{"is_sidechain": [true], "free_energy": -10.11, "intermolecular_energy": 0.0, "internal_energy": -10.11, "cluster_size": 15, "cluster_id": 2, "rank_in_cluster": 1}

>  <_RMSD_MCS_to_ref>  (1338) 
1.7266943208853665

$$$$
ligand
     RDKit          3D

 56 60  0  0  0  0  0  0  0  0999 V2000
   18.8250   19.0170    7.5350 C   0  0  0  0  0  0  0  0  0  0  0  0
   18.5200   17.5420    7.7330 C   0  0  0  0  0  0  0  0  0  0  0  0
   19.7540   16.7350    7.9400 C   0  0  0  0  0  0  0  0  0  0  0  0
   20.4750   16.5350    9.1000 C   0  0  0  0  0  0  0  0  0  0  0  0
   21.4980   15.7140    8.7210 N   0  0  0  0  0  0  0  0  0  0  0  0
   22.8360   15.3230    9.6590 S   0  0  0  0  0  6  0  0  0  0  0  0
   23.7730   16.4180    9.5100 O   0  0  0  0  0  0  0  0  0  0  0  0
   23.1730   13.9580    9.3050 O   0  0  0  0  0  0  0  0  0  0  0  0
   22.2100   15.3520   11.3130 C   0  0  0  0  0  0  0  0  0  0  0  0
   21.0950   14.5580   11.6370 C   0  0  0  0  0  0  0  0  0  0  0  0
   20.5890   14.5260   12.9540 C   0  0  0  0  0  0  0  0  0  0  0  0
   19.4210   13.6830   13.2650 C   0  0  0  0  0  0  0  0  0  0  0  0
   18.2180   14.2000   13.9000 C   0  0  0  0  0  0  0  0  0  0  0  0
   17.1680   13.4080   14.1590 C   0  0  0  0  0  0  0  0  0  0  0  0
   17.2240   11.9700   13.7930 C   0  0  0  0  0  0  0  0  0  0  0  0
   16.2820   11.2210   14.0140 O   0  0  0  0  0  0  0  0  0  0  0  0
   18.3890   11.5540   13.1990 N   0  0  0  0  0  0  0  0  0  0  0  0
   19.4580   12.3770   12.9380 C   0  0  0  0  0  0  0  0  0  0  0  0
   21.1910   15.3010   13.9520 C   0  0  0  0  0  0  0  0  0  0  0  0
   22.2730   16.0850   13.5930 C   0  0  0  0  0  0  0  0  0  0  0  0
   22.7880   16.1360   12.2980 C   0  0  0  0  0  0  0  0  0  0  0  0
   23.9490   17.0780   12.2570 C   0  0  0  0  0  0  0  0  0  0  0  0
   24.0100   17.5720   13.6260 N   0  0  0  0  0  0  0  0  0  0  0  0
   25.1640   18.2850   14.1660 C   0  0  2  0  0  0  0  0  0  0  0  0
   25.4820   17.8860   15.6030 C   0  0  0  0  0  0  0  0  0  0  0  0
   26.7380   18.6130   16.0610 C   0  0  0  0  0  0  0  0  0  0  0  0
   26.5920   20.1100   15.9060 C   0  0  0  0  0  0  0  0  0  0  0  0
   27.0810   20.9040   16.7020 O   0  0  0  0  0  0  0  0  0  0  0  0
   25.8930   20.5470   14.8090 N   0  0  0  0  0  0  0  0  0  0  0  0
   24.9690   19.8110   14.1030 C   0  0  0  0  0  0  0  0  0  0  0  0
   24.0600   20.3690   13.4920 O   0  0  0  0  0  0  0  0  0  0  0  0
   23.0820   16.9590   14.4480 C   0  0  0  0  0  0  0  0  0  0  0  0
   22.9420   17.0800   15.6490 O   0  0  0  0  0  0  0  0  0  0  0  0
   21.4050   15.4720    7.3880 C   0  0  0  0  0  0  0  0  0  0  0  0
   20.3480   16.0730    6.8840 N   0  0  0  0  0  0  0  0  0  0  0  0
   18.9260   19.5054    8.5155 H   0  0  0  0  0  0  0  0  0  0  0  0
   19.7645   19.1250    6.9731 H   0  0  0  0  0  0  0  0  0  0  0  0
   18.0054   19.4887    6.9731 H   0  0  0  0  0  0  0  0  0  0  0  0
   17.8714   17.4296    8.6143 H   0  0  0  0  0  0  0  0  0  0  0  0
   18.0252   17.1744    6.8220 H   0  0  0  0  0  0  0  0  0  0  0  0
   20.2718   16.9436   10.1009 H   0  0  0  0  0  0  0  0  0  0  0  0
   20.6117   13.9548   10.8544 H   0  0  0  0  0  0  0  0  0  0  0  0
   18.1692   15.2643   14.1735 H   0  0  0  0  0  0  0  0  0  0  0  0
   16.2693   13.8213   14.6403 H   0  0  0  0  0  0  0  0  0  0  0  0
   18.4671   10.5623   12.9319 H   0  0  0  0  0  0  0  0  0  0  0  0
   20.3560   11.9636   12.4555 H   0  0  0  0  0  0  0  0  0  0  0  0
   20.8167   15.2872   14.9863 H   0  0  0  0  0  0  0  0  0  0  0  0
   24.8761   16.5531   11.9832 H   0  0  0  0  0  0  0  0  0  0  0  0
   23.8362   17.8771   11.5095 H   0  0  0  0  0  0  0  0  0  0  0  0
   26.0130   17.9961   13.5290 H   0  0  0  0  0  0  0  0  0  0  0  0
   24.6400   18.1606   16.2554 H   0  0  0  0  0  0  0  0  0  0  0  0
   25.6453   16.7995   15.6560 H   0  0  0  0  0  0  0  0  0  0  0  0
   26.9222   18.3784   17.1198 H   0  0  0  0  0  0  0  0  0  0  0  0
   27.5801   18.2792   15.4370 H   0  0  0  0  0  0  0  0  0  0  0  0
   26.0755   21.5080   14.4864 H   0  0  0  0  0  0  0  0  0  0  0  0
   22.1134   14.8598    6.8106 H   0  0  0  0  0  0  0  0  0  0  0  0
  1  2  1  0
  2  3  1  0
  3  4  2  0
  4  5  1  0
  5  6  1  0
  6  7  2  0
  6  8  2  0
  6  9  1  0
  9 10  2  0
 10 11  1  0
 11 12  1  0
 12 13  1  0
 13 14  2  0
 14 15  1  0
 15 16  2  0
 15 17  1  0
 17 18  1  0
 11 19  2  0
 19 20  1  0
 20 21  2  0
 21 22  1  0
 22 23  1  0
 23 24  1  0
 24 25  1  0
 25 26  1  0
 26 27  1  0
 27 28  2  0
 27 29  1  0
 29 30  1  0
 30 31  2  0
 23 32  1  0
 32 33  2  0
  5 34  1  0
 34 35  2  0
 35  3  1  0
 21  9  1  0
 30 24  1  0
 18 12  2  0
 32 20  1  0
  1 36  1  0
  1 37  1  0
  1 38  1  0
  2 39  1  0
  2 40  1  0
  4 41  1  0
 10 42  1  0
 13 43  1  0
 14 44  1  0
 17 45  1  0
 18 46  1  0
 19 47  1  0
 22 48  1  0
 22 49  1  0
 24 50  1  6
 25 51  1  0
 25 52  1  0
 26 53  1  0
 26 54  1  0
 29 55  1  0
 34 56  1  0
M  END
>  <meeko>  (1339) 
{"is_sidechain": [true], "free_energy": -10.1, "intermolecular_energy": 0.0, "internal_energy": -10.1, "cluster_size": 13, "cluster_id": 1, "rank_in_cluster": 1}

>  <_RMSD_MCS_to_ref>  (1339) 
1.5475274723822445

$$$$
ligand
     RDKit          3D

 46 49  0  0  0  0  0  0  0  0999 V2000
   18.8250   19.0170    7.5350 C   0  0  0  0  0  0  0  0  0  0  0  0
   18.5200   17.5420    7.7330 C   0  0  0  0  0  0  0  0  0  0  0  0
   19.7340   16.7590    8.0890 C   0  0  0  0  0  0  0  0  0  0  0  0
   20.3730   16.6510    9.3080 C   0  0  0  0  0  0  0  0  0  0  0  0
   21.4130   15.7970    9.0670 N   0  0  0  0  0  0  0  0  0  0  0  0
   22.5590   15.3190   10.1950 S   0  0  0  0  0  6  0  0  0  0  0  0
   23.4890   16.4210   10.3530 O   0  0  0  0  0  0  0  0  0  0  0  0
   23.0200   14.0240    9.7230 O   0  0  0  0  0  0  0  0  0  0  0  0
   21.6590   15.0660   11.6850 C   0  0  0  0  0  0  0  0  0  0  0  0
   20.3820   14.5380   11.5820 C   0  0  0  0  0  0  0  0  0  0  0  0
   19.5870   14.2840   12.6490 N   0  0  0  0  0  0  0  0  0  0  0  0
   20.0920   14.5520   13.8700 C   0  0  0  0  0  0  0  0  0  0  0  0
   21.3620   15.0630   14.0730 C   0  0  0  0  0  0  0  0  0  0  0  0
   22.1670   15.3220   12.9580 C   0  0  0  0  0  0  0  0  0  0  0  0
   23.4790   15.8600   13.1870 C   0  0  0  0  0  0  0  0  0  0  0  0
   23.7890   16.8990   14.0320 C   0  0  0  0  0  0  0  0  0  0  0  0
   25.1480   16.9920   13.9340 N   0  0  0  0  0  0  0  0  0  0  0  0
   26.0750   17.7930   14.7190 C   0  0  2  0  0  0  0  0  0  0  0  0
   25.6990   17.7600   16.2000 C   0  0  0  0  0  0  0  0  0  0  0  0
   26.7080   18.5620   17.0050 C   0  0  0  0  0  0  0  0  0  0  0  0
   26.8130   19.9780   16.4940 C   0  0  0  0  0  0  0  0  0  0  0  0
   27.1560   20.9140   17.2090 O   0  0  0  0  0  0  0  0  0  0  0  0
   26.5580   20.1630   15.1580 N   0  0  0  0  0  0  0  0  0  0  0  0
   26.1660   19.2260   14.2260 C   0  0  0  0  0  0  0  0  0  0  0  0
   25.9600   19.5720   13.0650 O   0  0  0  0  0  0  0  0  0  0  0  0
   25.6360   16.0700   13.0780 N   0  0  0  0  0  0  0  0  0  0  0  0
   24.6100   15.3790   12.6040 N   0  0  0  0  0  0  0  0  0  0  0  0
   21.4000   15.4370    7.7590 C   0  0  0  0  0  0  0  0  0  0  0  0
   20.3820   15.9970    7.1370 N   0  0  0  0  0  0  0  0  0  0  0  0
   18.9260   19.5054    8.5155 H   0  0  0  0  0  0  0  0  0  0  0  0
   19.7645   19.1250    6.9731 H   0  0  0  0  0  0  0  0  0  0  0  0
   18.0054   19.4887    6.9731 H   0  0  0  0  0  0  0  0  0  0  0  0
   17.7821   17.4385    8.5422 H   0  0  0  0  0  0  0  0  0  0  0  0
   18.1308   17.1475    6.7828 H   0  0  0  0  0  0  0  0  0  0  0  0
   20.1063   17.1403   10.2564 H   0  0  0  0  0  0  0  0  0  0  0  0
   19.9923   14.3127   10.5783 H   0  0  0  0  0  0  0  0  0  0  0  0
   19.4623   14.3544   14.7500 H   0  0  0  0  0  0  0  0  0  0  0  0
   21.7311   15.2615   15.0900 H   0  0  0  0  0  0  0  0  0  0  0  0
   23.1061   17.5093   14.6412 H   0  0  0  0  0  0  0  0  0  0  0  0
   27.0708   17.3432   14.5922 H   0  0  0  0  0  0  0  0  0  0  0  0
   24.6975   18.1952   16.3323 H   0  0  0  0  0  0  0  0  0  0  0  0
   25.6996   16.7178   16.5518 H   0  0  0  0  0  0  0  0  0  0  0  0
   26.3911   18.5833   18.0581 H   0  0  0  0  0  0  0  0  0  0  0  0
   27.6928   18.0822   16.9056 H   0  0  0  0  0  0  0  0  0  0  0  0
   26.6744   21.1244   14.8072 H   0  0  0  0  0  0  0  0  0  0  0  0
   22.1358   14.7712    7.2843 H   0  0  0  0  0  0  0  0  0  0  0  0
  1  2  1  0
  2  3  1  0
  3  4  2  0
  4  5  1  0
  5  6  1  0
  6  7  2  0
  6  8  2  0
  6  9  1  0
  9 10  2  0
 10 11  1  0
 11 12  2  0
 12 13  1  0
 13 14  2  0
 14 15  1  0
 15 16  2  0
 16 17  1  0
 17 18  1  0
 18 19  1  0
 19 20  1  0
 20 21  1  0
 21 22  2  0
 21 23  1  0
 23 24  1  0
 24 25  2  0
 17 26  1  0
 26 27  2  0
  5 28  1  0
 28 29  2  0
 29  3  1  0
 14  9  1  0
 27 15  1  0
 24 18  1  0
  1 30  1  0
  1 31  1  0
  1 32  1  0
  2 33  1  0
  2 34  1  0
  4 35  1  0
 10 36  1  0
 12 37  1  0
 13 38  1  0
 16 39  1  0
 18 40  1  1
 19 41  1  0
 19 42  1  0
 20 43  1  0
 20 44  1  0
 23 45  1  0
 28 46  1  0
M  END
>  <meeko>  (1340) 
{"is_sidechain": [true], "free_energy": -10.1, "intermolecular_energy": 0.0, "internal_energy": -10.1, "cluster_size": 19, "cluster_id": 1, "rank_in_cluster": 1}

>  <_RMSD_MCS_to_ref>  (1340) 
0.8957061770221061

$$$$
ligand
     RDKit          3D

 51 55  0  0  0  0  0  0  0  0999 V2000
   18.7970   18.8170    7.7190 C   0  0  0  0  0  0  0  0  0  0  0  0
   18.5280   17.3290    7.8810 C   0  0  0  0  0  0  0  0  0  0  0  0
   19.7780   16.5530    8.1070 C   0  0  0  0  0  0  0  0  0  0  0  0
   20.7480   16.1840    7.1960 C   0  0  0  0  0  0  0  0  0  0  0  0
   21.6690   15.5080    7.9420 N   0  0  0  0  0  0  0  0  0  0  0  0
   22.9520   14.6080    7.3400 S   0  0  0  0  0  6  0  0  0  0  0  0
   22.8240   13.2930    7.9340 O   0  0  0  0  0  0  0  0  0  0  0  0
   22.9480   14.8320    5.9060 O   0  0  0  0  0  0  0  0  0  0  0  0
   24.4350   15.3330    7.9790 C   0  0  0  0  0  0  0  0  0  0  0  0
   25.3450   15.8640    7.0960 O   0  0  0  0  0  0  0  0  0  0  0  0
   26.4610   16.3240    7.7630 N   0  0  0  0  0  0  0  0  0  0  0  0
   26.2210   16.0970    9.0520 C   0  0  0  0  0  0  0  0  0  0  0  0
   24.9720   15.4740    9.2550 C   0  0  0  0  0  0  0  0  0  0  0  0
   24.3730   15.0120   10.4870 C   0  0  0  0  0  0  0  0  0  0  0  0
   23.4670   13.9360   10.4620 C   0  0  0  0  0  0  0  0  0  0  0  0
   22.8600   13.4640   11.6450 C   0  0  0  0  0  0  0  0  0  0  0  0
   23.1470   14.0540   12.8780 C   0  0  0  0  0  0  0  0  0  0  0  0
   24.0430   15.1050   12.8820 C   0  0  0  0  0  0  0  0  0  0  0  0
   24.6480   15.5710   11.7260 C   0  0  0  0  0  0  0  0  0  0  0  0
   25.5430   16.6590   12.1250 C   0  0  0  0  0  0  0  0  0  0  0  0
   26.2930   17.2380   11.3640 O   0  0  0  0  0  0  0  0  0  0  0  0
   25.3820   16.8390   13.4710 N   0  0  0  0  0  0  0  0  0  0  0  0
   26.1830   17.7340   14.2920 C   0  0  2  0  0  0  0  0  0  0  0  0
   26.0000   17.5380   15.7940 C   0  0  0  0  0  0  0  0  0  0  0  0
   26.9120   18.5020   16.5390 C   0  0  0  0  0  0  0  0  0  0  0  0
   26.6530   19.9330   16.1270 C   0  0  0  0  0  0  0  0  0  0  0  0
   26.8700   20.8810   16.8770 O   0  0  0  0  0  0  0  0  0  0  0  0
   26.2180   20.1360   14.8410 N   0  0  0  0  0  0  0  0  0  0  0  0
   25.8710   19.1840   13.9070 C   0  0  0  0  0  0  0  0  0  0  0  0
   25.3970   19.5180   12.8230 O   0  0  0  0  0  0  0  0  0  0  0  0
   24.5370   15.9050   14.0010 C   0  0  0  0  0  0  0  0  0  0  0  0
   24.2230   15.7260   15.1610 O   0  0  0  0  0  0  0  0  0  0  0  0
   21.2300   15.4280    9.2240 C   0  0  0  0  0  0  0  0  0  0  0  0
   20.0890   16.0700    9.3630 N   0  0  0  0  0  0  0  0  0  0  0  0
   18.8815   19.2845    8.7111 H   0  0  0  0  0  0  0  0  0  0  0  0
   19.7359   18.9616    7.1643 H   0  0  0  0  0  0  0  0  0  0  0  0
   17.9682   19.2812    7.1643 H   0  0  0  0  0  0  0  0  0  0  0  0
   17.8590   17.1816    8.7417 H   0  0  0  0  0  0  0  0  0  0  0  0
   18.0685   16.9656    6.9500 H   0  0  0  0  0  0  0  0  0  0  0  0
   20.7726   16.3884    6.1154 H   0  0  0  0  0  0  0  0  0  0  0  0
   26.9145   16.3636    9.8631 H   0  0  0  0  0  0  0  0  0  0  0  0
   23.2275   13.4539    9.5027 H   0  0  0  0  0  0  0  0  0  0  0  0
   22.1533   12.6225   11.5957 H   0  0  0  0  0  0  0  0  0  0  0  0
   22.6790   13.6965   13.8071 H   0  0  0  0  0  0  0  0  0  0  0  0
   27.2361   17.4899   14.0885 H   0  0  0  0  0  0  0  0  0  0  0  0
   24.9530   17.7373   16.0662 H   0  0  0  0  0  0  0  0  0  0  0  0
   26.2553   16.5031   16.0656 H   0  0  0  0  0  0  0  0  0  0  0  0
   26.7325   18.4022   17.6197 H   0  0  0  0  0  0  0  0  0  0  0  0
   27.9549   18.2534   16.2930 H   0  0  0  0  0  0  0  0  0  0  0  0
   26.1418   21.1174   14.5378 H   0  0  0  0  0  0  0  0  0  0  0  0
   21.7546   14.9002   10.0341 H   0  0  0  0  0  0  0  0  0  0  0  0
  1  2  1  0
  2  3  1  0
  3  4  2  0
  4  5  1  0
  5  6  1  0
  6  7  2  0
  6  8  2  0
  6  9  1  0
  9 10  1  0
 10 11  1  0
 11 12  2  0
 12 13  1  0
 13 14  1  0
 14 15  2  0
 15 16  1  0
 16 17  2  0
 17 18  1  0
 18 19  2  0
 19 20  1  0
 20 21  2  0
 20 22  1  0
 22 23  1  0
 23 24  1  0
 24 25  1  0
 25 26  1  0
 26 27  2  0
 26 28  1  0
 28 29  1  0
 29 30  2  0
 22 31  1  0
 31 32  2  0
  5 33  1  0
 33 34  2  0
 34  3  1  0
 13  9  2  0
 19 14  1  0
 29 23  1  0
 31 18  1  0
  1 35  1  0
  1 36  1  0
  1 37  1  0
  2 38  1  0
  2 39  1  0
  4 40  1  0
 12 41  1  0
 15 42  1  0
 16 43  1  0
 17 44  1  0
 23 45  1  1
 24 46  1  0
 24 47  1  0
 25 48  1  0
 25 49  1  0
 28 50  1  0
 33 51  1  0
M  END
>  <meeko>  (1341) 
{"is_sidechain": [true], "free_energy": -10.1, "intermolecular_energy": 0.0, "internal_energy": -10.1, "cluster_size": 13, "cluster_id": 1, "rank_in_cluster": 1}

>  <_RMSD_MCS_to_ref>  (1341) 
1.9618878804752211

$$$$
ligand
     RDKit          3D

 58 62  0  0  0  0  0  0  0  0999 V2000
   18.7970   18.8170    7.7190 C   0  0  0  0  0  0  0  0  0  0  0  0
   18.5280   17.3290    7.8810 C   0  0  0  0  0  0  0  0  0  0  0  0
   19.7840   16.5370    7.9710 C   0  0  0  0  0  0  0  0  0  0  0  0
   20.7530   16.5570    8.9550 C   0  0  0  0  0  0  0  0  0  0  0  0
   21.6680   15.6340    8.5430 N   0  0  0  0  0  0  0  0  0  0  0  0
   23.0170   15.0960    9.3880 S   0  0  0  0  0  6  0  0  0  0  0  0
   23.4420   16.1790   10.2510 O   0  0  0  0  0  0  0  0  0  0  0  0
   23.8850   14.5520    8.3610 O   0  0  0  0  0  0  0  0  0  0  0  0
   22.4200   13.7530   10.3980 C   0  0  0  0  0  0  0  0  0  0  0  0
   21.4840   12.8970    9.7960 C   0  0  0  0  0  0  0  0  0  0  0  0
   20.9130   11.8580   10.5210 C   0  0  0  0  0  0  0  0  0  0  0  0
   21.2670   11.6570   11.8580 C   0  0  0  0  0  0  0  0  0  0  0  0
   22.2050   12.5140   12.4720 C   0  0  0  0  0  0  0  0  0  0  0  0
   22.8160   13.5540   11.7370 C   0  0  0  0  0  0  0  0  0  0  0  0
   23.8380   14.3490   12.4280 C   0  0  0  0  0  0  0  0  0  0  0  0
   24.1000   14.2200   13.7390 C   0  0  0  0  0  0  0  0  0  0  0  0
   25.1380   15.1370   14.3120 C   0  0  0  0  0  0  0  0  0  0  0  0
   26.1530   14.7050   14.8580 O   0  0  0  0  0  0  0  0  0  0  0  0
   24.9040   16.4790   14.1840 N   0  0  0  0  0  0  0  0  0  0  0  0
   25.8610   17.4810   14.6260 C   0  0  2  0  0  0  0  0  0  0  0  0
   25.9090   17.5730   16.1490 C   0  0  0  0  0  0  0  0  0  0  0  0
   26.9170   18.6320   16.5630 C   0  0  0  0  0  0  0  0  0  0  0  0
   26.6000   19.9670   15.9330 C   0  0  0  0  0  0  0  0  0  0  0  0
   26.8410   21.0330   16.4920 O   0  0  0  0  0  0  0  0  0  0  0  0
   26.0550   19.9390   14.6750 N   0  0  0  0  0  0  0  0  0  0  0  0
   25.4910   18.8520   14.0500 C   0  0  0  0  0  0  0  0  0  0  0  0
   24.7600   19.0020   13.0730 O   0  0  0  0  0  0  0  0  0  0  0  0
   23.3790   13.1940   14.5360 C   0  0  0  0  0  0  0  0  0  0  0  0
   23.5670   13.1160   15.7510 O   0  0  0  0  0  0  0  0  0  0  0  0
   22.5290   12.3360   13.8490 N   0  0  0  0  0  0  0  0  0  0  0  0
   21.8150   11.3260   14.6250 C   0  0  0  0  0  0  0  0  0  0  0  0
   21.4400   10.1090   13.8000 C   0  0  0  0  0  0  0  0  0  0  0  0
   20.5950   10.5450   12.6190 C   0  0  0  0  0  0  0  0  0  0  0  0
   21.2670   15.1070    7.3560 C   0  0  0  0  0  0  0  0  0  0  0  0
   20.1150   15.6240    6.9870 N   0  0  0  0  0  0  0  0  0  0  0  0
   18.8815   19.2845    8.7111 H   0  0  0  0  0  0  0  0  0  0  0  0
   19.7359   18.9616    7.1643 H   0  0  0  0  0  0  0  0  0  0  0  0
   17.9682   19.2812    7.1643 H   0  0  0  0  0  0  0  0  0  0  0  0
   17.9441   17.1727    8.8000 H   0  0  0  0  0  0  0  0  0  0  0  0
   17.9763   16.9871    6.9929 H   0  0  0  0  0  0  0  0  0  0  0  0
   20.7803   17.1763    9.8637 H   0  0  0  0  0  0  0  0  0  0  0  0
   21.2009   13.0497    8.7441 H   0  0  0  0  0  0  0  0  0  0  0  0
   20.1805   11.1921   10.0414 H   0  0  0  0  0  0  0  0  0  0  0  0
   24.4150   15.0831   11.8464 H   0  0  0  0  0  0  0  0  0  0  0  0
   24.0188   16.7906   13.7596 H   0  0  0  0  0  0  0  0  0  0  0  0
   26.8536   17.1768   14.2625 H   0  0  0  0  0  0  0  0  0  0  0  0
   24.9140   17.8451   16.5311 H   0  0  0  0  0  0  0  0  0  0  0  0
   26.2091   16.5999   16.5650 H   0  0  0  0  0  0  0  0  0  0  0  0
   26.8959   18.7383   17.6576 H   0  0  0  0  0  0  0  0  0  0  0  0
   27.9136   18.3150   16.2220 H   0  0  0  0  0  0  0  0  0  0  0  0
   26.0696   20.8218   14.1445 H   0  0  0  0  0  0  0  0  0  0  0  0
   22.4577   11.0024   15.4570 H   0  0  0  0  0  0  0  0  0  0  0  0
   20.8815   11.7831   14.9852 H   0  0  0  0  0  0  0  0  0  0  0  0
   22.3536    9.6161   13.4361 H   0  0  0  0  0  0  0  0  0  0  0  0
   20.8684    9.4043   14.4218 H   0  0  0  0  0  0  0  0  0  0  0  0
   20.4462    9.6873   11.9466 H   0  0  0  0  0  0  0  0  0  0  0  0
   19.6283   10.9111   12.9950 H   0  0  0  0  0  0  0  0  0  0  0  0
   21.8276   14.3532    6.7837 H   0  0  0  0  0  0  0  0  0  0  0  0
  1  2  1  0
  2  3  1  0
  3  4  2  0
  4  5  1  0
  5  6  1  0
  6  7  2  0
  6  8  2  0
  6  9  1  0
  9 10  2  0
 10 11  1  0
 11 12  2  0
 12 13  1  0
 13 14  2  0
 14 15  1  0
 15 16  2  0
 16 17  1  0
 17 18  2  0
 17 19  1  0
 19 20  1  0
 20 21  1  0
 21 22  1  0
 22 23  1  0
 23 24  2  0
 23 25  1  0
 25 26  1  0
 26 27  2  0
 16 28  1  0
 28 29  2  0
 28 30  1  0
 30 31  1  0
 31 32  1  0
 32 33  1  0
  5 34  1  0
 34 35  2  0
 35  3  1  0
 14  9  1  0
 26 20  1  0
 33 12  1  0
 30 13  1  0
  1 36  1  0
  1 37  1  0
  1 38  1  0
  2 39  1  0
  2 40  1  0
  4 41  1  0
 10 42  1  0
 11 43  1  0
 15 44  1  0
 19 45  1  0
 20 46  1  6
 21 47  1  0
 21 48  1  0
 22 49  1  0
 22 50  1  0
 25 51  1  0
 31 52  1  0
 31 53  1  0
 32 54  1  0
 32 55  1  0
 33 56  1  0
 33 57  1  0
 34 58  1  0
M  END
>  <meeko>  (1342) 
{"is_sidechain": [true], "free_energy": -10.1, "intermolecular_energy": 0.0, "internal_energy": -10.1, "cluster_size": 17, "cluster_id": 1, "rank_in_cluster": 1}

>  <_RMSD_MCS_to_ref>  (1342) 
0.9356752760558668

$$$$
ligand
     RDKit          3D

 47 50  0  0  0  0  0  0  0  0999 V2000
   18.7970   18.8170    7.7190 C   0  0  0  0  0  0  0  0  0  0  0  0
   18.5280   17.3290    7.8810 C   0  0  0  0  0  0  0  0  0  0  0  0
   19.6180   16.4960    7.3040 C   0  0  0  0  0  0  0  0  0  0  0  0
   20.7540   16.0050    7.9180 C   0  0  0  0  0  0  0  0  0  0  0  0
   21.3860   15.2970    6.9350 N   0  0  0  0  0  0  0  0  0  0  0  0
   22.8990   14.5920    7.0440 S   0  0  0  0  0  6  0  0  0  0  0  0
   23.8300   15.5060    6.4110 O   0  0  0  0  0  0  0  0  0  0  0  0
   22.7460   13.2090    6.6370 O   0  0  0  0  0  0  0  0  0  0  0  0
   23.3870   14.5270    8.7010 C   0  0  0  0  0  0  0  0  0  0  0  0
   24.0410   15.5280    9.3880 C   0  0  0  0  0  0  0  0  0  0  0  0
   24.2110   15.0460   10.6540 N   0  0  0  0  0  0  0  0  0  0  0  0
   24.8170   15.7170   11.6700 N   0  0  0  0  0  0  0  0  0  0  0  0
   24.8470   15.0300   12.7780 C   0  0  0  0  0  0  0  0  0  0  0  0
   25.5050   15.6750   14.0040 C   0  0  0  0  0  0  0  0  0  0  0  0
   25.7710   15.0120   14.9940 O   0  0  0  0  0  0  0  0  0  0  0  0
   25.7570   17.0160   13.8550 N   0  0  0  0  0  0  0  0  0  0  0  0
   26.5360   17.7720   14.8190 C   0  0  2  0  0  0  0  0  0  0  0  0
   25.9460   17.6880   16.2230 C   0  0  0  0  0  0  0  0  0  0  0  0
   26.7870   18.5220   17.1780 C   0  0  0  0  0  0  0  0  0  0  0  0
   26.9040   19.9510   16.7030 C   0  0  0  0  0  0  0  0  0  0  0  0
   26.9820   20.8970   17.4790 O   0  0  0  0  0  0  0  0  0  0  0  0
   26.9550   20.1440   15.3460 N   0  0  0  0  0  0  0  0  0  0  0  0
   26.5850   19.2400   14.3810 C   0  0  0  0  0  0  0  0  0  0  0  0
   26.3300   19.6050   13.2340 O   0  0  0  0  0  0  0  0  0  0  0  0
   24.2960   13.6590   12.9690 C   0  0  0  0  0  0  0  0  0  0  0  0
   23.7160   13.0770   11.9110 C   0  0  0  0  0  0  0  0  0  0  0  0
   23.6560   13.7770   10.6860 C   0  0  0  0  0  0  0  0  0  0  0  0
   23.1490   13.4380    9.5190 N   0  0  0  0  0  0  0  0  0  0  0  0
   20.6860   15.4210    5.7780 C   0  0  0  0  0  0  0  0  0  0  0  0
   19.5890   16.1230    5.9740 N   0  0  0  0  0  0  0  0  0  0  0  0
   18.8815   19.2845    8.7111 H   0  0  0  0  0  0  0  0  0  0  0  0
   19.7359   18.9616    7.1643 H   0  0  0  0  0  0  0  0  0  0  0  0
   17.9682   19.2812    7.1643 H   0  0  0  0  0  0  0  0  0  0  0  0
   18.4364   17.1000    8.9530 H   0  0  0  0  0  0  0  0  0  0  0  0
   17.5994   17.0923    7.3410 H   0  0  0  0  0  0  0  0  0  0  0  0
   21.0760   16.1507    8.9597 H   0  0  0  0  0  0  0  0  0  0  0  0
   24.3582   16.5067    8.9988 H   0  0  0  0  0  0  0  0  0  0  0  0
   25.3799   17.5034   13.0297 H   0  0  0  0  0  0  0  0  0  0  0  0
   27.5466   17.3390   14.8522 H   0  0  0  0  0  0  0  0  0  0  0  0
   24.9154   18.0722   16.2111 H   0  0  0  0  0  0  0  0  0  0  0  0
   25.9431   16.6400   16.5571 H   0  0  0  0  0  0  0  0  0  0  0  0
   26.3158   18.5124   18.1719 H   0  0  0  0  0  0  0  0  0  0  0  0
   27.7965   18.0872   17.2211 H   0  0  0  0  0  0  0  0  0  0  0  0
   27.3049   21.0559   15.0190 H   0  0  0  0  0  0  0  0  0  0  0  0
   24.3627   13.1455   13.9395 H   0  0  0  0  0  0  0  0  0  0  0  0
   23.2915   12.0657   11.9954 H   0  0  0  0  0  0  0  0  0  0  0  0
   20.9925   14.9945    4.8115 H   0  0  0  0  0  0  0  0  0  0  0  0
  1  2  1  0
  2  3  1  0
  3  4  2  0
  4  5  1  0
  5  6  1  0
  6  7  2  0
  6  8  2  0
  6  9  1  0
  9 10  2  0
 10 11  1  0
 11 12  1  0
 12 13  2  0
 13 14  1  0
 14 15  2  0
 14 16  1  0
 16 17  1  0
 17 18  1  0
 18 19  1  0
 19 20  1  0
 20 21  2  0
 20 22  1  0
 22 23  1  0
 23 24  2  0
 13 25  1  0
 25 26  2  0
 26 27  1  0
 27 28  2  0
  5 29  1  0
 29 30  2  0
 30  3  1  0
 28  9  1  0
 27 11  1  0
 23 17  1  0
  1 31  1  0
  1 32  1  0
  1 33  1  0
  2 34  1  0
  2 35  1  0
  4 36  1  0
 10 37  1  0
 16 38  1  0
 17 39  1  1
 18 40  1  0
 18 41  1  0
 19 42  1  0
 19 43  1  0
 22 44  1  0
 25 45  1  0
 26 46  1  0
 29 47  1  0
M  END
>  <meeko>  (1343) 
{"is_sidechain": [true], "free_energy": -10.1, "intermolecular_energy": 0.0, "internal_energy": -10.1, "cluster_size": 13, "cluster_id": 1, "rank_in_cluster": 1}

>  <_RMSD_MCS_to_ref>  (1343) 
1.0051855550096211

$$$$
ligand
     RDKit          3D

 47 50  0  0  0  0  0  0  0  0999 V2000
   18.7970   18.8170    7.7190 C   0  0  0  0  0  0  0  0  0  0  0  0
   18.5280   17.3290    7.8810 C   0  0  0  0  0  0  0  0  0  0  0  0
   19.7790   16.5530    8.1030 C   0  0  0  0  0  0  0  0  0  0  0  0
   20.1410   15.7760    9.1860 C   0  0  0  0  0  0  0  0  0  0  0  0
   21.3650   15.2720    8.8450 N   0  0  0  0  0  0  0  0  0  0  0  0
   22.4350   14.4960    9.9020 S   0  0  0  0  0  6  0  0  0  0  0  0
   22.3630   15.3250   11.0920 O   0  0  0  0  0  0  0  0  0  0  0  0
   21.9550   13.1260    9.9040 O   0  0  0  0  0  0  0  0  0  0  0  0
   24.0260   14.5490    9.2460 C   0  0  0  0  0  0  0  0  0  0  0  0
   24.3660   13.8510    8.1480 C   0  0  0  0  0  0  0  0  0  0  0  0
   25.7800   14.0050    7.7140 C   0  0  0  0  0  0  0  0  0  0  0  0
   26.6800   14.7370    8.2950 N   0  0  0  0  0  0  0  0  0  0  0  0
   26.2750   15.4160    9.4070 C   0  0  0  0  0  0  0  0  0  0  0  0
   26.9560   16.2640   10.2460 C   0  0  0  0  0  0  0  0  0  0  0  0
   26.0240   16.6630   11.2260 C   0  0  0  0  0  0  0  0  0  0  0  0
   26.2660   17.5740   12.3540 C   0  0  0  0  0  0  0  0  0  0  0  0
   27.2800   18.2600   12.4540 O   0  0  0  0  0  0  0  0  0  0  0  0
   25.2580   17.5810   13.2870 N   0  0  0  0  0  0  0  0  0  0  0  0
   25.3560   18.3040   14.5390 C   0  0  1  0  0  0  0  0  0  0  0  0
   26.4030   17.6940   15.4650 C   0  0  0  0  0  0  0  0  0  0  0  0
   26.4750   18.4980   16.7540 C   0  0  0  0  0  0  0  0  0  0  0  0
   26.7570   19.9550   16.4750 C   0  0  0  0  0  0  0  0  0  0  0  0
   27.4050   20.6590   17.2450 O   0  0  0  0  0  0  0  0  0  0  0  0
   26.2190   20.4760   15.3260 N   0  0  0  0  0  0  0  0  0  0  0  0
   25.7230   19.7650   14.2590 C   0  0  0  0  0  0  0  0  0  0  0  0
   25.5680   20.3010   13.1640 O   0  0  0  0  0  0  0  0  0  0  0  0
   24.8220   16.0950   11.0180 N   0  0  0  0  0  0  0  0  0  0  0  0
   24.9660   15.3370    9.9010 N   0  0  0  0  0  0  0  0  0  0  0  0
   21.7260   15.7670    7.6310 C   0  0  0  0  0  0  0  0  0  0  0  0
   20.7880   16.5610    7.1600 N   0  0  0  0  0  0  0  0  0  0  0  0
   18.8815   19.2845    8.7111 H   0  0  0  0  0  0  0  0  0  0  0  0
   19.7359   18.9616    7.1643 H   0  0  0  0  0  0  0  0  0  0  0  0
   17.9682   19.2812    7.1643 H   0  0  0  0  0  0  0  0  0  0  0  0
   17.8615   17.1812    8.7435 H   0  0  0  0  0  0  0  0  0  0  0  0
   18.0655   16.9659    6.9513 H   0  0  0  0  0  0  0  0  0  0  0  0
   19.5735   15.6023   10.1121 H   0  0  0  0  0  0  0  0  0  0  0  0
   23.6500   13.2124    7.6099 H   0  0  0  0  0  0  0  0  0  0  0  0
   26.0914   13.4473    6.8185 H   0  0  0  0  0  0  0  0  0  0  0  0
   28.0102   16.5687   10.1693 H   0  0  0  0  0  0  0  0  0  0  0  0
   24.3975   17.0508   13.0887 H   0  0  0  0  0  0  0  0  0  0  0  0
   24.3785   18.2418   15.0395 H   0  0  0  0  0  0  0  0  0  0  0  0
   26.1259   16.6550   15.6967 H   0  0  0  0  0  0  0  0  0  0  0  0
   27.3844   17.7115   14.9684 H   0  0  0  0  0  0  0  0  0  0  0  0
   25.5145   18.4136   17.2834 H   0  0  0  0  0  0  0  0  0  0  0  0
   27.2940   18.0967   17.3690 H   0  0  0  0  0  0  0  0  0  0  0  0
   26.1830   21.5029   15.2554 H   0  0  0  0  0  0  0  0  0  0  0  0
   22.6696   15.5362    7.1150 H   0  0  0  0  0  0  0  0  0  0  0  0
  1  2  1  0
  2  3  1  0
  3  4  2  0
  4  5  1  0
  5  6  1  0
  6  7  2  0
  6  8  2  0
  6  9  1  0
  9 10  2  0
 10 11  1  0
 11 12  2  0
 12 13  1  0
 13 14  2  0
 14 15  1  0
 15 16  1  0
 16 17  2  0
 16 18  1  0
 18 19  1  0
 19 20  1  0
 20 21  1  0
 21 22  1  0
 22 23  2  0
 22 24  1  0
 24 25  1  0
 25 26  2  0
 15 27  2  0
 27 28  1  0
  5 29  1  0
 29 30  2  0
 30  3  1  0
 28  9  1  0
 28 13  1  0
 25 19  1  0
  1 31  1  0
  1 32  1  0
  1 33  1  0
  2 34  1  0
  2 35  1  0
  4 36  1  0
 10 37  1  0
 11 38  1  0
 14 39  1  0
 18 40  1  0
 19 41  1  1
 20 42  1  0
 20 43  1  0
 21 44  1  0
 21 45  1  0
 24 46  1  0
 29 47  1  0
M  END
>  <meeko>  (1344) 
{"is_sidechain": [true], "free_energy": -10.1, "intermolecular_energy": 0.0, "internal_energy": -10.1, "cluster_size": 3, "cluster_id": 1, "rank_in_cluster": 1}

>  <_RMSD_MCS_to_ref>  (1344) 
0.5114443599584738

$$$$
ligand
     RDKit          3D

 50 53  0  0  0  0  0  0  0  0999 V2000
   18.7970   18.8170    7.7190 C   0  0  0  0  0  0  0  0  0  0  0  0
   18.5280   17.3290    7.8810 C   0  0  0  0  0  0  0  0  0  0  0  0
   19.7840   16.5310    7.8880 C   0  0  0  0  0  0  0  0  0  0  0  0
   20.0750   15.3760    8.5860 C   0  0  0  0  0  0  0  0  0  0  0  0
   21.3560   15.0750    8.2160 N   0  0  0  0  0  0  0  0  0  0  0  0
   22.2800   13.8130    8.8290 S   0  0  0  0  0  6  0  0  0  0  0  0
   21.3020   12.8500    9.3040 O   0  0  0  0  0  0  0  0  0  0  0  0
   23.2580   13.4750    7.8140 O   0  0  0  0  0  0  0  0  0  0  0  0
   23.1220   14.4590   10.2330 C   0  0  0  0  0  0  0  0  0  0  0  0
   22.5370   14.3560   11.5000 C   0  0  0  0  0  0  0  0  0  0  0  0
   23.1990   14.8730   12.6290 C   0  0  0  0  0  0  0  0  0  0  0  0
   24.4510   15.4980   12.5020 C   0  0  0  0  0  0  0  0  0  0  0  0
   25.1790   16.0220   13.6900 C   0  0  0  0  0  0  0  0  0  0  0  0
   25.5150   15.2770   14.6020 O   0  0  0  0  0  0  0  0  0  0  0  0
   25.4710   17.3680   13.6810 N   0  0  0  0  0  0  0  0  0  0  0  0
   26.3100   17.9640   14.7130 C   0  0  2  0  0  0  0  0  0  0  0  0
   25.7100   17.8060   16.1070 C   0  0  0  0  0  0  0  0  0  0  0  0
   26.6120   18.4860   17.1260 C   0  0  0  0  0  0  0  0  0  0  0  0
   26.8450   19.9360   16.7730 C   0  0  0  0  0  0  0  0  0  0  0  0
   26.9850   20.8070   17.6250 O   0  0  0  0  0  0  0  0  0  0  0  0
   26.9250   20.2380   15.4370 N   0  0  0  0  0  0  0  0  0  0  0  0
   26.4710   19.4550   14.4050 C   0  0  0  0  0  0  0  0  0  0  0  0
   26.2260   19.9350   13.2980 O   0  0  0  0  0  0  0  0  0  0  0  0
   25.0160   15.5830   11.2330 C   0  0  0  0  0  0  0  0  0  0  0  0
   24.3550   15.0700   10.1210 C   0  0  0  0  0  0  0  0  0  0  0  0
   25.0660   15.2140    8.9600 O   0  0  0  0  0  0  0  0  0  0  0  0
   26.1200   16.1440    9.2990 C   0  0  0  0  0  0  0  0  0  0  0  0
   26.3370   16.1090   10.8080 C   0  0  0  0  0  0  0  0  0  0  0  0
   21.8030   16.0200    7.3490 C   0  0  0  0  0  0  0  0  0  0  0  0
   20.8670   16.9210    7.1260 N   0  0  0  0  0  0  0  0  0  0  0  0
   18.8815   19.2845    8.7111 H   0  0  0  0  0  0  0  0  0  0  0  0
   19.7359   18.9616    7.1643 H   0  0  0  0  0  0  0  0  0  0  0  0
   17.9682   19.2812    7.1643 H   0  0  0  0  0  0  0  0  0  0  0  0
   17.9986   17.1656    8.8313 H   0  0  0  0  0  0  0  0  0  0  0  0
   17.9216   16.9990    7.0246 H   0  0  0  0  0  0  0  0  0  0  0  0
   19.4248   14.8242    9.2809 H   0  0  0  0  0  0  0  0  0  0  0  0
   21.5570   13.8696   11.6137 H   0  0  0  0  0  0  0  0  0  0  0  0
   22.7316   14.7870   13.6210 H   0  0  0  0  0  0  0  0  0  0  0  0
   25.0899   17.9636   12.9321 H   0  0  0  0  0  0  0  0  0  0  0  0
   27.2802   17.4457   14.7081 H   0  0  0  0  0  0  0  0  0  0  0  0
   24.7130   18.2701   16.1321 H   0  0  0  0  0  0  0  0  0  0  0  0
   25.6223   16.7368   16.3500 H   0  0  0  0  0  0  0  0  0  0  0  0
   26.1382   18.4304   18.1172 H   0  0  0  0  0  0  0  0  0  0  0  0
   27.5832   17.9694   17.1287 H   0  0  0  0  0  0  0  0  0  0  0  0
   27.3660   21.1342   15.1854 H   0  0  0  0  0  0  0  0  0  0  0  0
   27.0484   15.8546    8.7848 H   0  0  0  0  0  0  0  0  0  0  0  0
   25.8387   17.1598    8.9845 H   0  0  0  0  0  0  0  0  0  0  0  0
   27.1577   15.4327   11.0890 H   0  0  0  0  0  0  0  0  0  0  0  0
   26.6272   17.0681   11.2618 H   0  0  0  0  0  0  0  0  0  0  0  0
   22.8055   16.0319    6.8964 H   0  0  0  0  0  0  0  0  0  0  0  0
  1  2  1  0
  2  3  1  0
  3  4  2  0
  4  5  1  0
  5  6  1  0
  6  7  2  0
  6  8  2  0
  6  9  1  0
  9 10  2  0
 10 11  1  0
 11 12  2  0
 12 13  1  0
 13 14  2  0
 13 15  1  0
 15 16  1  0
 16 17  1  0
 17 18  1  0
 18 19  1  0
 19 20  2  0
 19 21  1  0
 21 22  1  0
 22 23  2  0
 12 24  1  0
 24 25  2  0
 25 26  1  0
 26 27  1  0
 27 28  1  0
  5 29  1  0
 29 30  2  0
 30  3  1  0
 25  9  1  0
 22 16  1  0
 28 24  1  0
  1 31  1  0
  1 32  1  0
  1 33  1  0
  2 34  1  0
  2 35  1  0
  4 36  1  0
 10 37  1  0
 11 38  1  0
 15 39  1  0
 16 40  1  1
 17 41  1  0
 17 42  1  0
 18 43  1  0
 18 44  1  0
 21 45  1  0
 27 46  1  0
 27 47  1  0
 28 48  1  0
 28 49  1  0
 29 50  1  0
M  END
>  <meeko>  (1345) 
{"is_sidechain": [true], "free_energy": -10.1, "intermolecular_energy": 0.0, "internal_energy": -10.1, "cluster_size": 18, "cluster_id": 1, "rank_in_cluster": 1}

>  <_RMSD_MCS_to_ref>  (1345) 
0.8701815902442428

$$$$
ligand
     RDKit          3D

 49 52  0  0  0  0  0  0  0  0999 V2000
   18.7970   18.8170    7.7190 C   0  0  0  0  0  0  0  0  0  0  0  0
   18.5280   17.3290    7.8810 C   0  0  0  0  0  0  0  0  0  0  0  0
   19.7730   16.5590    8.1530 C   0  0  0  0  0  0  0  0  0  0  0  0
   20.7330   16.1170    7.2650 C   0  0  0  0  0  0  0  0  0  0  0  0
   21.6570   15.4930    8.0540 N   0  0  0  0  0  0  0  0  0  0  0  0
   22.9590   14.5820    7.5150 S   0  0  0  0  0  6  0  0  0  0  0  0
   22.4280   13.7350    6.4670 O   0  0  0  0  0  0  0  0  0  0  0  0
   24.0280   15.5320    7.2840 O   0  0  0  0  0  0  0  0  0  0  0  0
   23.4780   13.5190    8.8360 C   0  0  0  0  0  0  0  0  0  0  0  0
   23.3630   12.1290    8.7280 C   0  0  0  0  0  0  0  0  0  0  0  0
   23.7800   11.3300    9.7860 C   0  0  0  0  0  0  0  0  0  0  0  0
   24.3060   11.9190   10.9380 C   0  0  0  0  0  0  0  0  0  0  0  0
   24.4320   13.2940   11.0720 C   0  0  0  0  0  0  0  0  0  0  0  0
   24.9460   13.7620   12.2110 N   0  0  0  0  0  0  0  0  0  0  0  0
   25.0620   15.0950   12.3300 C   0  0  0  0  0  0  0  0  0  0  0  0
   25.6480   15.6410   13.6110 C   0  0  0  0  0  0  0  0  0  0  0  0
   25.9340   14.9310   14.5700 O   0  0  0  0  0  0  0  0  0  0  0  0
   25.8500   17.0120   13.6190 N   0  0  0  0  0  0  0  0  0  0  0  0
   26.5540   17.6830   14.6960 C   0  0  2  0  0  0  0  0  0  0  0  0
   25.7760   17.6310   16.0080 C   0  0  0  0  0  0  0  0  0  0  0  0
   26.5520   18.3660   17.0890 C   0  0  0  0  0  0  0  0  0  0  0  0
   26.8570   19.7860   16.6740 C   0  0  0  0  0  0  0  0  0  0  0  0
   26.9110   20.7110   17.4810 O   0  0  0  0  0  0  0  0  0  0  0  0
   27.1090   19.9970   15.3430 N   0  0  0  0  0  0  0  0  0  0  0  0
   26.7840   19.1490   14.3120 C   0  0  0  0  0  0  0  0  0  0  0  0
   26.7060   19.5610   13.1550 O   0  0  0  0  0  0  0  0  0  0  0  0
   24.7040   16.0010   11.3980 N   0  0  0  0  0  0  0  0  0  0  0  0
   24.1910   15.4860   10.2640 C   0  0  0  0  0  0  0  0  0  0  0  0
   24.0160   14.1170   10.0150 C   0  0  0  0  0  0  0  0  0  0  0  0
   21.2450   15.5410    9.3470 C   0  0  0  0  0  0  0  0  0  0  0  0
   20.0950   16.1760    9.4400 N   0  0  0  0  0  0  0  0  0  0  0  0
   18.8815   19.2845    8.7111 H   0  0  0  0  0  0  0  0  0  0  0  0
   19.7359   18.9616    7.1643 H   0  0  0  0  0  0  0  0  0  0  0  0
   17.9682   19.2812    7.1643 H   0  0  0  0  0  0  0  0  0  0  0  0
   17.8314   17.1842    8.7199 H   0  0  0  0  0  0  0  0  0  0  0  0
   18.1008   16.9583    6.9376 H   0  0  0  0  0  0  0  0  0  0  0  0
   20.7500   16.2393    6.1720 H   0  0  0  0  0  0  0  0  0  0  0  0
   22.9476   11.6739    7.8168 H   0  0  0  0  0  0  0  0  0  0  0  0
   23.6959   10.2354    9.7162 H   0  0  0  0  0  0  0  0  0  0  0  0
   24.6309   11.2716   11.7659 H   0  0  0  0  0  0  0  0  0  0  0  0
   25.4885   17.5732   12.8346 H   0  0  0  0  0  0  0  0  0  0  0  0
   27.5110   17.1620   14.8467 H   0  0  0  0  0  0  0  0  0  0  0  0
   24.7951   18.1098   15.8715 H   0  0  0  0  0  0  0  0  0  0  0  0
   25.6345   16.5822   16.3081 H   0  0  0  0  0  0  0  0  0  0  0  0
   25.9534   18.3827   18.0117 H   0  0  0  0  0  0  0  0  0  0  0  0
   27.5037   17.8394   17.2531 H   0  0  0  0  0  0  0  0  0  0  0  0
   27.5872   20.8741   15.0922 H   0  0  0  0  0  0  0  0  0  0  0  0
   23.8872   16.1906    9.4758 H   0  0  0  0  0  0  0  0  0  0  0  0
   21.7944   15.1102   10.1970 H   0  0  0  0  0  0  0  0  0  0  0  0
  1  2  1  0
  2  3  1  0
  3  4  2  0
  4  5  1  0
  5  6  1  0
  6  7  2  0
  6  8  2  0
  6  9  1  0
  9 10  2  0
 10 11  1  0
 11 12  2  0
 12 13  1  0
 13 14  2  0
 14 15  1  0
 15 16  1  0
 16 17  2  0
 16 18  1  0
 18 19  1  0
 19 20  1  0
 20 21  1  0
 21 22  1  0
 22 23  2  0
 22 24  1  0
 24 25  1  0
 25 26  2  0
 15 27  2  0
 27 28  1  0
 28 29  2  0
  5 30  1  0
 30 31  2  0
 31  3  1  0
 29  9  1  0
 29 13  1  0
 25 19  1  0
  1 32  1  0
  1 33  1  0
  1 34  1  0
  2 35  1  0
  2 36  1  0
  4 37  1  0
 10 38  1  0
 11 39  1  0
 12 40  1  0
 18 41  1  0
 19 42  1  1
 20 43  1  0
 20 44  1  0
 21 45  1  0
 21 46  1  0
 24 47  1  0
 28 48  1  0
 30 49  1  0
M  END
>  <meeko>  (1346) 
{"is_sidechain": [true], "free_energy": -10.1, "intermolecular_energy": 0.0, "internal_energy": -10.1, "cluster_size": 17, "cluster_id": 1, "rank_in_cluster": 1}

>  <_RMSD_MCS_to_ref>  (1346) 
1.1491006628373914

$$$$
ligand
     RDKit          3D

 48 51  0  0  0  0  0  0  0  0999 V2000
   18.7970   18.8170    7.7190 C   0  0  0  0  0  0  0  0  0  0  0  0
   18.5280   17.3290    7.8810 C   0  0  0  0  0  0  0  0  0  0  0  0
   19.7830   16.5490    8.0680 C   0  0  0  0  0  0  0  0  0  0  0  0
   20.4330   16.2180    9.2400 C   0  0  0  0  0  0  0  0  0  0  0  0
   21.5320   15.5180    8.8270 N   0  0  0  0  0  0  0  0  0  0  0  0
   22.5560   14.6160    9.8270 S   0  0  0  0  0  6  0  0  0  0  0  0
   23.5640   15.5860   10.2150 O   0  0  0  0  0  0  0  0  0  0  0  0
   22.8910   13.4670    9.0050 O   0  0  0  0  0  0  0  0  0  0  0  0
   21.6970   14.0890   11.2250 C   0  0  0  0  0  0  0  0  0  0  0  0
   20.7650   13.1220   11.1600 C   0  0  0  0  0  0  0  0  0  0  0  0
   20.0440   12.7060   12.3970 C   0  0  0  0  0  0  0  0  0  0  0  0
   19.1880   11.8320   12.3410 O   0  0  0  0  0  0  0  0  0  0  0  0
   20.3800   13.3400   13.5670 N   0  0  0  0  0  0  0  0  0  0  0  0
   21.3440   14.3230   13.5920 C   0  0  0  0  0  0  0  0  0  0  0  0
   21.8290   15.0790   14.6240 C   0  0  0  0  0  0  0  0  0  0  0  0
   22.8020   15.9130   14.0280 C   0  0  0  0  0  0  0  0  0  0  0  0
   23.6260   16.9260   14.7060 C   0  0  0  0  0  0  0  0  0  0  0  0
   23.1770   17.6830   15.5600 O   0  0  0  0  0  0  0  0  0  0  0  0
   24.9380   16.9380   14.2990 N   0  0  0  0  0  0  0  0  0  0  0  0
   25.9450   17.7670   14.9320 C   0  0  2  0  0  0  0  0  0  0  0  0
   25.8730   17.6820   16.4530 C   0  0  0  0  0  0  0  0  0  0  0  0
   26.9380   18.5800   17.0640 C   0  0  0  0  0  0  0  0  0  0  0  0
   26.8040   20.0020   16.5760 C   0  0  0  0  0  0  0  0  0  0  0  0
   27.0970   20.9680   17.2740 O   0  0  0  0  0  0  0  0  0  0  0  0
   26.3680   20.1700   15.2850 N   0  0  0  0  0  0  0  0  0  0  0  0
   25.7570   19.2240   14.4980 C   0  0  0  0  0  0  0  0  0  0  0  0
   25.1240   19.5520   13.4960 O   0  0  0  0  0  0  0  0  0  0  0  0
   22.9090   15.6780   12.7050 N   0  0  0  0  0  0  0  0  0  0  0  0
   22.0070   14.7030   12.4310 N   0  0  0  0  0  0  0  0  0  0  0  0
   21.5070   15.4090    7.4730 C   0  0  0  0  0  0  0  0  0  0  0  0
   20.4520   16.0240    6.9820 N   0  0  0  0  0  0  0  0  0  0  0  0
   18.8815   19.2845    8.7111 H   0  0  0  0  0  0  0  0  0  0  0  0
   19.7359   18.9616    7.1643 H   0  0  0  0  0  0  0  0  0  0  0  0
   17.9682   19.2812    7.1643 H   0  0  0  0  0  0  0  0  0  0  0  0
   17.8831   17.1789    8.7594 H   0  0  0  0  0  0  0  0  0  0  0  0
   18.0410   16.9712    6.9619 H   0  0  0  0  0  0  0  0  0  0  0  0
   20.1348   16.4618   10.2704 H   0  0  0  0  0  0  0  0  0  0  0  0
   20.5354   12.6399   10.1983 H   0  0  0  0  0  0  0  0  0  0  0  0
   19.9031   13.0761   14.4410 H   0  0  0  0  0  0  0  0  0  0  0  0
   21.5287   15.0453   15.6817 H   0  0  0  0  0  0  0  0  0  0  0  0
   25.2174   16.3340   13.5129 H   0  0  0  0  0  0  0  0  0  0  0  0
   26.9316   17.3977   14.6154 H   0  0  0  0  0  0  0  0  0  0  0  0
   24.8791   18.0099   16.7916 H   0  0  0  0  0  0  0  0  0  0  0  0
   26.0450   16.6428   16.7699 H   0  0  0  0  0  0  0  0  0  0  0  0
   26.8333   18.5658   18.1589 H   0  0  0  0  0  0  0  0  0  0  0  0
   27.9256   18.2014   16.7619 H   0  0  0  0  0  0  0  0  0  0  0  0
   26.5136   21.0987   14.8641 H   0  0  0  0  0  0  0  0  0  0  0  0
   22.2620   14.8812    6.8719 H   0  0  0  0  0  0  0  0  0  0  0  0
  1  2  1  0
  2  3  1  0
  3  4  2  0
  4  5  1  0
  5  6  1  0
  6  7  2  0
  6  8  2  0
  6  9  1  0
  9 10  2  0
 10 11  1  0
 11 12  2  0
 11 13  1  0
 13 14  1  0
 14 15  2  0
 15 16  1  0
 16 17  1  0
 17 18  2  0
 17 19  1  0
 19 20  1  0
 20 21  1  0
 21 22  1  0
 22 23  1  0
 23 24  2  0
 23 25  1  0
 25 26  1  0
 26 27  2  0
 16 28  2  0
 28 29  1  0
  5 30  1  0
 30 31  2  0
 31  3  1  0
 29  9  1  0
 29 14  1  0
 26 20  1  0
  1 32  1  0
  1 33  1  0
  1 34  1  0
  2 35  1  0
  2 36  1  0
  4 37  1  0
 10 38  1  0
 13 39  1  0
 15 40  1  0
 19 41  1  0
 20 42  1  6
 21 43  1  0
 21 44  1  0
 22 45  1  0
 22 46  1  0
 25 47  1  0
 30 48  1  0
M  END
>  <meeko>  (1347) 
{"is_sidechain": [true], "free_energy": -10.1, "intermolecular_energy": 0.0, "internal_energy": -10.1, "cluster_size": 12, "cluster_id": 1, "rank_in_cluster": 1}

>  <_RMSD_MCS_to_ref>  (1347) 
0.5966012068375319

$$$$
ligand
     RDKit          3D

 50 53  0  0  0  0  0  0  0  0999 V2000
   18.7970   18.8170    7.7190 C   0  0  0  0  0  0  0  0  0  0  0  0
   18.5280   17.3290    7.8810 C   0  0  0  0  0  0  0  0  0  0  0  0
   19.7180   16.5020    7.5450 C   0  0  0  0  0  0  0  0  0  0  0  0
   20.2880   15.4680    8.2620 C   0  0  0  0  0  0  0  0  0  0  0  0
   21.3300   15.0540    7.4810 N   0  0  0  0  0  0  0  0  0  0  0  0
   22.5290   13.9680    7.9340 S   0  0  0  0  0  6  0  0  0  0  0  0
   23.7860   14.5930    7.5730 O   0  0  0  0  0  0  0  0  0  0  0  0
   22.1190   12.6790    7.4120 O   0  0  0  0  0  0  0  0  0  0  0  0
   22.4010   13.9210    9.7030 C   0  0  0  0  0  0  0  0  0  0  0  0
   21.6320   12.9270   10.3180 C   0  0  0  0  0  0  0  0  0  0  0  0
   21.5290   12.9020   11.7100 C   0  0  0  0  0  0  0  0  0  0  0  0
   22.1870   13.8740   12.4720 C   0  0  0  0  0  0  0  0  0  0  0  0
   22.0940   13.8700   13.9400 C   0  0  0  0  0  0  0  0  0  0  0  0
   21.4480   13.0270   14.5480 O   0  0  0  0  0  0  0  0  0  0  0  0
   22.8180   14.9340   14.6490 C   0  0  0  0  0  0  0  0  0  0  0  0
   23.5100   15.8350   13.9380 C   0  0  0  0  0  0  0  0  0  0  0  0
   24.2410   16.9020   14.6920 C   0  0  0  0  0  0  0  0  0  0  0  0
   23.6990   17.6210   15.5220 O   0  0  0  0  0  0  0  0  0  0  0  0
   25.5720   16.9860   14.3730 N   0  0  0  0  0  0  0  0  0  0  0  0
   26.4900   17.8420   15.1060 C   0  0  2  0  0  0  0  0  0  0  0  0
   26.3160   17.7180   16.6160 C   0  0  0  0  0  0  0  0  0  0  0  0
   27.2780   18.6670   17.3160 C   0  0  0  0  0  0  0  0  0  0  0  0
   27.0890   20.0890   16.8400 C   0  0  0  0  0  0  0  0  0  0  0  0
   27.2400   21.0570   17.5800 O   0  0  0  0  0  0  0  0  0  0  0  0
   26.7640   20.2560   15.5180 N   0  0  0  0  0  0  0  0  0  0  0  0
   26.2350   19.2950   14.6930 C   0  0  0  0  0  0  0  0  0  0  0  0
   25.6030   19.5980   13.6810 O   0  0  0  0  0  0  0  0  0  0  0  0
   23.6010   15.8470   12.5530 O   0  0  0  0  0  0  0  0  0  0  0  0
   22.9410   14.8690   11.8530 C   0  0  0  0  0  0  0  0  0  0  0  0
   23.0500   14.9020   10.4630 C   0  0  0  0  0  0  0  0  0  0  0  0
   21.4010   15.8440    6.3790 C   0  0  0  0  0  0  0  0  0  0  0  0
   20.4290   16.7310    6.3830 N   0  0  0  0  0  0  0  0  0  0  0  0
   18.8815   19.2845    8.7111 H   0  0  0  0  0  0  0  0  0  0  0  0
   19.7359   18.9616    7.1643 H   0  0  0  0  0  0  0  0  0  0  0  0
   17.9682   19.2812    7.1643 H   0  0  0  0  0  0  0  0  0  0  0  0
   18.2435   17.1323    8.9252 H   0  0  0  0  0  0  0  0  0  0  0  0
   17.7199   17.0548    7.1869 H   0  0  0  0  0  0  0  0  0  0  0  0
   19.9748   15.0692    9.2381 H   0  0  0  0  0  0  0  0  0  0  0  0
   21.1129   12.1716    9.7098 H   0  0  0  0  0  0  0  0  0  0  0  0
   20.9331   12.1215   12.2058 H   0  0  0  0  0  0  0  0  0  0  0  0
   22.7924   14.9902   15.7473 H   0  0  0  0  0  0  0  0  0  0  0  0
   25.9329   16.4244   13.5886 H   0  0  0  0  0  0  0  0  0  0  0  0
   27.5161   17.5290   14.8627 H   0  0  0  0  0  0  0  0  0  0  0  0
   25.2822   17.9766   16.8886 H   0  0  0  0  0  0  0  0  0  0  0  0
   26.5289   16.6844   16.9265 H   0  0  0  0  0  0  0  0  0  0  0  0
   27.0976   18.6250   18.4003 H   0  0  0  0  0  0  0  0  0  0  0  0
   28.3064   18.3555   17.0806 H   0  0  0  0  0  0  0  0  0  0  0  0
   26.9319   21.1857   15.1076 H   0  0  0  0  0  0  0  0  0  0  0  0
   23.6388   15.6893    9.9695 H   0  0  0  0  0  0  0  0  0  0  0  0
   22.1647   15.7549    5.5924 H   0  0  0  0  0  0  0  0  0  0  0  0
  1  2  1  0
  2  3  1  0
  3  4  2  0
  4  5  1  0
  5  6  1  0
  6  7  2  0
  6  8  2  0
  6  9  1  0
  9 10  2  0
 10 11  1  0
 11 12  2  0
 12 13  1  0
 13 14  2  0
 13 15  1  0
 15 16  2  0
 16 17  1  0
 17 18  2  0
 17 19  1  0
 19 20  1  0
 20 21  1  0
 21 22  1  0
 22 23  1  0
 23 24  2  0
 23 25  1  0
 25 26  1  0
 26 27  2  0
 16 28  1  0
 28 29  1  0
 29 30  2  0
  5 31  1  0
 31 32  2  0
 32  3  1  0
 30  9  1  0
 29 12  1  0
 26 20  1  0
  1 33  1  0
  1 34  1  0
  1 35  1  0
  2 36  1  0
  2 37  1  0
  4 38  1  0
 10 39  1  0
 11 40  1  0
 15 41  1  0
 19 42  1  0
 20 43  1  1
 21 44  1  0
 21 45  1  0
 22 46  1  0
 22 47  1  0
 25 48  1  0
 30 49  1  0
 31 50  1  0
M  END
>  <meeko>  (1348) 
{"is_sidechain": [true], "free_energy": -10.1, "intermolecular_energy": 0.0, "internal_energy": -10.1, "cluster_size": 19, "cluster_id": 1, "rank_in_cluster": 1}

>  <_RMSD_MCS_to_ref>  (1348) 
0.896013702772203

$$$$
ligand
     RDKit          3D

 55 58  0  0  0  0  0  0  0  0999 V2000
   18.7970   18.8170    7.7190 C   0  0  0  0  0  0  0  0  0  0  0  0
   18.5280   17.3290    7.8810 C   0  0  0  0  0  0  0  0  0  0  0  0
   19.7740   16.5200    7.7790 C   0  0  0  0  0  0  0  0  0  0  0  0
   20.3370   15.6720    8.7120 C   0  0  0  0  0  0  0  0  0  0  0  0
   21.4670   15.2070    8.1020 N   0  0  0  0  0  0  0  0  0  0  0  0
   22.4650   13.9830    8.6780 S   0  0  0  0  0  6  0  0  0  0  0  0
   21.5670   12.9030    9.0390 O   0  0  0  0  0  0  0  0  0  0  0  0
   23.4940   13.8420    7.6680 O   0  0  0  0  0  0  0  0  0  0  0  0
   23.2320   14.5600   10.1810 C   0  0  0  0  0  0  0  0  0  0  0  0
   24.5800   14.9430   10.1810 C   0  0  0  0  0  0  0  0  0  0  0  0
   25.1790   15.4150   11.3510 C   0  0  0  0  0  0  0  0  0  0  0  0
   24.4580   15.5000   12.5490 C   0  0  0  0  0  0  0  0  0  0  0  0
   25.1950   16.0210   13.7430 C   0  0  0  0  0  0  0  0  0  0  0  0
   25.5750   15.2500   14.6200 O   0  0  0  0  0  0  0  0  0  0  0  0
   25.4410   17.3700   13.8050 N   0  0  0  0  0  0  0  0  0  0  0  0
   26.2770   17.9620   14.8360 C   0  0  2  0  0  0  0  0  0  0  0  0
   25.6200   17.9080   16.2130 C   0  0  0  0  0  0  0  0  0  0  0  0
   26.5330   18.5630   17.2370 C   0  0  0  0  0  0  0  0  0  0  0  0
   26.8830   19.9760   16.8340 C   0  0  0  0  0  0  0  0  0  0  0  0
   27.0370   20.8760   17.6530 O   0  0  0  0  0  0  0  0  0  0  0  0
   27.0460   20.2090   15.4920 N   0  0  0  0  0  0  0  0  0  0  0  0
   26.5520   19.4260   14.4780 C   0  0  0  0  0  0  0  0  0  0  0  0
   26.3570   19.8950   13.3570 O   0  0  0  0  0  0  0  0  0  0  0  0
   23.1160   15.0820   12.5500 C   0  0  0  0  0  0  0  0  0  0  0  0
   22.4690   14.6450   11.3690 C   0  0  0  0  0  0  0  0  0  0  0  0
   20.9930   14.3110   11.4380 C   0  0  0  0  0  0  0  0  0  0  0  0
   20.7450   13.0750   12.1820 N   0  0  0  0  0  0  0  0  0  0  0  0
   20.7500   13.3060   13.6330 C   0  0  0  0  0  0  0  0  0  0  0  0
   22.0980   13.7890   14.1730 C   0  0  0  0  0  0  0  0  0  0  0  0
   22.3960   15.1240   13.7230 O   0  0  0  0  0  0  0  0  0  0  0  0
   21.5560   15.7410    6.8560 C   0  0  0  0  0  0  0  0  0  0  0  0
   20.5340   16.5410    6.6270 N   0  0  0  0  0  0  0  0  0  0  0  0
   18.8815   19.2845    8.7111 H   0  0  0  0  0  0  0  0  0  0  0  0
   19.7359   18.9616    7.1643 H   0  0  0  0  0  0  0  0  0  0  0  0
   17.9682   19.2812    7.1643 H   0  0  0  0  0  0  0  0  0  0  0  0
   18.0727   17.1562    8.8673 H   0  0  0  0  0  0  0  0  0  0  0  0
   17.8539   17.0164    7.0699 H   0  0  0  0  0  0  0  0  0  0  0  0
   19.9614   15.4271    9.7165 H   0  0  0  0  0  0  0  0  0  0  0  0
   25.1692   14.8715    9.2549 H   0  0  0  0  0  0  0  0  0  0  0  0
   26.2342   15.7251   11.3315 H   0  0  0  0  0  0  0  0  0  0  0  0
   25.0179   17.9849   13.0952 H   0  0  0  0  0  0  0  0  0  0  0  0
   27.2107   17.3823   14.8824 H   0  0  0  0  0  0  0  0  0  0  0  0
   24.6598   18.4438   16.1822 H   0  0  0  0  0  0  0  0  0  0  0  0
   25.4462   16.8591   16.4951 H   0  0  0  0  0  0  0  0  0  0  0  0
   26.0224   18.5840   18.2111 H   0  0  0  0  0  0  0  0  0  0  0  0
   27.4628   17.9784   17.2982 H   0  0  0  0  0  0  0  0  0  0  0  0
   27.5857   21.0436   15.2216 H   0  0  0  0  0  0  0  0  0  0  0  0
   20.4647   15.1374   11.9360 H   0  0  0  0  0  0  0  0  0  0  0  0
   20.6284   14.1680   10.4101 H   0  0  0  0  0  0  0  0  0  0  0  0
   19.8269   12.6979   11.9069 H   0  0  0  0  0  0  0  0  0  0  0  0
   19.9896   14.0658   13.8666 H   0  0  0  0  0  0  0  0  0  0  0  0
   20.5381   12.3396   14.1137 H   0  0  0  0  0  0  0  0  0  0  0  0
   22.0670   13.7804   15.2725 H   0  0  0  0  0  0  0  0  0  0  0  0
   22.8825   13.1144   13.7996 H   0  0  0  0  0  0  0  0  0  0  0  0
   22.3656   15.5350    6.1403 H   0  0  0  0  0  0  0  0  0  0  0  0
  1  2  1  0
  2  3  1  0
  3  4  2  0
  4  5  1  0
  5  6  1  0
  6  7  2  0
  6  8  2  0
  6  9  1  0
  9 10  2  0
 10 11  1  0
 11 12  2  0
 12 13  1  0
 13 14  2  0
 13 15  1  0
 15 16  1  0
 16 17  1  0
 17 18  1  0
 18 19  1  0
 19 20  2  0
 19 21  1  0
 21 22  1  0
 22 23  2  0
 12 24  1  0
 24 25  2  0
 25 26  1  0
 26 27  1  0
 27 28  1  0
 28 29  1  0
 29 30  1  0
  5 31  1  0
 31 32  2  0
 32  3  1  0
 25  9  1  0
 22 16  1  0
 30 24  1  0
  1 33  1  0
  1 34  1  0
  1 35  1  0
  2 36  1  0
  2 37  1  0
  4 38  1  0
 10 39  1  0
 11 40  1  0
 15 41  1  0
 16 42  1  1
 17 43  1  0
 17 44  1  0
 18 45  1  0
 18 46  1  0
 21 47  1  0
 26 48  1  0
 26 49  1  0
 27 50  1  0
 28 51  1  0
 28 52  1  0
 29 53  1  0
 29 54  1  0
 31 55  1  0
M  END
>  <meeko>  (1349) 
{"is_sidechain": [true], "free_energy": -10.1, "intermolecular_energy": 0.47, "internal_energy": -10.57, "cluster_size": 7, "cluster_id": 1, "rank_in_cluster": 1}

>  <_RMSD_MCS_to_ref>  (1349) 
0.9118153443665123

$$$$
ligand
     RDKit          3D

 43 46  0  0  0  0  0  0  0  0999 V2000
   18.9090   19.1540    7.5370 C   0  0  0  0  0  0  0  0  0  0  0  0
   18.7730   17.6460    7.6780 C   0  0  0  0  0  0  0  0  0  0  0  0
   20.0870   16.9810    7.8890 C   0  0  0  0  0  0  0  0  0  0  0  0
   21.1550   16.8730    7.0200 C   0  0  0  0  0  0  0  0  0  0  0  0
   22.0800   16.1450    7.7130 N   0  0  0  0  0  0  0  0  0  0  0  0
   23.6660   15.8620    7.2450 S   0  0  0  0  0  6  0  0  0  0  0  0
   23.6700   14.5370    6.6520 O   0  0  0  0  0  0  0  0  0  0  0  0
   24.0850   17.0490    6.5250 O   0  0  0  0  0  0  0  0  0  0  0  0
   24.6410   15.7680    8.7110 C   0  0  0  0  0  0  0  0  0  0  0  0
   24.3410   16.3240    9.8680 N   0  0  0  0  0  0  0  0  0  0  0  0
   25.3390   16.0250   10.7800 C   0  0  0  0  0  0  0  0  0  0  0  0
   25.2200   16.5400   12.1400 C   0  0  0  0  0  0  0  0  0  0  0  0
   24.7380   17.7570   12.5610 C   0  0  0  0  0  0  0  0  0  0  0  0
   24.8640   17.7030   13.9170 N   0  0  0  0  0  0  0  0  0  0  0  0
   24.4810   18.7140   14.8830 C   0  0  1  0  0  0  0  0  0  0  0  0
   24.8660   18.3790   16.3250 C   0  0  0  0  0  0  0  0  0  0  0  0
   26.3450   18.6100   16.6030 C   0  0  0  0  0  0  0  0  0  0  0  0
   26.7870   19.9890   16.1750 C   0  0  0  0  0  0  0  0  0  0  0  0
   27.7170   20.5780   16.7160 O   0  0  0  0  0  0  0  0  0  0  0  0
   26.1140   20.5500   15.1200 N   0  0  0  0  0  0  0  0  0  0  0  0
   25.0030   20.0730   14.4660 C   0  0  0  0  0  0  0  0  0  0  0  0
   24.4680   20.7370   13.5790 O   0  0  0  0  0  0  0  0  0  0  0  0
   25.3770   16.5220   14.3130 N   0  0  0  0  0  0  0  0  0  0  0  0
   25.6020   15.7990   13.2240 N   0  0  0  0  0  0  0  0  0  0  0  0
   26.3720   15.2460   10.2970 C   0  0  0  0  0  0  0  0  0  0  0  0
   26.0910   14.8690    8.6450 S   0  0  0  0  0  0  0  0  0  0  0  0
   21.6020   15.8940    8.9600 C   0  0  0  0  0  0  0  0  0  0  0  0
   20.3820   16.3730    9.0930 N   0  0  0  0  0  0  0  0  0  0  0  0
   18.9504   19.6134    8.5356 H   0  0  0  0  0  0  0  0  0  0  0  0
   19.8320   19.3891    6.9867 H   0  0  0  0  0  0  0  0  0  0  0  0
   18.0430   19.5504    6.9867 H   0  0  0  0  0  0  0  0  0  0  0  0
   18.1232   17.4277    8.5383 H   0  0  0  0  0  0  0  0  0  0  0  0
   18.3435   17.2566    6.7432 H   0  0  0  0  0  0  0  0  0  0  0  0
   21.2411   17.2804    6.0019 H   0  0  0  0  0  0  0  0  0  0  0  0
   24.3435   18.5805   11.9476 H   0  0  0  0  0  0  0  0  0  0  0  0
   23.3813   18.7382   14.8817 H   0  0  0  0  0  0  0  0  0  0  0  0
   24.2764   19.0128   17.0037 H   0  0  0  0  0  0  0  0  0  0  0  0
   24.6587   17.3108   16.4864 H   0  0  0  0  0  0  0  0  0  0  0  0
   26.5265   18.4968   17.6820 H   0  0  0  0  0  0  0  0  0  0  0  0
   26.9209   17.8717   16.0258 H   0  0  0  0  0  0  0  0  0  0  0  0
   26.4894   21.4441   14.7729 H   0  0  0  0  0  0  0  0  0  0  0  0
   27.2433   14.9166   10.8820 H   0  0  0  0  0  0  0  0  0  0  0  0
   22.1566   15.3645    9.7487 H   0  0  0  0  0  0  0  0  0  0  0  0
  1  2  1  0
  2  3  1  0
  3  4  2  0
  4  5  1  0
  5  6  1  0
  6  7  2  0
  6  8  2  0
  6  9  1  0
  9 10  2  0
 10 11  1  0
 11 12  1  0
 12 13  2  0
 13 14  1  0
 14 15  1  0
 15 16  1  0
 16 17  1  0
 17 18  1  0
 18 19  2  0
 18 20  1  0
 20 21  1  0
 21 22  2  0
 14 23  1  0
 23 24  2  0
 11 25  2  0
 25 26  1  0
  5 27  1  0
 27 28  2  0
 28  3  1  0
 26  9  1  0
 24 12  1  0
 21 15  1  0
  1 29  1  0
  1 30  1  0
  1 31  1  0
  2 32  1  0
  2 33  1  0
  4 34  1  0
 13 35  1  0
 15 36  1  1
 16 37  1  0
 16 38  1  0
 17 39  1  0
 17 40  1  0
 20 41  1  0
 25 42  1  0
 27 43  1  0
M  END
>  <meeko>  (1350) 
{"is_sidechain": [true], "free_energy": -10.1, "intermolecular_energy": 0.0, "internal_energy": -10.1, "cluster_size": 20, "cluster_id": 1, "rank_in_cluster": 1}

>  <_RMSD_MCS_to_ref>  (1350) 
0.6193474164168462

$$$$
ligand
     RDKit          3D

 47 50  0  0  0  0  0  0  0  0999 V2000
   18.9090   19.1540    7.5370 C   0  0  0  0  0  0  0  0  0  0  0  0
   18.7730   17.6460    7.6780 C   0  0  0  0  0  0  0  0  0  0  0  0
   20.0530   16.9390    7.4020 C   0  0  0  0  0  0  0  0  0  0  0  0
   20.9000   16.3010    8.2860 C   0  0  0  0  0  0  0  0  0  0  0  0
   21.9090   15.8220    7.5000 N   0  0  0  0  0  0  0  0  0  0  0  0
   23.3830   15.2000    8.0410 S   0  0  0  0  0  6  0  0  0  0  0  0
   24.2530   16.3640    8.0950 O   0  0  0  0  0  0  0  0  0  0  0  0
   23.6730   14.1050    7.1320 O   0  0  0  0  0  0  0  0  0  0  0  0
   23.1030   14.5890    9.6500 C   0  0  0  0  0  0  0  0  0  0  0  0
   22.3990   13.4530    9.7820 C   0  0  0  0  0  0  0  0  0  0  0  0
   22.2010   12.9500   11.1590 C   0  0  0  0  0  0  0  0  0  0  0  0
   22.6450   13.4940   12.2430 N   0  0  0  0  0  0  0  0  0  0  0  0
   23.3310   14.6330   12.0250 N   0  0  0  0  0  0  0  0  0  0  0  0
   23.8470   15.2980   13.0660 N   0  0  0  0  0  0  0  0  0  0  0  0
   24.4280   16.3820   12.5220 C   0  0  0  0  0  0  0  0  0  0  0  0
   25.1110   17.3900   13.3420 C   0  0  0  0  0  0  0  0  0  0  0  0
   26.2570   17.7670   13.1160 O   0  0  0  0  0  0  0  0  0  0  0  0
   24.3540   17.8560   14.3910 N   0  0  0  0  0  0  0  0  0  0  0  0
   24.8840   18.7460   15.4040 C   0  0  1  0  0  0  0  0  0  0  0  0
   25.9590   18.0690   16.2490 C   0  0  0  0  0  0  0  0  0  0  0  0
   26.4870   19.0510   17.2830 C   0  0  0  0  0  0  0  0  0  0  0  0
   27.0030   20.3110   16.6300 C   0  0  0  0  0  0  0  0  0  0  0  0
   27.9400   20.9550   17.0910 O   0  0  0  0  0  0  0  0  0  0  0  0
   26.3430   20.7320   15.5020 N   0  0  0  0  0  0  0  0  0  0  0  0
   25.4800   19.9890   14.7330 C   0  0  0  0  0  0  0  0  0  0  0  0
   25.2000   20.3380   13.5880 O   0  0  0  0  0  0  0  0  0  0  0  0
   24.2830   16.3870   11.1100 C   0  0  0  0  0  0  0  0  0  0  0  0
   23.5890   15.2360   10.8140 C   0  0  0  0  0  0  0  0  0  0  0  0
   21.6840   16.1970    6.2130 C   0  0  0  0  0  0  0  0  0  0  0  0
   20.5590   16.8730    6.1180 N   0  0  0  0  0  0  0  0  0  0  0  0
   18.9504   19.6134    8.5356 H   0  0  0  0  0  0  0  0  0  0  0  0
   19.8320   19.3891    6.9867 H   0  0  0  0  0  0  0  0  0  0  0  0
   18.0430   19.5504    6.9867 H   0  0  0  0  0  0  0  0  0  0  0  0
   18.4538   17.4134    8.7046 H   0  0  0  0  0  0  0  0  0  0  0  0
   18.0316   17.3030    6.9414 H   0  0  0  0  0  0  0  0  0  0  0  0
   20.7877   16.2011    9.3757 H   0  0  0  0  0  0  0  0  0  0  0  0
   21.9898   12.9228    8.9094 H   0  0  0  0  0  0  0  0  0  0  0  0
   21.6194   12.0230   11.2705 H   0  0  0  0  0  0  0  0  0  0  0  0
   23.3698   17.5602   14.4595 H   0  0  0  0  0  0  0  0  0  0  0  0
   24.0543   19.0280   16.0689 H   0  0  0  0  0  0  0  0  0  0  0  0
   25.5273   17.1958   16.7600 H   0  0  0  0  0  0  0  0  0  0  0  0
   26.7843   17.7435   15.5987 H   0  0  0  0  0  0  0  0  0  0  0  0
   25.6739   19.3136   17.9757 H   0  0  0  0  0  0  0  0  0  0  0  0
   27.3187   18.5738   17.8220 H   0  0  0  0  0  0  0  0  0  0  0  0
   26.5118   21.7028   15.2019 H   0  0  0  0  0  0  0  0  0  0  0  0
   24.6472   17.1477   10.4038 H   0  0  0  0  0  0  0  0  0  0  0  0
   22.3499   15.9673    5.3681 H   0  0  0  0  0  0  0  0  0  0  0  0
  1  2  1  0
  2  3  1  0
  3  4  2  0
  4  5  1  0
  5  6  1  0
  6  7  2  0
  6  8  2  0
  6  9  1  0
  9 10  2  0
 10 11  1  0
 11 12  2  0
 12 13  1  0
 13 14  1  0
 14 15  2  0
 15 16  1  0
 16 17  2  0
 16 18  1  0
 18 19  1  0
 19 20  1  0
 20 21  1  0
 21 22  1  0
 22 23  2  0
 22 24  1  0
 24 25  1  0
 25 26  2  0
 15 27  1  0
 27 28  2  0
  5 29  1  0
 29 30  2  0
 30  3  1  0
 28  9  1  0
 28 13  1  0
 25 19  1  0
  1 31  1  0
  1 32  1  0
  1 33  1  0
  2 34  1  0
  2 35  1  0
  4 36  1  0
 10 37  1  0
 11 38  1  0
 18 39  1  0
 19 40  1  1
 20 41  1  0
 20 42  1  0
 21 43  1  0
 21 44  1  0
 24 45  1  0
 27 46  1  0
 29 47  1  0
M  END
>  <meeko>  (1351) 
{"is_sidechain": [true], "free_energy": -10.1, "intermolecular_energy": 0.0, "internal_energy": -10.1, "cluster_size": 20, "cluster_id": 1, "rank_in_cluster": 1}

>  <_RMSD_MCS_to_ref>  (1351) 
0.675790319223023

$$$$
ligand
     RDKit          3D

 42 44  0  0  0  0  0  0  0  0999 V2000
   18.9090   19.1540    7.5370 C   0  0  0  0  0  0  0  0  0  0  0  0
   18.7730   17.6460    7.6780 C   0  0  0  0  0  0  0  0  0  0  0  0
   20.0930   16.9600    7.6740 C   0  0  0  0  0  0  0  0  0  0  0  0
   20.9140   16.6480    8.7410 C   0  0  0  0  0  0  0  0  0  0  0  0
   21.9760   16.0100    8.1690 N   0  0  0  0  0  0  0  0  0  0  0  0
   23.3710   15.5220    8.9520 S   0  0  0  0  0  6  0  0  0  0  0  0
   23.6000   14.1380    8.5800 O   0  0  0  0  0  0  0  0  0  0  0  0
   24.3610   16.5580    8.7300 O   0  0  0  0  0  0  0  0  0  0  0  0
   23.0820   15.4930   10.6850 C   0  0  0  0  0  0  0  0  0  0  0  0
   22.1530   14.8010   11.3210 N   0  0  0  0  0  0  0  0  0  0  0  0
   22.3150   15.1040   12.6490 C   0  0  0  0  0  0  0  0  0  0  0  0
   23.3610   15.9840   12.8420 C   0  0  0  0  0  0  0  0  0  0  0  0
   23.9330   16.6030   14.0060 C   0  0  0  0  0  0  0  0  0  0  0  0
   24.0270   16.0090   15.0760 O   0  0  0  0  0  0  0  0  0  0  0  0
   24.3540   17.8980   13.8490 N   0  0  0  0  0  0  0  0  0  0  0  0
   24.8220   18.6940   14.9750 C   0  0  1  0  0  0  0  0  0  0  0  0
   25.8780   17.9660   15.7990 C   0  0  0  0  0  0  0  0  0  0  0  0
   26.3500   18.8690   16.9280 C   0  0  0  0  0  0  0  0  0  0  0  0
   26.8560   20.1920   16.4010 C   0  0  0  0  0  0  0  0  0  0  0  0
   27.7800   20.8020   16.9290 O   0  0  0  0  0  0  0  0  0  0  0  0
   26.2090   20.7040   15.3040 N   0  0  0  0  0  0  0  0  0  0  0  0
   25.4230   19.9930   14.4330 C   0  0  0  0  0  0  0  0  0  0  0  0
   25.2130   20.3950   13.2880 O   0  0  0  0  0  0  0  0  0  0  0  0
   23.8330   16.2190   11.5700 N   0  0  0  0  0  0  0  0  0  0  0  0
   21.8220   16.0080    6.8210 C   0  0  0  0  0  0  0  0  0  0  0  0
   20.6700   16.5520    6.4880 N   0  0  0  0  0  0  0  0  0  0  0  0
   18.9504   19.6134    8.5356 H   0  0  0  0  0  0  0  0  0  0  0  0
   19.8320   19.3891    6.9867 H   0  0  0  0  0  0  0  0  0  0  0  0
   18.0430   19.5504    6.9867 H   0  0  0  0  0  0  0  0  0  0  0  0
   18.2610   17.4236    8.6258 H   0  0  0  0  0  0  0  0  0  0  0  0
   18.1979   17.2767    6.8161 H   0  0  0  0  0  0  0  0  0  0  0  0
   20.7492   16.8643    9.8069 H   0  0  0  0  0  0  0  0  0  0  0  0
   21.6904   14.6972   13.4579 H   0  0  0  0  0  0  0  0  0  0  0  0
   24.3389   18.3194   12.9093 H   0  0  0  0  0  0  0  0  0  0  0  0
   23.9638   18.8910   15.6343 H   0  0  0  0  0  0  0  0  0  0  0  0
   25.4449   17.0471   16.2209 H   0  0  0  0  0  0  0  0  0  0  0  0
   26.7314   17.7066   15.1553 H   0  0  0  0  0  0  0  0  0  0  0  0
   25.5096   19.0545   17.6131 H   0  0  0  0  0  0  0  0  0  0  0  0
   27.1764   18.3659   17.4513 H   0  0  0  0  0  0  0  0  0  0  0  0
   26.3237   21.7106   15.1185 H   0  0  0  0  0  0  0  0  0  0  0  0
   24.6195   16.8375   11.3253 H   0  0  0  0  0  0  0  0  0  0  0  0
   22.5565   15.6080    6.1065 H   0  0  0  0  0  0  0  0  0  0  0  0
  1  2  1  0
  2  3  1  0
  3  4  2  0
  4  5  1  0
  5  6  1  0
  6  7  2  0
  6  8  2  0
  6  9  1  0
  9 10  2  0
 10 11  1  0
 11 12  2  0
 12 13  1  0
 13 14  2  0
 13 15  1  0
 15 16  1  0
 16 17  1  0
 17 18  1  0
 18 19  1  0
 19 20  2  0
 19 21  1  0
 21 22  1  0
 22 23  2  0
 12 24  1  0
  5 25  1  0
 25 26  2  0
 26  3  1  0
 24  9  1  0
 22 16  1  0
  1 27  1  0
  1 28  1  0
  1 29  1  0
  2 30  1  0
  2 31  1  0
  4 32  1  0
 11 33  1  0
 15 34  1  0
 16 35  1  1
 17 36  1  0
 17 37  1  0
 18 38  1  0
 18 39  1  0
 21 40  1  0
 24 41  1  0
 25 42  1  0
M  END
>  <meeko>  (1352) 
{"is_sidechain": [true], "free_energy": -10.1, "intermolecular_energy": 0.0, "internal_energy": -10.1, "cluster_size": 20, "cluster_id": 1, "rank_in_cluster": 1}

>  <_RMSD_MCS_to_ref>  (1352) 
0.4367622032894131

$$$$
ligand
     RDKit          3D

 45 48  0  0  0  0  0  0  0  0999 V2000
   18.9090   19.1540    7.5370 C   0  0  0  0  0  0  0  0  0  0  0  0
   18.7730   17.6460    7.6780 C   0  0  0  0  0  0  0  0  0  0  0  0
   20.0860   16.9530    7.5870 C   0  0  0  0  0  0  0  0  0  0  0  0
   20.9600   16.6120    8.6010 C   0  0  0  0  0  0  0  0  0  0  0  0
   22.0090   16.0220    7.9540 N   0  0  0  0  0  0  0  0  0  0  0  0
   23.3260   15.2810    8.6740 S   0  0  0  0  0  6  0  0  0  0  0  0
   24.2370   16.3450    9.0570 O   0  0  0  0  0  0  0  0  0  0  0  0
   23.7100   14.1890    7.8010 O   0  0  0  0  0  0  0  0  0  0  0  0
   22.8380   14.5370   10.1520 C   0  0  0  0  0  0  0  0  0  0  0  0
   21.8780   13.5790   10.2540 N   0  0  0  0  0  0  0  0  0  0  0  0
   21.8430   13.2880   11.5900 N   0  0  0  0  0  0  0  0  0  0  0  0
   22.7350   14.0240   12.2860 C   0  0  0  0  0  0  0  0  0  0  0  0
   23.2410   14.2130   13.8510 S   0  0  0  0  0  0  0  0  0  0  0  0
   24.3900   15.4340   13.3340 C   0  0  0  0  0  0  0  0  0  0  0  0
   25.2690   16.1100   14.2780 C   0  0  0  0  0  0  0  0  0  0  0  0
   25.9620   15.5060   15.0950 O   0  0  0  0  0  0  0  0  0  0  0  0
   25.2950   17.4850   14.2040 N   0  0  0  0  0  0  0  0  0  0  0  0
   26.2400   18.2820   14.9680 C   0  0  2  0  0  0  0  0  0  0  0  0
   26.0960   18.0650   16.4710 C   0  0  0  0  0  0  0  0  0  0  0  0
   27.0850   18.9540   17.2090 C   0  0  0  0  0  0  0  0  0  0  0  0
   26.9050   20.4060   16.8290 C   0  0  0  0  0  0  0  0  0  0  0  0
   27.0850   21.3230   17.6250 O   0  0  0  0  0  0  0  0  0  0  0  0
   26.5540   20.6610   15.5270 N   0  0  0  0  0  0  0  0  0  0  0  0
   25.9960   19.7610   14.6550 C   0  0  0  0  0  0  0  0  0  0  0  0
   25.3490   20.1380   13.6780 O   0  0  0  0  0  0  0  0  0  0  0  0
   24.3310   15.6440   11.9510 C   0  0  0  0  0  0  0  0  0  0  0  0
   23.3630   14.8070   11.4070 C   0  0  0  0  0  0  0  0  0  0  0  0
   21.7330   15.9600    6.6260 C   0  0  0  0  0  0  0  0  0  0  0  0
   20.5800   16.5400    6.3650 N   0  0  0  0  0  0  0  0  0  0  0  0
   18.9504   19.6134    8.5356 H   0  0  0  0  0  0  0  0  0  0  0  0
   19.8320   19.3891    6.9867 H   0  0  0  0  0  0  0  0  0  0  0  0
   18.0430   19.5504    6.9867 H   0  0  0  0  0  0  0  0  0  0  0  0
   18.3205   17.4208    8.6550 H   0  0  0  0  0  0  0  0  0  0  0  0
   18.1424   17.2849    6.8522 H   0  0  0  0  0  0  0  0  0  0  0  0
   20.8392   16.7775    9.6817 H   0  0  0  0  0  0  0  0  0  0  0  0
   21.2127   12.5920   12.0134 H   0  0  0  0  0  0  0  0  0  0  0  0
   24.6231   17.9638   13.5874 H   0  0  0  0  0  0  0  0  0  0  0  0
   27.2559   17.9728   14.6812 H   0  0  0  0  0  0  0  0  0  0  0  0
   25.0719   18.3193   16.7817 H   0  0  0  0  0  0  0  0  0  0  0  0
   26.3010   17.0111   16.7105 H   0  0  0  0  0  0  0  0  0  0  0  0
   26.9269   18.8444   18.2921 H   0  0  0  0  0  0  0  0  0  0  0  0
   28.1040   18.6456   16.9323 H   0  0  0  0  0  0  0  0  0  0  0  0
   26.7248   21.6131   15.1730 H   0  0  0  0  0  0  0  0  0  0  0  0
   24.9504   16.3561   11.3860 H   0  0  0  0  0  0  0  0  0  0  0  0
   22.3825   15.4904    5.8726 H   0  0  0  0  0  0  0  0  0  0  0  0
  1  2  1  0
  2  3  1  0
  3  4  2  0
  4  5  1  0
  5  6  1  0
  6  7  2  0
  6  8  2  0
  6  9  1  0
  9 10  2  0
 10 11  1  0
 11 12  1  0
 12 13  1  0
 13 14  1  0
 14 15  1  0
 15 16  2  0
 15 17  1  0
 17 18  1  0
 18 19  1  0
 19 20  1  0
 20 21  1  0
 21 22  2  0
 21 23  1  0
 23 24  1  0
 24 25  2  0
 14 26  2  0
 26 27  1  0
  5 28  1  0
 28 29  2  0
 29  3  1  0
 27  9  1  0
 27 12  2  0
 24 18  1  0
  1 30  1  0
  1 31  1  0
  1 32  1  0
  2 33  1  0
  2 34  1  0
  4 35  1  0
 11 36  1  0
 17 37  1  0
 18 38  1  6
 19 39  1  0
 19 40  1  0
 20 41  1  0
 20 42  1  0
 23 43  1  0
 26 44  1  0
 28 45  1  0
M  END
>  <meeko>  (1353) 
{"is_sidechain": [true], "free_energy": -10.1, "intermolecular_energy": 0.0, "internal_energy": -10.1, "cluster_size": 16, "cluster_id": 1, "rank_in_cluster": 1}

>  <_RMSD_MCS_to_ref>  (1353) 
0.9117647722960126

$$$$
ligand
     RDKit          3D

 44 46  0  0  0  0  0  0  0  0999 V2000
   18.9090   19.1540    7.5370 C   0  0  0  0  0  0  0  0  0  0  0  0
   18.7730   17.6460    7.6780 C   0  0  0  0  0  0  0  0  0  0  0  0
   20.0920   16.9600    7.6680 C   0  0  0  0  0  0  0  0  0  0  0  0
   21.0110   16.8300    8.6920 C   0  0  0  0  0  0  0  0  0  0  0  0
   22.0380   16.1240    8.1320 N   0  0  0  0  0  0  0  0  0  0  0  0
   23.4070   15.5670    8.9270 S   0  0  0  0  0  6  0  0  0  0  0  0
   24.3750   16.6470    8.8450 O   0  0  0  0  0  0  0  0  0  0  0  0
   23.6770   14.2470    8.3860 O   0  0  0  0  0  0  0  0  0  0  0  0
   22.9400   15.3840   10.6260 C   0  0  0  0  0  0  0  0  0  0  0  0
   23.6300   16.0890   11.5980 C   0  0  0  0  0  0  0  0  0  0  0  0
   23.2210   15.9040   12.9170 C   0  0  0  0  0  0  0  0  0  0  0  0
   23.8880   16.5890   14.0570 C   0  0  0  0  0  0  0  0  0  0  0  0
   24.0730   15.9880   15.1080 O   0  0  0  0  0  0  0  0  0  0  0  0
   24.2430   17.9060   13.8720 N   0  0  0  0  0  0  0  0  0  0  0  0
   24.7700   18.6990   14.9760 C   0  0  1  0  0  0  0  0  0  0  0  0
   25.8560   17.9610   15.7510 C   0  0  0  0  0  0  0  0  0  0  0  0
   26.3900   18.8600   16.8550 C   0  0  0  0  0  0  0  0  0  0  0  0
   26.8890   20.1750   16.3010 C   0  0  0  0  0  0  0  0  0  0  0  0
   27.8370   20.7800   16.7910 O   0  0  0  0  0  0  0  0  0  0  0  0
   26.2040   20.6890   15.2290 N   0  0  0  0  0  0  0  0  0  0  0  0
   25.3570   19.9930   14.4030 C   0  0  0  0  0  0  0  0  0  0  0  0
   25.0800   20.4030   13.2760 O   0  0  0  0  0  0  0  0  0  0  0  0
   22.1720   15.0230   13.1990 C   0  0  0  0  0  0  0  0  0  0  0  0
   21.5510   14.3730   12.1470 C   0  0  0  0  0  0  0  0  0  0  0  0
   21.9070   14.5380   10.8580 N   0  0  0  0  0  0  0  0  0  0  0  0
   21.7180   15.8150    6.8490 C   0  0  0  0  0  0  0  0  0  0  0  0
   20.5470   16.3250    6.5280 N   0  0  0  0  0  0  0  0  0  0  0  0
   18.9504   19.6134    8.5356 H   0  0  0  0  0  0  0  0  0  0  0  0
   19.8320   19.3891    6.9867 H   0  0  0  0  0  0  0  0  0  0  0  0
   18.0430   19.5504    6.9867 H   0  0  0  0  0  0  0  0  0  0  0  0
   18.2651   17.4234    8.6280 H   0  0  0  0  0  0  0  0  0  0  0  0
   18.1939   17.2772    6.8185 H   0  0  0  0  0  0  0  0  0  0  0  0
   20.9334   17.2083    9.7220 H   0  0  0  0  0  0  0  0  0  0  0  0
   24.4609   16.7625   11.3411 H   0  0  0  0  0  0  0  0  0  0  0  0
   24.1350   18.3364   12.9425 H   0  0  0  0  0  0  0  0  0  0  0  0
   23.9462   18.9048   15.6753 H   0  0  0  0  0  0  0  0  0  0  0  0
   25.4336   17.0472   16.1943 H   0  0  0  0  0  0  0  0  0  0  0  0
   26.6755   17.6921   15.0683 H   0  0  0  0  0  0  0  0  0  0  0  0
   25.5839   19.0583   17.5767 H   0  0  0  0  0  0  0  0  0  0  0  0
   27.2323   18.3473   17.3426 H   0  0  0  0  0  0  0  0  0  0  0  0
   26.3377   21.6897   15.0252 H   0  0  0  0  0  0  0  0  0  0  0  0
   21.8473   14.8503   14.2357 H   0  0  0  0  0  0  0  0  0  0  0  0
   20.7232   13.6854   12.3751 H   0  0  0  0  0  0  0  0  0  0  0  0
   22.3493   15.2211    6.1717 H   0  0  0  0  0  0  0  0  0  0  0  0
  1  2  1  0
  2  3  1  0
  3  4  2  0
  4  5  1  0
  5  6  1  0
  6  7  2  0
  6  8  2  0
  6  9  1  0
  9 10  2  0
 10 11  1  0
 11 12  1  0
 12 13  2  0
 12 14  1  0
 14 15  1  0
 15 16  1  0
 16 17  1  0
 17 18  1  0
 18 19  2  0
 18 20  1  0
 20 21  1  0
 21 22  2  0
 11 23  2  0
 23 24  1  0
 24 25  2  0
  5 26  1  0
 26 27  2  0
 27  3  1  0
 25  9  1  0
 21 15  1  0
  1 28  1  0
  1 29  1  0
  1 30  1  0
  2 31  1  0
  2 32  1  0
  4 33  1  0
 10 34  1  0
 14 35  1  0
 15 36  1  1
 16 37  1  0
 16 38  1  0
 17 39  1  0
 17 40  1  0
 20 41  1  0
 23 42  1  0
 24 43  1  0
 26 44  1  0
M  END
>  <meeko>  (1354) 
{"is_sidechain": [true], "free_energy": -10.1, "intermolecular_energy": 0.0, "internal_energy": -10.1, "cluster_size": 20, "cluster_id": 1, "rank_in_cluster": 1}

>  <_RMSD_MCS_to_ref>  (1354) 
0.4465809619269002

$$$$
ligand
     RDKit          3D

 43 45  0  0  0  0  0  0  0  0999 V2000
   18.9090   19.1540    7.5370 C   0  0  0  0  0  0  0  0  0  0  0  0
   18.7730   17.6460    7.6780 C   0  0  0  0  0  0  0  0  0  0  0  0
   20.0560   16.9400    7.4130 C   0  0  0  0  0  0  0  0  0  0  0  0
   20.9120   16.3290    8.3080 C   0  0  0  0  0  0  0  0  0  0  0  0
   21.9300   15.8590    7.5280 N   0  0  0  0  0  0  0  0  0  0  0  0
   23.2190   14.9170    8.0470 S   0  0  0  0  0  6  0  0  0  0  0  0
   22.7150   13.5590    8.1320 O   0  0  0  0  0  0  0  0  0  0  0  0
   24.3340   15.2760    7.1890 O   0  0  0  0  0  0  0  0  0  0  0  0
   23.5860   15.4720    9.6730 C   0  0  0  0  0  0  0  0  0  0  0  0
   24.5690   16.4270    9.8550 C   0  0  0  0  0  0  0  0  0  0  0  0
   24.8900   16.8930   11.0880 N   0  0  0  0  0  0  0  0  0  0  0  0
   24.1750   16.3500   12.1200 C   0  0  0  0  0  0  0  0  0  0  0  0
   24.4880   16.8320   13.4950 C   0  0  0  0  0  0  0  0  0  0  0  0
   24.2350   16.1510   14.4800 O   0  0  0  0  0  0  0  0  0  0  0  0
   25.0590   18.0830   13.5540 N   0  0  0  0  0  0  0  0  0  0  0  0
   25.2880   18.7800   14.8080 C   0  0  1  0  0  0  0  0  0  0  0  0
   26.3420   18.0850   15.6630 C   0  0  0  0  0  0  0  0  0  0  0  0
   26.5550   18.8710   16.9460 C   0  0  0  0  0  0  0  0  0  0  0  0
   26.9240   20.3070   16.6560 C   0  0  0  0  0  0  0  0  0  0  0  0
   27.6810   20.9510   17.3770 O   0  0  0  0  0  0  0  0  0  0  0  0
   26.3430   20.8800   15.5540 N   0  0  0  0  0  0  0  0  0  0  0  0
   25.7480   20.2120   14.5100 C   0  0  0  0  0  0  0  0  0  0  0  0
   25.5890   20.7560   13.4200 O   0  0  0  0  0  0  0  0  0  0  0  0
   23.1880   15.3930   11.9240 C   0  0  0  0  0  0  0  0  0  0  0  0
   22.8650   14.9260   10.6880 N   0  0  0  0  0  0  0  0  0  0  0  0
   21.6640   16.1430    6.2270 C   0  0  0  0  0  0  0  0  0  0  0  0
   20.5370   16.8180    6.1250 N   0  0  0  0  0  0  0  0  0  0  0  0
   18.9504   19.6134    8.5356 H   0  0  0  0  0  0  0  0  0  0  0  0
   19.8320   19.3891    6.9867 H   0  0  0  0  0  0  0  0  0  0  0  0
   18.0430   19.5504    6.9867 H   0  0  0  0  0  0  0  0  0  0  0  0
   18.4456   17.4138    8.7021 H   0  0  0  0  0  0  0  0  0  0  0  0
   18.0378   17.3018    6.9357 H   0  0  0  0  0  0  0  0  0  0  0  0
   20.7998   16.2410    9.3987 H   0  0  0  0  0  0  0  0  0  0  0  0
   25.1045   16.8190    8.9777 H   0  0  0  0  0  0  0  0  0  0  0  0
   25.3347   18.5430   12.6747 H   0  0  0  0  0  0  0  0  0  0  0  0
   24.3430   18.7818   15.3711 H   0  0  0  0  0  0  0  0  0  0  0  0
   26.0022   17.0680   15.9085 H   0  0  0  0  0  0  0  0  0  0  0  0
   27.2886   18.0316   15.1052 H   0  0  0  0  0  0  0  0  0  0  0  0
   25.6269   18.8518   17.5361 H   0  0  0  0  0  0  0  0  0  0  0  0
   27.3812   18.4065   17.5043 H   0  0  0  0  0  0  0  0  0  0  0  0
   26.3533   21.9087   15.5036 H   0  0  0  0  0  0  0  0  0  0  0  0
   22.6489   14.9991   12.7982 H   0  0  0  0  0  0  0  0  0  0  0  0
   22.2996   15.8508    5.3781 H   0  0  0  0  0  0  0  0  0  0  0  0
  1  2  1  0
  2  3  1  0
  3  4  2  0
  4  5  1  0
  5  6  1  0
  6  7  2  0
  6  8  2  0
  6  9  1  0
  9 10  2  0
 10 11  1  0
 11 12  2  0
 12 13  1  0
 13 14  2  0
 13 15  1  0
 15 16  1  0
 16 17  1  0
 17 18  1  0
 18 19  1  0
 19 20  2  0
 19 21  1  0
 21 22  1  0
 22 23  2  0
 12 24  1  0
 24 25  2  0
  5 26  1  0
 26 27  2  0
 27  3  1  0
 25  9  1  0
 22 16  1  0
  1 28  1  0
  1 29  1  0
  1 30  1  0
  2 31  1  0
  2 32  1  0
  4 33  1  0
 10 34  1  0
 15 35  1  0
 16 36  1  1
 17 37  1  0
 17 38  1  0
 18 39  1  0
 18 40  1  0
 21 41  1  0
 24 42  1  0
 26 43  1  0
M  END
>  <meeko>  (1355) 
{"is_sidechain": [true], "free_energy": -10.1, "intermolecular_energy": 0.0, "internal_energy": -10.1, "cluster_size": 19, "cluster_id": 1, "rank_in_cluster": 1}

>  <_RMSD_MCS_to_ref>  (1355) 
0.6717540059013002

$$$$
ligand
     RDKit          3D

 52 56  0  0  0  0  0  0  0  0999 V2000
   18.9090   19.1540    7.5370 C   0  0  0  0  0  0  0  0  0  0  0  0
   18.7730   17.6460    7.6780 C   0  0  0  0  0  0  0  0  0  0  0  0
   19.6010   16.9120    6.6830 C   0  0  0  0  0  0  0  0  0  0  0  0
   20.8930   16.4410    6.8080 C   0  0  0  0  0  0  0  0  0  0  0  0
   21.1490   15.8410    5.6080 N   0  0  0  0  0  0  0  0  0  0  0  0
   22.6390   15.2740    5.0870 S   0  0  0  0  0  6  0  0  0  0  0  0
   23.3570   16.4360    4.5950 O   0  0  0  0  0  0  0  0  0  0  0  0
   22.3600   14.1130    4.2620 O   0  0  0  0  0  0  0  0  0  0  0  0
   23.5140   14.6960    6.5200 C   0  0  0  0  0  0  0  0  0  0  0  0
   23.4950   15.3080    7.6980 N   0  0  0  0  0  0  0  0  0  0  0  0
   24.2940   14.5340    8.5120 C   0  0  0  0  0  0  0  0  0  0  0  0
   24.5470   14.8470    9.9090 C   0  0  0  0  0  0  0  0  0  0  0  0
   24.5450   13.8460   10.9100 C   0  0  0  0  0  0  0  0  0  0  0  0
   24.7880   14.1630   12.2510 C   0  0  0  0  0  0  0  0  0  0  0  0
   25.0310   15.4860   12.5610 C   0  0  0  0  0  0  0  0  0  0  0  0
   25.0390   16.4910   11.5990 C   0  0  0  0  0  0  0  0  0  0  0  0
   24.7970   16.1860   10.2700 C   0  0  0  0  0  0  0  0  0  0  0  0
   25.3070   17.8120   12.2400 C   0  0  0  0  0  0  0  0  0  0  0  0
   25.5450   17.4460   13.6320 N   0  0  0  0  0  0  0  0  0  0  0  0
   25.6020   18.4140   14.7190 C   0  0  1  0  0  0  0  0  0  0  0  0
   26.3160   17.8670   15.9520 C   0  0  0  0  0  0  0  0  0  0  0  0
   26.2560   18.8970   17.0700 C   0  0  0  0  0  0  0  0  0  0  0  0
   26.8320   20.2210   16.6240 C   0  0  0  0  0  0  0  0  0  0  0  0
   27.4630   20.9510   17.3810 O   0  0  0  0  0  0  0  0  0  0  0  0
   26.5990   20.5840   15.3210 N   0  0  0  0  0  0  0  0  0  0  0  0
   26.2780   19.7280   14.2920 C   0  0  0  0  0  0  0  0  0  0  0  0
   26.5410   20.0300   13.1300 O   0  0  0  0  0  0  0  0  0  0  0  0
   25.3080   16.0970   13.8640 C   0  0  0  0  0  0  0  0  0  0  0  0
   25.3200   15.5050   14.9250 O   0  0  0  0  0  0  0  0  0  0  0  0
   24.7780   13.4710    7.7890 C   0  0  0  0  0  0  0  0  0  0  0  0
   24.2930   13.5570    6.5200 O   0  0  0  0  0  0  0  0  0  0  0  0
   20.0740   16.0020    4.7930 C   0  0  0  0  0  0  0  0  0  0  0  0
   19.1060   16.6330    5.4250 N   0  0  0  0  0  0  0  0  0  0  0  0
   18.9504   19.6134    8.5356 H   0  0  0  0  0  0  0  0  0  0  0  0
   19.8320   19.3891    6.9867 H   0  0  0  0  0  0  0  0  0  0  0  0
   18.0430   19.5504    6.9867 H   0  0  0  0  0  0  0  0  0  0  0  0
   19.0929   17.3544    8.6893 H   0  0  0  0  0  0  0  0  0  0  0  0
   17.7196   17.3836    7.5004 H   0  0  0  0  0  0  0  0  0  0  0  0
   21.5631   16.5289    7.6759 H   0  0  0  0  0  0  0  0  0  0  0  0
   24.3490   12.8008   10.6287 H   0  0  0  0  0  0  0  0  0  0  0  0
   24.7855   13.3862   13.0298 H   0  0  0  0  0  0  0  0  0  0  0  0
   24.7999   16.9781    9.5067 H   0  0  0  0  0  0  0  0  0  0  0  0
   26.1915   18.2953   11.7994 H   0  0  0  0  0  0  0  0  0  0  0  0
   24.4887   18.5357   12.1110 H   0  0  0  0  0  0  0  0  0  0  0  0
   24.5530   18.6178   14.9799 H   0  0  0  0  0  0  0  0  0  0  0  0
   25.8231   16.9400   16.2803 H   0  0  0  0  0  0  0  0  0  0  0  0
   27.3665   17.6550   15.7041 H   0  0  0  0  0  0  0  0  0  0  0  0
   25.2070   19.0437   17.3669 H   0  0  0  0  0  0  0  0  0  0  0  0
   26.8506   18.5261   17.9179 H   0  0  0  0  0  0  0  0  0  0  0  0
   26.6707   21.5859   15.0929 H   0  0  0  0  0  0  0  0  0  0  0  0
   25.4446   12.6837    8.1708 H   0  0  0  0  0  0  0  0  0  0  0  0
   20.0197   15.6540    3.7509 H   0  0  0  0  0  0  0  0  0  0  0  0
  1  2  1  0
  2  3  1  0
  3  4  2  0
  4  5  1  0
  5  6  1  0
  6  7  2  0
  6  8  2  0
  6  9  1  0
  9 10  2  0
 10 11  1  0
 11 12  1  0
 12 13  2  0
 13 14  1  0
 14 15  2  0
 15 16  1  0
 16 17  2  0
 16 18  1  0
 18 19  1  0
 19 20  1  0
 20 21  1  0
 21 22  1  0
 22 23  1  0
 23 24  2  0
 23 25  1  0
 25 26  1  0
 26 27  2  0
 19 28  1  0
 28 29  2  0
 11 30  2  0
 30 31  1  0
  5 32  1  0
 32 33  2  0
 33  3  1  0
 31  9  1  0
 17 12  1  0
 26 20  1  0
 28 15  1  0
  1 34  1  0
  1 35  1  0
  1 36  1  0
  2 37  1  0
  2 38  1  0
  4 39  1  0
 13 40  1  0
 14 41  1  0
 17 42  1  0
 18 43  1  0
 18 44  1  0
 20 45  1  1
 21 46  1  0
 21 47  1  0
 22 48  1  0
 22 49  1  0
 25 50  1  0
 30 51  1  0
 32 52  1  0
M  END
>  <meeko>  (1356) 
{"is_sidechain": [true], "free_energy": -10.1, "intermolecular_energy": 0.0, "internal_energy": -10.1, "cluster_size": 13, "cluster_id": 1, "rank_in_cluster": 1}

>  <_RMSD_MCS_to_ref>  (1356) 
1.2732657486427041

$$$$
ligand
     RDKit          3D

 52 56  0  0  0  0  0  0  0  0999 V2000
   18.9090   19.1540    7.5370 C   0  0  0  0  0  0  0  0  0  0  0  0
   18.7730   17.6460    7.6780 C   0  0  0  0  0  0  0  0  0  0  0  0
   20.0640   16.9420    7.4540 C   0  0  0  0  0  0  0  0  0  0  0  0
   21.1500   16.8280    8.3000 C   0  0  0  0  0  0  0  0  0  0  0  0
   22.0550   16.0960    7.5860 N   0  0  0  0  0  0  0  0  0  0  0  0
   23.5500   15.5700    8.1470 S   0  0  0  0  0  6  0  0  0  0  0  0
   24.1780   14.8540    7.0550 O   0  0  0  0  0  0  0  0  0  0  0  0
   24.1420   16.7670    8.7190 O   0  0  0  0  0  0  0  0  0  0  0  0
   23.2020   14.4290    9.4410 C   0  0  0  0  0  0  0  0  0  0  0  0
   22.6560   13.1900    9.1370 C   0  0  0  0  0  0  0  0  0  0  0  0
   22.3600   12.2690   10.1120 C   0  0  0  0  0  0  0  0  0  0  0  0
   22.5830   12.4970   11.4560 C   0  0  0  0  0  0  0  0  0  0  0  0
   23.1480   13.7400   11.7700 C   0  0  0  0  0  0  0  0  0  0  0  0
   23.5000   14.2520   12.9960 N   0  0  0  0  0  0  0  0  0  0  0  0
   24.0310   15.5150   12.8760 C   0  0  0  0  0  0  0  0  0  0  0  0
   24.4740   16.2530   14.0360 C   0  0  0  0  0  0  0  0  0  0  0  0
   24.6410   15.7160   15.1260 O   0  0  0  0  0  0  0  0  0  0  0  0
   24.6840   17.5950   13.8420 N   0  0  0  0  0  0  0  0  0  0  0  0
   25.0030   18.4860   14.9470 C   0  0  1  0  0  0  0  0  0  0  0  0
   26.0650   17.8990   15.8700 C   0  0  0  0  0  0  0  0  0  0  0  0
   26.3750   18.8880   16.9810 C   0  0  0  0  0  0  0  0  0  0  0  0
   26.7940   20.2290   16.4230 C   0  0  0  0  0  0  0  0  0  0  0  0
   27.6080   20.9520   16.9890 O   0  0  0  0  0  0  0  0  0  0  0  0
   26.1890   20.6240   15.2570 N   0  0  0  0  0  0  0  0  0  0  0  0
   25.5140   19.8130   14.3790 C   0  0  0  0  0  0  0  0  0  0  0  0
   25.3240   20.1560   13.2130 O   0  0  0  0  0  0  0  0  0  0  0  0
   24.0240   15.8120   11.5240 C   0  0  0  0  0  0  0  0  0  0  0  0
   23.4660   14.7110   10.8070 C   0  0  0  0  0  0  0  0  0  0  0  0
   21.8290   11.1200    9.6080 O   0  0  0  0  0  0  0  0  0  0  0  0
   21.8300   11.4090    8.1990 C   0  0  0  0  0  0  0  0  0  0  0  0
   22.3540   12.7180    7.8960 O   0  0  0  0  0  0  0  0  0  0  0  0
   21.5230   15.7850    6.3770 C   0  0  0  0  0  0  0  0  0  0  0  0
   20.3080   16.2810    6.2660 N   0  0  0  0  0  0  0  0  0  0  0  0
   18.9504   19.6134    8.5356 H   0  0  0  0  0  0  0  0  0  0  0  0
   19.8320   19.3891    6.9867 H   0  0  0  0  0  0  0  0  0  0  0  0
   18.0430   19.5504    6.9867 H   0  0  0  0  0  0  0  0  0  0  0  0
   18.4154   17.4159    8.6925 H   0  0  0  0  0  0  0  0  0  0  0  0
   18.0618   17.2982    6.9143 H   0  0  0  0  0  0  0  0  0  0  0  0
   21.2605   17.2340    9.3163 H   0  0  0  0  0  0  0  0  0  0  0  0
   22.3339   11.7533   12.2272 H   0  0  0  0  0  0  0  0  0  0  0  0
   23.3814   13.7539   13.8897 H   0  0  0  0  0  0  0  0  0  0  0  0
   24.6140   17.9814   12.8898 H   0  0  0  0  0  0  0  0  0  0  0  0
   24.0880   18.6336   15.5394 H   0  0  0  0  0  0  0  0  0  0  0  0
   25.6923   16.9612   16.3077 H   0  0  0  0  0  0  0  0  0  0  0  0
   26.9799   17.6972   15.2937 H   0  0  0  0  0  0  0  0  0  0  0  0
   25.4766   19.0231   17.6012 H   0  0  0  0  0  0  0  0  0  0  0  0
   27.2057   18.4870   17.5804 H   0  0  0  0  0  0  0  0  0  0  0  0
   26.2467   21.6241   15.0175 H   0  0  0  0  0  0  0  0  0  0  0  0
   24.3899   16.7468   11.0742 H   0  0  0  0  0  0  0  0  0  0  0  0
   22.4472   10.6564    7.6866 H   0  0  0  0  0  0  0  0  0  0  0  0
   20.7853   11.3835    7.8556 H   0  0  0  0  0  0  0  0  0  0  0  0
   22.0350   15.2004    5.5985 H   0  0  0  0  0  0  0  0  0  0  0  0
  1  2  1  0
  2  3  1  0
  3  4  2  0
  4  5  1  0
  5  6  1  0
  6  7  2  0
  6  8  2  0
  6  9  1  0
  9 10  2  0
 10 11  1  0
 11 12  2  0
 12 13  1  0
 13 14  1  0
 14 15  1  0
 15 16  1  0
 16 17  2  0
 16 18  1  0
 18 19  1  0
 19 20  1  0
 20 21  1  0
 21 22  1  0
 22 23  2  0
 22 24  1  0
 24 25  1  0
 25 26  2  0
 15 27  2  0
 27 28  1  0
 11 29  1  0
 29 30  1  0
 30 31  1  0
  5 32  1  0
 32 33  2  0
 33  3  1  0
 28  9  1  0
 31 10  1  0
 28 13  2  0
 25 19  1  0
  1 34  1  0
  1 35  1  0
  1 36  1  0
  2 37  1  0
  2 38  1  0
  4 39  1  0
 12 40  1  0
 14 41  1  0
 18 42  1  0
 19 43  1  1
 20 44  1  0
 20 45  1  0
 21 46  1  0
 21 47  1  0
 24 48  1  0
 27 49  1  0
 30 50  1  0
 30 51  1  0
 32 52  1  0
M  END
>  <meeko>  (1357) 
{"is_sidechain": [true], "free_energy": -10.1, "intermolecular_energy": 0.0, "internal_energy": -10.1, "cluster_size": 20, "cluster_id": 1, "rank_in_cluster": 1}

>  <_RMSD_MCS_to_ref>  (1357) 
0.4046544822438032

$$$$
ligand
     RDKit          3D

 45 47  0  0  0  0  0  0  0  0999 V2000
   18.9090   19.1540    7.5370 C   0  0  0  0  0  0  0  0  0  0  0  0
   18.7730   17.6460    7.6780 C   0  0  0  0  0  0  0  0  0  0  0  0
   20.0890   16.9540    7.6020 C   0  0  0  0  0  0  0  0  0  0  0  0
   20.8620   16.4450    8.6270 C   0  0  0  0  0  0  0  0  0  0  0  0
   21.9450   15.9050    7.9920 N   0  0  0  0  0  0  0  0  0  0  0  0
   23.3700   15.3950    8.7430 S   0  0  0  0  0  6  0  0  0  0  0  0
   23.5100   14.0060    8.3460 O   0  0  0  0  0  0  0  0  0  0  0  0
   24.3560   16.3840    8.3450 O   0  0  0  0  0  0  0  0  0  0  0  0
   23.0750   15.4860   10.4620 C   0  0  0  0  0  0  0  0  0  0  0  0
   22.1050   14.7290   10.9980 C   0  0  0  0  0  0  0  0  0  0  0  0
   21.8640   14.7760   12.3490 N   0  0  0  0  0  0  0  0  0  0  0  0
   22.5640   15.5680   13.2360 C   0  0  0  0  0  0  0  0  0  0  0  0
   22.2970   15.5710   14.4330 O   0  0  0  0  0  0  0  0  0  0  0  0
   23.6490   16.4140   12.6520 C   0  0  0  0  0  0  0  0  0  0  0  0
   24.5110   17.3300   13.4550 C   0  0  0  0  0  0  0  0  0  0  0  0
   25.6640   17.5890   13.1150 O   0  0  0  0  0  0  0  0  0  0  0  0
   23.9490   17.8490   14.5880 N   0  0  0  0  0  0  0  0  0  0  0  0
   24.6900   18.7050   15.5000 C   0  0  1  0  0  0  0  0  0  0  0  0
   25.8050   17.9380   16.2070 C   0  0  0  0  0  0  0  0  0  0  0  0
   26.5530   18.8750   17.1430 C   0  0  0  0  0  0  0  0  0  0  0  0
   27.0860   20.0790   16.4040 C   0  0  0  0  0  0  0  0  0  0  0  0
   28.1310   20.6370   16.7220 O   0  0  0  0  0  0  0  0  0  0  0  0
   26.3210   20.5510   15.3660 N   0  0  0  0  0  0  0  0  0  0  0  0
   25.2980   19.8860   14.7340 C   0  0  0  0  0  0  0  0  0  0  0  0
   24.8970   20.2540   13.6310 O   0  0  0  0  0  0  0  0  0  0  0  0
   23.8590   16.3560   11.3210 C   0  0  0  0  0  0  0  0  0  0  0  0
   21.8420   16.1400    6.6600 C   0  0  0  0  0  0  0  0  0  0  0  0
   20.7160   16.7650    6.3860 N   0  0  0  0  0  0  0  0  0  0  0  0
   18.9504   19.6134    8.5356 H   0  0  0  0  0  0  0  0  0  0  0  0
   19.8320   19.3891    6.9867 H   0  0  0  0  0  0  0  0  0  0  0  0
   18.0430   19.5504    6.9867 H   0  0  0  0  0  0  0  0  0  0  0  0
   18.3100   17.4213    8.6502 H   0  0  0  0  0  0  0  0  0  0  0  0
   18.1517   17.2833    6.8458 H   0  0  0  0  0  0  0  0  0  0  0  0
   20.6538   16.4688    9.7068 H   0  0  0  0  0  0  0  0  0  0  0  0
   21.5028   14.0706   10.3547 H   0  0  0  0  0  0  0  0  0  0  0  0
   21.1117   14.1813   12.7248 H   0  0  0  0  0  0  0  0  0  0  0  0
   22.9667   17.6259   14.8029 H   0  0  0  0  0  0  0  0  0  0  0  0
   23.9840   19.0722   16.2595 H   0  0  0  0  0  0  0  0  0  0  0  0
   25.3698   17.1111   16.7873 H   0  0  0  0  0  0  0  0  0  0  0  0
   26.5030   17.5345   15.4586 H   0  0  0  0  0  0  0  0  0  0  0  0
   25.8673   19.2144   17.9334 H   0  0  0  0  0  0  0  0  0  0  0  0
   27.4042   18.3278   17.5744 H   0  0  0  0  0  0  0  0  0  0  0  0
   26.5357   21.4995   15.0268 H   0  0  0  0  0  0  0  0  0  0  0  0
   24.6442   16.9838   10.8745 H   0  0  0  0  0  0  0  0  0  0  0  0
   22.5947   15.8488    5.9125 H   0  0  0  0  0  0  0  0  0  0  0  0
  1  2  1  0
  2  3  1  0
  3  4  2  0
  4  5  1  0
  5  6  1  0
  6  7  2  0
  6  8  2  0
  6  9  1  0
  9 10  2  0
 10 11  1  0
 11 12  1  0
 12 13  2  0
 12 14  1  0
 14 15  1  0
 15 16  2  0
 15 17  1  0
 17 18  1  0
 18 19  1  0
 19 20  1  0
 20 21  1  0
 21 22  2  0
 21 23  1  0
 23 24  1  0
 24 25  2  0
 14 26  2  0
  5 27  1  0
 27 28  2  0
 28  3  1  0
 26  9  1  0
 24 18  1  0
  1 29  1  0
  1 30  1  0
  1 31  1  0
  2 32  1  0
  2 33  1  0
  4 34  1  0
 10 35  1  0
 11 36  1  0
 17 37  1  0
 18 38  1  1
 19 39  1  0
 19 40  1  0
 20 41  1  0
 20 42  1  0
 23 43  1  0
 26 44  1  0
 27 45  1  0
M  END
>  <meeko>  (1358) 
{"is_sidechain": [true], "free_energy": -10.1, "intermolecular_energy": 0.0, "internal_energy": -10.1, "cluster_size": 13, "cluster_id": 1, "rank_in_cluster": 1}

>  <_RMSD_MCS_to_ref>  (1358) 
0.7070109224364527

$$$$
ligand
     RDKit          3D

 47 50  0  0  0  0  0  0  0  0999 V2000
   18.8250   19.0180    7.5350 C   0  0  0  0  0  0  0  0  0  0  0  0
   18.5200   17.5410    7.7330 C   0  0  0  0  0  0  0  0  0  0  0  0
   19.7220   16.6870    7.5340 C   0  0  0  0  0  0  0  0  0  0  0  0
   20.0320   15.4730    8.1120 C   0  0  0  0  0  0  0  0  0  0  0  0
   21.2370   15.1370    7.5640 N   0  0  0  0  0  0  0  0  0  0  0  0
   22.2170   13.8590    8.0440 S   0  0  0  0  0  6  0  0  0  0  0  0
   22.2880   12.9870    6.8880 O   0  0  0  0  0  0  0  0  0  0  0  0
   21.6770   13.4370    9.3220 O   0  0  0  0  0  0  0  0  0  0  0  0
   23.8440   14.5070    8.3320 C   0  0  0  0  0  0  0  0  0  0  0  0
   24.8810   14.3310    7.3980 C   0  0  0  0  0  0  0  0  0  0  0  0
   26.1540   14.8430    7.6360 C   0  0  0  0  0  0  0  0  0  0  0  0
   26.4250   15.5440    8.8110 C   0  0  0  0  0  0  0  0  0  0  0  0
   25.4100   15.7360    9.7670 C   0  0  0  0  0  0  0  0  0  0  0  0
   25.5640   16.4110   10.9640 N   0  0  0  0  0  0  0  0  0  0  0  0
   24.4220   16.4090   11.6230 C   0  0  0  0  0  0  0  0  0  0  0  0
   24.2640   17.0510   12.9260 C   0  0  0  0  0  0  0  0  0  0  0  0
   23.2240   17.0840   13.5810 O   0  0  0  0  0  0  0  0  0  0  0  0
   25.4190   17.6540   13.3850 N   0  0  0  0  0  0  0  0  0  0  0  0
   25.4450   18.4840   14.5760 C   0  0  1  0  0  0  0  0  0  0  0  0
   26.1150   17.7800   15.7510 C   0  0  0  0  0  0  0  0  0  0  0  0
   26.1350   18.7080   16.9560 C   0  0  0  0  0  0  0  0  0  0  0  0
   26.8100   20.0190   16.6270 C   0  0  0  0  0  0  0  0  0  0  0  0
   27.4660   20.6470   17.4520 O   0  0  0  0  0  0  0  0  0  0  0  0
   26.6290   20.5010   15.3560 N   0  0  0  0  0  0  0  0  0  0  0  0
   26.2080   19.7770   14.2670 C   0  0  0  0  0  0  0  0  0  0  0  0
   26.4260   20.1710   13.1230 O   0  0  0  0  0  0  0  0  0  0  0  0
   23.1190   15.6140   10.8630 S   0  0  0  0  0  0  0  0  0  0  0  0
   24.1340   15.2170    9.5180 C   0  0  0  0  0  0  0  0  0  0  0  0
   21.6320   16.1230    6.7170 C   0  0  0  0  0  0  0  0  0  0  0  0
   20.7350   17.0870    6.6840 N   0  0  0  0  0  0  0  0  0  0  0  0
   18.9258   19.5062    8.5155 H   0  0  0  0  0  0  0  0  0  0  0  0
   19.7645   19.1263    6.9731 H   0  0  0  0  0  0  0  0  0  0  0  0
   18.0053   19.4896    6.9731 H   0  0  0  0  0  0  0  0  0  0  0  0
   18.1443   17.3909    8.7559 H   0  0  0  0  0  0  0  0  0  0  0  0
   17.7698   17.2478    6.9838 H   0  0  0  0  0  0  0  0  0  0  0  0
   19.4427   14.9051    8.8469 H   0  0  0  0  0  0  0  0  0  0  0  0
   24.6835   13.7810    6.4661 H   0  0  0  0  0  0  0  0  0  0  0  0
   26.9509   14.6936    6.8926 H   0  0  0  0  0  0  0  0  0  0  0  0
   27.4326   15.9470    8.9906 H   0  0  0  0  0  0  0  0  0  0  0  0
   26.2948   17.5093   12.8626 H   0  0  0  0  0  0  0  0  0  0  0  0
   24.4044   18.6989   14.8605 H   0  0  0  0  0  0  0  0  0  0  0  0
   25.5530   16.8679   16.0004 H   0  0  0  0  0  0  0  0  0  0  0  0
   27.1465   17.5130   15.4777 H   0  0  0  0  0  0  0  0  0  0  0  0
   25.1005   18.9070   17.2725 H   0  0  0  0  0  0  0  0  0  0  0  0
   26.7008   18.2185   17.7623 H   0  0  0  0  0  0  0  0  0  0  0  0
   26.8274   21.5001   15.2034 H   0  0  0  0  0  0  0  0  0  0  0  0
   22.5686   16.1171    6.1402 H   0  0  0  0  0  0  0  0  0  0  0  0
  1  2  1  0
  2  3  1  0
  3  4  2  0
  4  5  1  0
  5  6  1  0
  6  7  2  0
  6  8  2  0
  6  9  1  0
  9 10  2  0
 10 11  1  0
 11 12  2  0
 12 13  1  0
 13 14  1  0
 14 15  2  0
 15 16  1  0
 16 17  2  0
 16 18  1  0
 18 19  1  0
 19 20  1  0
 20 21  1  0
 21 22  1  0
 22 23  2  0
 22 24  1  0
 24 25  1  0
 25 26  2  0
 15 27  1  0
 27 28  1  0
  5 29  1  0
 29 30  2  0
 30  3  1  0
 28  9  1  0
 28 13  2  0
 25 19  1  0
  1 31  1  0
  1 32  1  0
  1 33  1  0
  2 34  1  0
  2 35  1  0
  4 36  1  0
 10 37  1  0
 11 38  1  0
 12 39  1  0
 18 40  1  0
 19 41  1  1
 20 42  1  0
 20 43  1  0
 21 44  1  0
 21 45  1  0
 24 46  1  0
 29 47  1  0
M  END
>  <meeko>  (1359) 
{"is_sidechain": [true], "free_energy": -10.09, "intermolecular_energy": 0.0, "internal_energy": -10.09, "cluster_size": 19, "cluster_id": 1, "rank_in_cluster": 1}

>  <_RMSD_MCS_to_ref>  (1359) 
0.8523787629660626

$$$$
ligand
     RDKit          3D

 52 56  0  0  0  0  0  0  0  0999 V2000
   18.8250   19.0180    7.5350 C   0  0  0  0  0  0  0  0  0  0  0  0
   18.5200   17.5410    7.7330 C   0  0  0  0  0  0  0  0  0  0  0  0
   19.7280   16.7700    8.1330 C   0  0  0  0  0  0  0  0  0  0  0  0
   20.4500   16.8360    9.3090 C   0  0  0  0  0  0  0  0  0  0  0  0
   21.4100   15.8760    9.1620 N   0  0  0  0  0  0  0  0  0  0  0  0
   22.7030   15.6240   10.2000 S   0  0  0  0  0  6  0  0  0  0  0  0
   22.6980   16.7940   11.0600 O   0  0  0  0  0  0  0  0  0  0  0  0
   23.8570   15.2960    9.3850 O   0  0  0  0  0  0  0  0  0  0  0  0
   22.3240   14.2070   11.2030 C   0  0  0  0  0  0  0  0  0  0  0  0
   21.4730   13.2420   10.6540 C   0  0  0  0  0  0  0  0  0  0  0  0
   21.0920   12.1440   11.4160 C   0  0  0  0  0  0  0  0  0  0  0  0
   21.5410   12.0080   12.7350 C   0  0  0  0  0  0  0  0  0  0  0  0
   21.1480   10.9050   13.5050 C   0  0  0  0  0  0  0  0  0  0  0  0
   21.5920   10.7760   14.8130 C   0  0  0  0  0  0  0  0  0  0  0  0
   22.4150   11.7630   15.3100 C   0  0  0  0  0  0  0  0  0  0  0  0
   22.8080   12.8400   14.5970 N   0  0  0  0  0  0  0  0  0  0  0  0
   22.3920   12.9770   13.3160 C   0  0  0  0  0  0  0  0  0  0  0  0
   22.7820   14.0770   12.5270 C   0  0  0  0  0  0  0  0  0  0  0  0
   23.6920   15.0370   13.1020 C   0  0  0  0  0  0  0  0  0  0  0  0
   23.4120   15.9420   14.0970 C   0  0  0  0  0  0  0  0  0  0  0  0
   24.5750   16.6460   14.2220 N   0  0  0  0  0  0  0  0  0  0  0  0
   24.8630   17.7460   15.1210 C   0  0  1  0  0  0  0  0  0  0  0  0
   26.0250   17.4340   16.0670 C   0  0  0  0  0  0  0  0  0  0  0  0
   26.3180   18.6430   16.9380 C   0  0  0  0  0  0  0  0  0  0  0  0
   26.6190   19.8600   16.0950 C   0  0  0  0  0  0  0  0  0  0  0  0
   27.2360   20.8240   16.5330 O   0  0  0  0  0  0  0  0  0  0  0  0
   26.0780   19.8730   14.8340 N   0  0  0  0  0  0  0  0  0  0  0  0
   25.1220   19.0200   14.3310 C   0  0  0  0  0  0  0  0  0  0  0  0
   24.4600   19.3520   13.3490 O   0  0  0  0  0  0  0  0  0  0  0  0
   25.5180   16.1850   13.3770 N   0  0  0  0  0  0  0  0  0  0  0  0
   24.9800   15.1930   12.6810 N   0  0  0  0  0  0  0  0  0  0  0  0
   21.3150   15.3370    7.9190 C   0  0  0  0  0  0  0  0  0  0  0  0
   20.2880   15.8500    7.2710 N   0  0  0  0  0  0  0  0  0  0  0  0
   18.9258   19.5062    8.5155 H   0  0  0  0  0  0  0  0  0  0  0  0
   19.7645   19.1263    6.9731 H   0  0  0  0  0  0  0  0  0  0  0  0
   18.0053   19.4896    6.9731 H   0  0  0  0  0  0  0  0  0  0  0  0
   17.7571   17.4384    8.5188 H   0  0  0  0  0  0  0  0  0  0  0  0
   18.1617   17.1371    6.7746 H   0  0  0  0  0  0  0  0  0  0  0  0
   20.2888   17.5068   10.1658 H   0  0  0  0  0  0  0  0  0  0  0  0
   21.1066   13.3519    9.6226 H   0  0  0  0  0  0  0  0  0  0  0  0
   20.4341   11.3776   10.9804 H   0  0  0  0  0  0  0  0  0  0  0  0
   20.4865   10.1404   13.0716 H   0  0  0  0  0  0  0  0  0  0  0  0
   21.2973    9.9157   15.4318 H   0  0  0  0  0  0  0  0  0  0  0  0
   22.7720   11.6681   16.3461 H   0  0  0  0  0  0  0  0  0  0  0  0
   22.4748   16.0690   14.6587 H   0  0  0  0  0  0  0  0  0  0  0  0
   23.9762   17.8980   15.7538 H   0  0  0  0  0  0  0  0  0  0  0  0
   25.7564   16.5800   16.7061 H   0  0  0  0  0  0  0  0  0  0  0  0
   26.9189   17.1874   15.4753 H   0  0  0  0  0  0  0  0  0  0  0  0
   25.4421   18.8513   17.5700 H   0  0  0  0  0  0  0  0  0  0  0  0
   27.1985   18.4214   17.5589 H   0  0  0  0  0  0  0  0  0  0  0  0
   26.4255   20.6010   14.1936 H   0  0  0  0  0  0  0  0  0  0  0  0
   21.9991   14.5787    7.5103 H   0  0  0  0  0  0  0  0  0  0  0  0
  1  2  1  0
  2  3  1  0
  3  4  2  0
  4  5  1  0
  5  6  1  0
  6  7  2  0
  6  8  2  0
  6  9  1  0
  9 10  2  0
 10 11  1  0
 11 12  2  0
 12 13  1  0
 13 14  2  0
 14 15  1  0
 15 16  2  0
 16 17  1  0
 17 18  2  0
 18 19  1  0
 19 20  2  0
 20 21  1  0
 21 22  1  0
 22 23  1  0
 23 24  1  0
 24 25  1  0
 25 26  2  0
 25 27  1  0
 27 28  1  0
 28 29  2  0
 21 30  1  0
 30 31  2  0
  5 32  1  0
 32 33  2  0
 33  3  1  0
 18  9  1  0
 31 19  1  0
 17 12  1  0
 28 22  1  0
  1 34  1  0
  1 35  1  0
  1 36  1  0
  2 37  1  0
  2 38  1  0
  4 39  1  0
 10 40  1  0
 11 41  1  0
 13 42  1  0
 14 43  1  0
 15 44  1  0
 20 45  1  0
 22 46  1  1
 23 47  1  0
 23 48  1  0
 24 49  1  0
 24 50  1  0
 27 51  1  0
 32 52  1  0
M  END
>  <meeko>  (1360) 
{"is_sidechain": [true], "free_energy": -10.09, "intermolecular_energy": 0.0, "internal_energy": -10.09, "cluster_size": 18, "cluster_id": 1, "rank_in_cluster": 1}

>  <_RMSD_MCS_to_ref>  (1360) 
0.663085799710549

$$$$
ligand
     RDKit          3D

 50 53  0  0  0  0  0  0  0  0999 V2000
   18.7970   18.8170    7.7190 C   0  0  0  0  0  0  0  0  0  0  0  0
   18.5280   17.3290    7.8810 C   0  0  0  0  0  0  0  0  0  0  0  0
   19.7750   16.5210    7.8060 C   0  0  0  0  0  0  0  0  0  0  0  0
   20.1060   15.3680    8.4910 C   0  0  0  0  0  0  0  0  0  0  0  0
   21.3480   15.0450    8.0220 N   0  0  0  0  0  0  0  0  0  0  0  0
   22.3500   13.8430    8.6270 S   0  0  0  0  0  6  0  0  0  0  0  0
   21.4670   12.7660    9.0310 O   0  0  0  0  0  0  0  0  0  0  0  0
   23.3840   13.6700    7.6260 O   0  0  0  0  0  0  0  0  0  0  0  0
   23.1200   14.4740   10.0900 C   0  0  0  0  0  0  0  0  0  0  0  0
   22.6550   14.1870   11.3780 C   0  0  0  0  0  0  0  0  0  0  0  0
   23.3000   14.7400   12.5000 C   0  0  0  0  0  0  0  0  0  0  0  0
   24.4160   15.5820   12.3590 C   0  0  0  0  0  0  0  0  0  0  0  0
   25.0480   16.1350   13.5910 C   0  0  0  0  0  0  0  0  0  0  0  0
   25.0050   15.5040   14.6440 O   0  0  0  0  0  0  0  0  0  0  0  0
   25.6740   17.3530   13.4880 N   0  0  0  0  0  0  0  0  0  0  0  0
   26.4310   17.9310   14.5860 C   0  0  2  0  0  0  0  0  0  0  0  0
   25.7050   17.7830   15.9200 C   0  0  0  0  0  0  0  0  0  0  0  0
   26.5360   18.4200   17.0220 C   0  0  0  0  0  0  0  0  0  0  0  0
   26.8450   19.8640   16.7090 C   0  0  0  0  0  0  0  0  0  0  0  0
   26.9400   20.7220   17.5830 O   0  0  0  0  0  0  0  0  0  0  0  0
   27.0500   20.1780   15.3890 N   0  0  0  0  0  0  0  0  0  0  0  0
   26.6650   19.4210   14.3090 C   0  0  0  0  0  0  0  0  0  0  0  0
   26.5410   19.9290   13.1960 O   0  0  0  0  0  0  0  0  0  0  0  0
   24.8630   15.8370   11.0690 C   0  0  0  0  0  0  0  0  0  0  0  0
   24.2330   15.2970    9.9510 C   0  0  0  0  0  0  0  0  0  0  0  0
   24.8970   15.8060    8.7250 C   0  0  0  0  0  0  0  0  0  0  0  0
   26.1810   16.3450    9.3460 C   0  0  0  0  0  0  0  0  0  0  0  0
   25.9300   16.6400   10.7390 O   0  0  0  0  0  0  0  0  0  0  0  0
   21.7440   15.9850    7.1250 C   0  0  0  0  0  0  0  0  0  0  0  0
   20.8110   16.9000    6.9750 N   0  0  0  0  0  0  0  0  0  0  0  0
   18.8815   19.2845    8.7111 H   0  0  0  0  0  0  0  0  0  0  0  0
   19.7359   18.9616    7.1643 H   0  0  0  0  0  0  0  0  0  0  0  0
   17.9682   19.2812    7.1643 H   0  0  0  0  0  0  0  0  0  0  0  0
   18.0541   17.1591    8.8590 H   0  0  0  0  0  0  0  0  0  0  0  0
   17.8708   17.0130    7.0574 H   0  0  0  0  0  0  0  0  0  0  0  0
   19.5068   14.8325    9.2421 H   0  0  0  0  0  0  0  0  0  0  0  0
   21.7844   13.5285   11.5138 H   0  0  0  0  0  0  0  0  0  0  0  0
   22.9230   14.5085   13.5071 H   0  0  0  0  0  0  0  0  0  0  0  0
   25.6047   17.8747   12.6026 H   0  0  0  0  0  0  0  0  0  0  0  0
   27.3867   17.3909   14.6560 H   0  0  0  0  0  0  0  0  0  0  0  0
   24.7269   18.2830   15.8627 H   0  0  0  0  0  0  0  0  0  0  0  0
   25.5585   16.7155   16.1415 H   0  0  0  0  0  0  0  0  0  0  0  0
   25.9763   18.3699   17.9676 H   0  0  0  0  0  0  0  0  0  0  0  0
   27.4856   17.8708   17.1031 H   0  0  0  0  0  0  0  0  0  0  0  0
   27.5376   21.0630   15.1894 H   0  0  0  0  0  0  0  0  0  0  0  0
   25.0963   15.0019    8.0013 H   0  0  0  0  0  0  0  0  0  0  0  0
   24.3142   16.5350    8.1428 H   0  0  0  0  0  0  0  0  0  0  0  0
   26.9774   15.5906    9.2644 H   0  0  0  0  0  0  0  0  0  0  0  0
   26.4995   17.2569    8.8198 H   0  0  0  0  0  0  0  0  0  0  0  0
   22.7095   15.9815    6.5979 H   0  0  0  0  0  0  0  0  0  0  0  0
  1  2  1  0
  2  3  1  0
  3  4  2  0
  4  5  1  0
  5  6  1  0
  6  7  2  0
  6  8  2  0
  6  9  1  0
  9 10  2  0
 10 11  1  0
 11 12  2  0
 12 13  1  0
 13 14  2  0
 13 15  1  0
 15 16  1  0
 16 17  1  0
 17 18  1  0
 18 19  1  0
 19 20  2  0
 19 21  1  0
 21 22  1  0
 22 23  2  0
 12 24  1  0
 24 25  2  0
 25 26  1  0
 26 27  1  0
 27 28  1  0
  5 29  1  0
 29 30  2  0
 30  3  1  0
 25  9  1  0
 22 16  1  0
 28 24  1  0
  1 31  1  0
  1 32  1  0
  1 33  1  0
  2 34  1  0
  2 35  1  0
  4 36  1  0
 10 37  1  0
 11 38  1  0
 15 39  1  0
 16 40  1  1
 17 41  1  0
 17 42  1  0
 18 43  1  0
 18 44  1  0
 21 45  1  0
 26 46  1  0
 26 47  1  0
 27 48  1  0
 27 49  1  0
 29 50  1  0
M  END
>  <meeko>  (1361) 
{"is_sidechain": [true], "free_energy": -10.09, "intermolecular_energy": 0.0, "internal_energy": -10.09, "cluster_size": 15, "cluster_id": 1, "rank_in_cluster": 1}

>  <_RMSD_MCS_to_ref>  (1361) 
1.0225650210241994

$$$$
ligand
     RDKit          3D

 55 59  0  0  0  0  0  0  0  0999 V2000
   18.7970   18.8170    7.7190 C   0  0  0  0  0  0  0  0  0  0  0  0
   18.5280   17.3290    7.8810 C   0  0  0  0  0  0  0  0  0  0  0  0
   19.4390   16.5010    7.0450 C   0  0  0  0  0  0  0  0  0  0  0  0
   20.8130   16.3800    7.1120 C   0  0  0  0  0  0  0  0  0  0  0  0
   21.1230   15.5150    6.1020 N   0  0  0  0  0  0  0  0  0  0  0  0
   22.6300   14.8260    5.8270 S   0  0  0  0  0  6  0  0  0  0  0  0
   23.5740   15.9260    5.8190 O   0  0  0  0  0  0  0  0  0  0  0  0
   22.4610   13.9380    4.6920 O   0  0  0  0  0  0  0  0  0  0  0  0
   22.9170   13.8500    7.2710 C   0  0  0  0  0  0  0  0  0  0  0  0
   22.5110   12.5210    7.2910 C   0  0  0  0  0  0  0  0  0  0  0  0
   22.7380   11.8150    8.4510 C   0  0  0  0  0  0  0  0  0  0  0  0
   23.3230   12.3450    9.5470 N   0  0  0  0  0  0  0  0  0  0  0  0
   23.7100   13.6480    9.5220 C   0  0  0  0  0  0  0  0  0  0  0  0
   24.3340   14.1550   10.7650 C   0  0  0  0  0  0  0  0  0  0  0  0
   25.3780   13.4210   11.3940 C   0  0  0  0  0  0  0  0  0  0  0  0
   26.0070   13.8550   12.5720 C   0  0  0  0  0  0  0  0  0  0  0  0
   25.5840   15.0420   13.1320 C   0  0  0  0  0  0  0  0  0  0  0  0
   24.5670   15.7700   12.5240 C   0  0  0  0  0  0  0  0  0  0  0  0
   23.9370   15.3660   11.3580 C   0  0  0  0  0  0  0  0  0  0  0  0
   24.3310   16.9780   13.3210 C   0  0  0  0  0  0  0  0  0  0  0  0
   23.5400   17.8570   13.0380 O   0  0  0  0  0  0  0  0  0  0  0  0
   25.1680   16.9000   14.4250 N   0  0  0  0  0  0  0  0  0  0  0  0
   25.3860   18.0390   15.3080 C   0  0  1  0  0  0  0  0  0  0  0  0
   26.0640   17.6410   16.6160 C   0  0  0  0  0  0  0  0  0  0  0  0
   26.1750   18.8610   17.5180 C   0  0  0  0  0  0  0  0  0  0  0  0
   26.9050   19.9880   16.8230 C   0  0  0  0  0  0  0  0  0  0  0  0
   27.6570   20.7500   17.4220 O   0  0  0  0  0  0  0  0  0  0  0  0
   26.6710   20.1340   15.4800 N   0  0  0  0  0  0  0  0  0  0  0  0
   26.2130   19.1480   14.6340 C   0  0  0  0  0  0  0  0  0  0  0  0
   26.4780   19.1880   13.4350 O   0  0  0  0  0  0  0  0  0  0  0  0
   26.0700   15.7560   14.3480 C   0  0  0  0  0  0  0  0  0  0  0  0
   23.5110   14.4340    8.3920 C   0  0  0  0  0  0  0  0  0  0  0  0
   19.9780   15.1050    5.4990 C   0  0  0  0  0  0  0  0  0  0  0  0
   18.9340   15.6940    6.0430 N   0  0  0  0  0  0  0  0  0  0  0  0
   18.8815   19.2845    8.7111 H   0  0  0  0  0  0  0  0  0  0  0  0
   19.7359   18.9616    7.1643 H   0  0  0  0  0  0  0  0  0  0  0  0
   17.9682   19.2812    7.1643 H   0  0  0  0  0  0  0  0  0  0  0  0
   18.6696   17.0559    8.9371 H   0  0  0  0  0  0  0  0  0  0  0  0
   17.4964   17.1337    7.5530 H   0  0  0  0  0  0  0  0  0  0  0  0
   21.5007   16.8688    7.8178 H   0  0  0  0  0  0  0  0  0  0  0  0
   22.0298   12.0540    6.4190 H   0  0  0  0  0  0  0  0  0  0  0  0
   22.4256   10.7609    8.4872 H   0  0  0  0  0  0  0  0  0  0  0  0
   25.7058   12.4748   10.9388 H   0  0  0  0  0  0  0  0  0  0  0  0
   26.8128   13.2659   13.0341 H   0  0  0  0  0  0  0  0  0  0  0  0
   23.1436   15.9795   10.9063 H   0  0  0  0  0  0  0  0  0  0  0  0
   24.3817   18.4271   15.5333 H   0  0  0  0  0  0  0  0  0  0  0  0
   25.4664   16.8661   17.1184 H   0  0  0  0  0  0  0  0  0  0  0  0
   27.0691   17.2473   16.4044 H   0  0  0  0  0  0  0  0  0  0  0  0
   25.1644   19.2007   17.7886 H   0  0  0  0  0  0  0  0  0  0  0  0
   26.7425   18.5797   18.4174 H   0  0  0  0  0  0  0  0  0  0  0  0
   26.8533   21.0604   15.0683 H   0  0  0  0  0  0  0  0  0  0  0  0
   27.1141   16.0806   14.2275 H   0  0  0  0  0  0  0  0  0  0  0  0
   26.0648   15.1321   15.2539 H   0  0  0  0  0  0  0  0  0  0  0  0
   23.8145   15.4913    8.3814 H   0  0  0  0  0  0  0  0  0  0  0  0
   19.9294   14.3818    4.6716 H   0  0  0  0  0  0  0  0  0  0  0  0
  1  2  1  0
  2  3  1  0
  3  4  2  0
  4  5  1  0
  5  6  1  0
  6  7  2  0
  6  8  2  0
  6  9  1  0
  9 10  2  0
 10 11  1  0
 11 12  2  0
 12 13  1  0
 13 14  1  0
 14 15  2  0
 15 16  1  0
 16 17  2  0
 17 18  1  0
 18 19  2  0
 18 20  1  0
 20 21  2  0
 20 22  1  0
 22 23  1  0
 23 24  1  0
 24 25  1  0
 25 26  1  0
 26 27  2  0
 26 28  1  0
 28 29  1  0
 29 30  2  0
 22 31  1  0
 13 32  2  0
  5 33  1  0
 33 34  2  0
 34  3  1  0
 32  9  1  0
 19 14  1  0
 29 23  1  0
 31 17  1  0
  1 35  1  0
  1 36  1  0
  1 37  1  0
  2 38  1  0
  2 39  1  0
  4 40  1  0
 10 41  1  0
 11 42  1  0
 15 43  1  0
 16 44  1  0
 19 45  1  0
 23 46  1  1
 24 47  1  0
 24 48  1  0
 25 49  1  0
 25 50  1  0
 28 51  1  0
 31 52  1  0
 31 53  1  0
 32 54  1  0
 33 55  1  0
M  END
>  <meeko>  (1362) 
{"is_sidechain": [true], "free_energy": -10.09, "intermolecular_energy": 0.0, "internal_energy": -10.09, "cluster_size": 13, "cluster_id": 1, "rank_in_cluster": 1}

>  <_RMSD_MCS_to_ref>  (1362) 
1.380478922532161

$$$$
ligand
     RDKit          3D

 53 57  0  0  0  0  0  0  0  0999 V2000
   18.9090   19.1540    7.5370 C   0  0  0  0  0  0  0  0  0  0  0  0
   18.7730   17.6460    7.6780 C   0  0  0  0  0  0  0  0  0  0  0  0
   19.6200   16.9120    6.7000 C   0  0  0  0  0  0  0  0  0  0  0  0
   20.9950   16.7830    6.6640 C   0  0  0  0  0  0  0  0  0  0  0  0
   21.2340   16.0320    5.5490 N   0  0  0  0  0  0  0  0  0  0  0  0
   22.7040   15.3490    5.1230 S   0  0  0  0  0  6  0  0  0  0  0  0
   23.5740   16.4450    4.7470 O   0  0  0  0  0  0  0  0  0  0  0  0
   22.4010   14.2320    4.2520 O   0  0  0  0  0  0  0  0  0  0  0  0
   23.4190   14.6630    6.5400 C   0  0  0  0  0  0  0  0  0  0  0  0
   23.8900   13.3720    6.6190 C   0  0  0  0  0  0  0  0  0  0  0  0
   24.5040   13.0160    8.1740 S   0  0  0  0  0  0  0  0  0  0  0  0
   24.1480   14.5910    8.7600 C   0  0  0  0  0  0  0  0  0  0  0  0
   24.4810   14.9670   10.1420 C   0  0  0  0  0  0  0  0  0  0  0  0
   24.6900   13.9520   11.1090 C   0  0  0  0  0  0  0  0  0  0  0  0
   25.0200   14.2630   12.4320 C   0  0  0  0  0  0  0  0  0  0  0  0
   25.1400   15.5990   12.7560 C   0  0  0  0  0  0  0  0  0  0  0  0
   24.9440   16.6190   11.8290 C   0  0  0  0  0  0  0  0  0  0  0  0
   24.6150   16.3180   10.5170 C   0  0  0  0  0  0  0  0  0  0  0  0
   25.1230   17.9480   12.4860 C   0  0  0  0  0  0  0  0  0  0  0  0
   25.5340   17.5820   13.8360 N   0  0  0  0  0  0  0  0  0  0  0  0
   25.5910   18.5290   14.9430 C   0  0  1  0  0  0  0  0  0  0  0  0
   26.2640   17.9400   16.1800 C   0  0  0  0  0  0  0  0  0  0  0  0
   26.2030   18.9500   17.3160 C   0  0  0  0  0  0  0  0  0  0  0  0
   26.8220   20.2670   16.9080 C   0  0  0  0  0  0  0  0  0  0  0  0
   27.4620   20.9620   17.6910 O   0  0  0  0  0  0  0  0  0  0  0  0
   26.6200   20.6640   15.6110 N   0  0  0  0  0  0  0  0  0  0  0  0
   26.3090   19.8330   14.5580 C   0  0  0  0  0  0  0  0  0  0  0  0
   26.6120   20.1470   13.4100 O   0  0  0  0  0  0  0  0  0  0  0  0
   25.4720   16.2120   14.0470 C   0  0  0  0  0  0  0  0  0  0  0  0
   25.6540   15.6040   15.0830 O   0  0  0  0  0  0  0  0  0  0  0  0
   23.5760   15.3700    7.7700 C   0  0  0  0  0  0  0  0  0  0  0  0
   20.0490   15.6800    4.9880 C   0  0  0  0  0  0  0  0  0  0  0  0
   19.0460   16.2130    5.6560 N   0  0  0  0  0  0  0  0  0  0  0  0
   18.9504   19.6134    8.5356 H   0  0  0  0  0  0  0  0  0  0  0  0
   19.8320   19.3891    6.9867 H   0  0  0  0  0  0  0  0  0  0  0  0
   18.0430   19.5504    6.9867 H   0  0  0  0  0  0  0  0  0  0  0  0
   19.0748   17.3566    8.6954 H   0  0  0  0  0  0  0  0  0  0  0  0
   17.7235   17.3815    7.4815 H   0  0  0  0  0  0  0  0  0  0  0  0
   21.7302   17.1923    7.3725 H   0  0  0  0  0  0  0  0  0  0  0  0
   23.8733   12.6568    5.7835 H   0  0  0  0  0  0  0  0  0  0  0  0
   24.5905   12.8974   10.8126 H   0  0  0  0  0  0  0  0  0  0  0  0
   25.1774   13.4751   13.1833 H   0  0  0  0  0  0  0  0  0  0  0  0
   24.4611   17.1207    9.7808 H   0  0  0  0  0  0  0  0  0  0  0  0
   25.9008   18.5394   11.9806 H   0  0  0  0  0  0  0  0  0  0  0  0
   24.2197   18.5752   12.4583 H   0  0  0  0  0  0  0  0  0  0  0  0
   24.5418   18.7553   15.1837 H   0  0  0  0  0  0  0  0  0  0  0  0
   25.7417   17.0192   16.4789 H   0  0  0  0  0  0  0  0  0  0  0  0
   27.3143   17.7063   15.9514 H   0  0  0  0  0  0  0  0  0  0  0  0
   25.1513   19.1175   17.5915 H   0  0  0  0  0  0  0  0  0  0  0  0
   26.7677   18.5488   18.1705 H   0  0  0  0  0  0  0  0  0  0  0  0
   26.7085   21.6697   15.4071 H   0  0  0  0  0  0  0  0  0  0  0  0
   23.2755   16.4182    7.9148 H   0  0  0  0  0  0  0  0  0  0  0  0
   19.9412   15.0396    4.1002 H   0  0  0  0  0  0  0  0  0  0  0  0
  1  2  1  0
  2  3  1  0
  3  4  2  0
  4  5  1  0
  5  6  1  0
  6  7  2  0
  6  8  2  0
  6  9  1  0
  9 10  2  0
 10 11  1  0
 11 12  1  0
 12 13  1  0
 13 14  2  0
 14 15  1  0
 15 16  2  0
 16 17  1  0
 17 18  2  0
 17 19  1  0
 19 20  1  0
 20 21  1  0
 21 22  1  0
 22 23  1  0
 23 24  1  0
 24 25  2  0
 24 26  1  0
 26 27  1  0
 27 28  2  0
 20 29  1  0
 29 30  2  0
 12 31  2  0
  5 32  1  0
 32 33  2  0
 33  3  1  0
 31  9  1  0
 18 13  1  0
 27 21  1  0
 29 16  1  0
  1 34  1  0
  1 35  1  0
  1 36  1  0
  2 37  1  0
  2 38  1  0
  4 39  1  0
 10 40  1  0
 14 41  1  0
 15 42  1  0
 18 43  1  0
 19 44  1  0
 19 45  1  0
 21 46  1  1
 22 47  1  0
 22 48  1  0
 23 49  1  0
 23 50  1  0
 26 51  1  0
 31 52  1  0
 32 53  1  0
M  END
>  <meeko>  (1363) 
{"is_sidechain": [true], "free_energy": -10.09, "intermolecular_energy": 0.0, "internal_energy": -10.09, "cluster_size": 8, "cluster_id": 1, "rank_in_cluster": 1}

>  <_RMSD_MCS_to_ref>  (1363) 
1.4141484874101602

$$$$
ligand
     RDKit          3D

 46 49  0  0  0  0  0  0  0  0999 V2000
   18.9090   19.1540    7.5370 C   0  0  0  0  0  0  0  0  0  0  0  0
   18.7730   17.6460    7.6780 C   0  0  0  0  0  0  0  0  0  0  0  0
   20.0420   16.9340    7.3620 C   0  0  0  0  0  0  0  0  0  0  0  0
   21.1760   16.7950    8.1370 C   0  0  0  0  0  0  0  0  0  0  0  0
   22.0330   16.0800    7.3500 N   0  0  0  0  0  0  0  0  0  0  0  0
   23.4900   15.3970    7.8500 S   0  0  0  0  0  6  0  0  0  0  0  0
   24.4340   15.7220    6.7990 O   0  0  0  0  0  0  0  0  0  0  0  0
   23.1640   14.0220    8.1800 O   0  0  0  0  0  0  0  0  0  0  0  0
   23.9160   16.1840    9.2110 O   0  0  0  0  0  0  0  0  0  0  0  0
   23.3630   15.8840   10.4270 C   0  0  0  0  0  0  0  0  0  0  0  0
   22.3210   14.9970   10.6650 C   0  0  0  0  0  0  0  0  0  0  0  0
   21.8170   14.7450   11.8970 N   0  0  0  0  0  0  0  0  0  0  0  0
   22.3770   15.4020   12.9410 C   0  0  0  0  0  0  0  0  0  0  0  0
   23.4200   16.3070   12.8080 C   0  0  0  0  0  0  0  0  0  0  0  0
   24.0000   17.0140   13.9650 C   0  0  0  0  0  0  0  0  0  0  0  0
   23.3230   17.8390   14.6990 N   0  0  0  0  0  0  0  0  0  0  0  0
   24.1910   18.3260   15.7000 O   0  0  0  0  0  0  0  0  0  0  0  0
   25.5360   17.9990   15.3310 C   0  0  2  0  0  0  0  0  0  0  0  0
   26.3370   17.6800   16.5910 C   0  0  0  0  0  0  0  0  0  0  0  0
   26.3810   18.8920   17.5140 C   0  0  0  0  0  0  0  0  0  0  0  0
   26.8920   20.1160   16.7930 C   0  0  0  0  0  0  0  0  0  0  0  0
   27.5990   20.9550   17.3430 O   0  0  0  0  0  0  0  0  0  0  0  0
   26.5230   20.2540   15.4790 N   0  0  0  0  0  0  0  0  0  0  0  0
   26.1690   19.2180   14.6480 C   0  0  0  0  0  0  0  0  0  0  0  0
   26.3960   19.2820   13.4420 O   0  0  0  0  0  0  0  0  0  0  0  0
   25.4120   16.8060   14.4020 C   0  0  0  0  0  0  0  0  0  0  0  0
   23.9150   16.5480   11.5230 C   0  0  0  0  0  0  0  0  0  0  0  0
   21.4020   15.7440    6.1960 C   0  0  0  0  0  0  0  0  0  0  0  0
   20.1960   16.2720    6.1600 N   0  0  0  0  0  0  0  0  0  0  0  0
   18.9504   19.6134    8.5356 H   0  0  0  0  0  0  0  0  0  0  0  0
   19.8320   19.3891    6.9867 H   0  0  0  0  0  0  0  0  0  0  0  0
   18.0430   19.5504    6.9867 H   0  0  0  0  0  0  0  0  0  0  0  0
   18.4839   17.4118    8.7132 H   0  0  0  0  0  0  0  0  0  0  0  0
   18.0092   17.3078    6.9623 H   0  0  0  0  0  0  0  0  0  0  0  0
   21.3495   17.1735    9.1552 H   0  0  0  0  0  0  0  0  0  0  0  0
   21.8807   14.4700    9.8057 H   0  0  0  0  0  0  0  0  0  0  0  0
   21.9831   15.2072   13.9494 H   0  0  0  0  0  0  0  0  0  0  0  0
   25.8627   16.8395   17.1189 H   0  0  0  0  0  0  0  0  0  0  0  0
   27.3646   17.4138   16.3026 H   0  0  0  0  0  0  0  0  0  0  0  0
   25.3663   19.0943   17.8875 H   0  0  0  0  0  0  0  0  0  0  0  0
   27.0660   18.6690   18.3453 H   0  0  0  0  0  0  0  0  0  0  0  0
   26.5103   21.2058   15.0854 H   0  0  0  0  0  0  0  0  0  0  0  0
   26.1187   16.8601   13.5608 H   0  0  0  0  0  0  0  0  0  0  0  0
   25.6349   15.8261   14.8494 H   0  0  0  0  0  0  0  0  0  0  0  0
   24.7396   17.2610   11.3760 H   0  0  0  0  0  0  0  0  0  0  0  0
   21.8369   15.1186    5.4024 H   0  0  0  0  0  0  0  0  0  0  0  0
  1  2  1  0
  2  3  1  0
  3  4  2  0
  4  5  1  0
  5  6  1  0
  6  7  2  0
  6  8  2  0
  6  9  1  0
  9 10  1  0
 10 11  2  0
 11 12  1  0
 12 13  2  0
 13 14  1  0
 14 15  1  0
 15 16  2  0
 16 17  1  0
 18 17  1  1
 18 19  1  0
 19 20  1  0
 20 21  1  0
 21 22  2  0
 21 23  1  0
 23 24  1  0
 24 25  2  0
 18 26  1  0
 14 27  2  0
  5 28  1  0
 28 29  2  0
 29  3  1  0
 27 10  1  0
 26 15  1  0
 24 18  1  0
  1 30  1  0
  1 31  1  0
  1 32  1  0
  2 33  1  0
  2 34  1  0
  4 35  1  0
 11 36  1  0
 13 37  1  0
 19 38  1  0
 19 39  1  0
 20 40  1  0
 20 41  1  0
 23 42  1  0
 26 43  1  0
 26 44  1  0
 27 45  1  0
 28 46  1  0
M  END
>  <meeko>  (1364) 
{"is_sidechain": [true], "free_energy": -10.09, "intermolecular_energy": 0.0, "internal_energy": -10.09, "cluster_size": 20, "cluster_id": 1, "rank_in_cluster": 1}

>  <_RMSD_MCS_to_ref>  (1364) 
1.0401990194188802

$$$$
ligand
     RDKit          3D

 47 50  0  0  0  0  0  0  0  0999 V2000
   18.9090   19.1540    7.5370 C   0  0  0  0  0  0  0  0  0  0  0  0
   18.7730   17.6460    7.6780 C   0  0  0  0  0  0  0  0  0  0  0  0
   19.9980   16.9280    7.2320 C   0  0  0  0  0  0  0  0  0  0  0  0
   20.7500   15.9900    7.9110 C   0  0  0  0  0  0  0  0  0  0  0  0
   21.7420   15.6570    7.0330 N   0  0  0  0  0  0  0  0  0  0  0  0
   23.0380   14.6480    7.3660 S   0  0  0  0  0  6  0  0  0  0  0  0
   23.9510   14.7400    6.2460 O   0  0  0  0  0  0  0  0  0  0  0  0
   22.4500   13.3910    7.7890 O   0  0  0  0  0  0  0  0  0  0  0  0
   23.9200   15.2130    8.7560 C   0  0  0  0  0  0  0  0  0  0  0  0
   25.1830   15.7470    8.9030 C   0  0  0  0  0  0  0  0  0  0  0  0
   25.4530   16.0530   10.2100 N   0  0  0  0  0  0  0  0  0  0  0  0
   24.3620   15.7170   10.8710 C   0  0  0  0  0  0  0  0  0  0  0  0
   24.0380   15.7920   12.2490 C   0  0  0  0  0  0  0  0  0  0  0  0
   24.9770   16.3270   13.2820 C   0  0  0  0  0  0  0  0  0  0  0  0
   25.6350   15.5790   14.0000 O   0  0  0  0  0  0  0  0  0  0  0  0
   25.0580   17.6910   13.3680 N   0  0  0  0  0  0  0  0  0  0  0  0
   25.9740   18.3620   14.2750 C   0  0  2  0  0  0  0  0  0  0  0  0
   25.7380   17.9410   15.7220 C   0  0  0  0  0  0  0  0  0  0  0  0
   26.7130   18.6740   16.6300 C   0  0  0  0  0  0  0  0  0  0  0  0
   26.6040   20.1700   16.4570 C   0  0  0  0  0  0  0  0  0  0  0  0
   26.7990   20.9550   17.3810 O   0  0  0  0  0  0  0  0  0  0  0  0
   26.3100   20.6230   15.1960 N   0  0  0  0  0  0  0  0  0  0  0  0
   25.8040   19.8810   14.1570 C   0  0  0  0  0  0  0  0  0  0  0  0
   25.2750   20.4300   13.1920 O   0  0  0  0  0  0  0  0  0  0  0  0
   22.8340   15.3660   12.6640 C   0  0  0  0  0  0  0  0  0  0  0  0
   21.9170   14.8350   11.6360 C   0  0  0  0  0  0  0  0  0  0  0  0
   22.1640   14.7430   10.3680 N   0  0  0  0  0  0  0  0  0  0  0  0
   23.3980   15.2000   10.0210 N   0  0  0  0  0  0  0  0  0  0  0  0
   21.6030   16.3960    5.9030 C   0  0  0  0  0  0  0  0  0  0  0  0
   20.5430   17.1750    5.9870 N   0  0  0  0  0  0  0  0  0  0  0  0
   18.9504   19.6134    8.5356 H   0  0  0  0  0  0  0  0  0  0  0  0
   19.8320   19.3891    6.9867 H   0  0  0  0  0  0  0  0  0  0  0  0
   18.0430   19.5504    6.9867 H   0  0  0  0  0  0  0  0  0  0  0  0
   18.5854   17.4043    8.7346 H   0  0  0  0  0  0  0  0  0  0  0  0
   17.9388   17.3205    7.0392 H   0  0  0  0  0  0  0  0  0  0  0  0
   20.5874   15.6001    8.9266 H   0  0  0  0  0  0  0  0  0  0  0  0
   25.8866   15.9073    8.0728 H   0  0  0  0  0  0  0  0  0  0  0  0
   24.4470   18.2628   12.7675 H   0  0  0  0  0  0  0  0  0  0  0  0
   26.9970   18.0730   13.9923 H   0  0  0  0  0  0  0  0  0  0  0  0
   24.7072   18.1915   16.0130 H   0  0  0  0  0  0  0  0  0  0  0  0
   25.8934   16.8562   15.8177 H   0  0  0  0  0  0  0  0  0  0  0  0
   26.4909   18.4170   17.6762 H   0  0  0  0  0  0  0  0  0  0  0  0
   27.7349   18.3668   16.3627 H   0  0  0  0  0  0  0  0  0  0  0  0
   26.4866   21.6205   15.0096 H   0  0  0  0  0  0  0  0  0  0  0  0
   22.5436   15.4107   13.7240 H   0  0  0  0  0  0  0  0  0  0  0  0
   20.9322   14.4849   11.9790 H   0  0  0  0  0  0  0  0  0  0  0  0
   22.2806   16.3511    5.0376 H   0  0  0  0  0  0  0  0  0  0  0  0
  1  2  1  0
  2  3  1  0
  3  4  2  0
  4  5  1  0
  5  6  1  0
  6  7  2  0
  6  8  2  0
  6  9  1  0
  9 10  2  0
 10 11  1  0
 11 12  2  0
 12 13  1  0
 13 14  1  0
 14 15  2  0
 14 16  1  0
 16 17  1  0
 17 18  1  0
 18 19  1  0
 19 20  1  0
 20 21  2  0
 20 22  1  0
 22 23  1  0
 23 24  2  0
 13 25  2  0
 25 26  1  0
 26 27  2  0
 27 28  1  0
  5 29  1  0
 29 30  2  0
 30  3  1  0
 28  9  1  0
 28 12  1  0
 23 17  1  0
  1 31  1  0
  1 32  1  0
  1 33  1  0
  2 34  1  0
  2 35  1  0
  4 36  1  0
 10 37  1  0
 16 38  1  0
 17 39  1  6
 18 40  1  0
 18 41  1  0
 19 42  1  0
 19 43  1  0
 22 44  1  0
 25 45  1  0
 26 46  1  0
 29 47  1  0
M  END
>  <meeko>  (1365) 
{"is_sidechain": [true], "free_energy": -10.09, "intermolecular_energy": 0.0, "internal_energy": -10.09, "cluster_size": 9, "cluster_id": 1, "rank_in_cluster": 1}

>  <_RMSD_MCS_to_ref>  (1365) 
0.639864134884204

$$$$
ligand
     RDKit          3D

 47 50  0  0  0  0  0  0  0  0999 V2000
   18.9090   19.1540    7.5370 C   0  0  0  0  0  0  0  0  0  0  0  0
   18.7730   17.6460    7.6780 C   0  0  0  0  0  0  0  0  0  0  0  0
   20.0690   16.9440    7.4760 C   0  0  0  0  0  0  0  0  0  0  0  0
   20.7860   16.1760    8.3720 C   0  0  0  0  0  0  0  0  0  0  0  0
   21.8830   15.7750    7.6670 N   0  0  0  0  0  0  0  0  0  0  0  0
   23.0830   14.7190    8.1800 S   0  0  0  0  0  6  0  0  0  0  0  0
   22.3710   13.4740    8.4210 O   0  0  0  0  0  0  0  0  0  0  0  0
   24.1540   14.8060    7.2020 O   0  0  0  0  0  0  0  0  0  0  0  0
   23.6390   15.3850    9.7100 C   0  0  0  0  0  0  0  0  0  0  0  0
   22.8060   15.1920   10.7820 N   0  0  0  0  0  0  0  0  0  0  0  0
   23.1740   15.6810   11.9940 C   0  0  0  0  0  0  0  0  0  0  0  0
   24.3520   16.3740   12.2520 C   0  0  0  0  0  0  0  0  0  0  0  0
   24.7580   16.9120   13.5690 C   0  0  0  0  0  0  0  0  0  0  0  0
   24.8050   16.1550   14.5350 O   0  0  0  0  0  0  0  0  0  0  0  0
   25.0390   18.2550   13.6570 N   0  0  0  0  0  0  0  0  0  0  0  0
   25.3200   18.8830   14.9450 C   0  0  1  0  0  0  0  0  0  0  0  0
   26.4090   18.1510   15.7210 C   0  0  0  0  0  0  0  0  0  0  0  0
   26.6810   18.8850   17.0260 C   0  0  0  0  0  0  0  0  0  0  0  0
   27.0390   20.3320   16.7800 C   0  0  0  0  0  0  0  0  0  0  0  0
   27.8340   20.9440   17.4860 O   0  0  0  0  0  0  0  0  0  0  0  0
   26.4060   20.9520   15.7320 N   0  0  0  0  0  0  0  0  0  0  0  0
   25.7740   20.3230   14.6890 C   0  0  0  0  0  0  0  0  0  0  0  0
   25.5790   20.8950   13.6160 O   0  0  0  0  0  0  0  0  0  0  0  0
   25.1590   16.5680   11.1260 C   0  0  0  0  0  0  0  0  0  0  0  0
   26.3610   17.2140   10.9540 N   0  0  0  0  0  0  0  0  0  0  0  0
   26.7120   17.1000    9.6410 C   0  0  0  0  0  0  0  0  0  0  0  0
   25.8170   16.4240    8.9580 N   0  0  0  0  0  0  0  0  0  0  0  0
   24.8340   16.0860    9.8600 C   0  0  0  0  0  0  0  0  0  0  0  0
   21.8120   16.2820    6.4080 C   0  0  0  0  0  0  0  0  0  0  0  0
   20.7170   16.9980    6.2580 N   0  0  0  0  0  0  0  0  0  0  0  0
   18.9504   19.6134    8.5356 H   0  0  0  0  0  0  0  0  0  0  0  0
   19.8320   19.3891    6.9867 H   0  0  0  0  0  0  0  0  0  0  0  0
   18.0430   19.5504    6.9867 H   0  0  0  0  0  0  0  0  0  0  0  0
   18.3993   17.4167    8.6869 H   0  0  0  0  0  0  0  0  0  0  0  0
   18.0747   17.2958    6.9035 H   0  0  0  0  0  0  0  0  0  0  0  0
   20.5309   15.9411    9.4159 H   0  0  0  0  0  0  0  0  0  0  0  0
   22.4872   15.5163   12.8373 H   0  0  0  0  0  0  0  0  0  0  0  0
   25.0515   18.8273   12.8007 H   0  0  0  0  0  0  0  0  0  0  0  0
   24.4024   18.8493   15.5507 H   0  0  0  0  0  0  0  0  0  0  0  0
   26.0774   17.1251   15.9393 H   0  0  0  0  0  0  0  0  0  0  0  0
   27.3294   18.1181   15.1195 H   0  0  0  0  0  0  0  0  0  0  0  0
   25.7802   18.8412   17.6558 H   0  0  0  0  0  0  0  0  0  0  0  0
   27.5310   18.3982   17.5265 H   0  0  0  0  0  0  0  0  0  0  0  0
   26.4052   21.9820   15.7280 H   0  0  0  0  0  0  0  0  0  0  0  0
   26.9001   17.6977   11.6863 H   0  0  0  0  0  0  0  0  0  0  0  0
   27.6309   17.5220    9.2079 H   0  0  0  0  0  0  0  0  0  0  0  0
   22.5648   16.1171    5.6231 H   0  0  0  0  0  0  0  0  0  0  0  0
  1  2  1  0
  2  3  1  0
  3  4  2  0
  4  5  1  0
  5  6  1  0
  6  7  2  0
  6  8  2  0
  6  9  1  0
  9 10  2  0
 10 11  1  0
 11 12  2  0
 12 13  1  0
 13 14  2  0
 13 15  1  0
 15 16  1  0
 16 17  1  0
 17 18  1  0
 18 19  1  0
 19 20  2  0
 19 21  1  0
 21 22  1  0
 22 23  2  0
 12 24  1  0
 24 25  1  0
 25 26  1  0
 26 27  2  0
 27 28  1  0
  5 29  1  0
 29 30  2  0
 30  3  1  0
 28  9  1  0
 22 16  1  0
 28 24  2  0
  1 31  1  0
  1 32  1  0
  1 33  1  0
  2 34  1  0
  2 35  1  0
  4 36  1  0
 11 37  1  0
 15 38  1  0
 16 39  1  1
 17 40  1  0
 17 41  1  0
 18 42  1  0
 18 43  1  0
 21 44  1  0
 25 45  1  0
 26 46  1  0
 29 47  1  0
M  END
>  <meeko>  (1366) 
{"is_sidechain": [true], "free_energy": -10.09, "intermolecular_energy": 0.0, "internal_energy": -10.09, "cluster_size": 18, "cluster_id": 1, "rank_in_cluster": 1}

>  <_RMSD_MCS_to_ref>  (1366) 
0.7975162833586678

$$$$
ligand
     RDKit          3D

 47 50  0  0  0  0  0  0  0  0999 V2000
   18.9090   19.1540    7.5370 C   0  0  0  0  0  0  0  0  0  0  0  0
   18.7730   17.6460    7.6780 C   0  0  0  0  0  0  0  0  0  0  0  0
   20.0040   16.9280    7.2510 C   0  0  0  0  0  0  0  0  0  0  0  0
   21.2220   16.8310    7.8930 C   0  0  0  0  0  0  0  0  0  0  0  0
   21.9920   16.0900    7.0440 N   0  0  0  0  0  0  0  0  0  0  0  0
   23.4960   15.4150    7.4160 S   0  0  0  0  0  6  0  0  0  0  0  0
   24.4470   16.2490    6.7030 O   0  0  0  0  0  0  0  0  0  0  0  0
   23.3480   14.0080    7.0910 O   0  0  0  0  0  0  0  0  0  0  0  0
   23.7090   15.6200    9.1340 C   0  0  0  0  0  0  0  0  0  0  0  0
   24.7650   16.4690    9.6780 C   0  0  0  0  0  0  0  0  0  0  0  0
   24.9180   16.6360   11.0060 C   0  0  0  0  0  0  0  0  0  0  0  0
   24.0340   15.9660   11.8970 C   0  0  0  0  0  0  0  0  0  0  0  0
   23.8570   15.8760   13.2630 C   0  0  0  0  0  0  0  0  0  0  0  0
   24.6220   16.5270   14.3140 C   0  0  0  0  0  0  0  0  0  0  0  0
   25.2970   15.9120   15.1350 O   0  0  0  0  0  0  0  0  0  0  0  0
   24.5170   17.8980   14.3140 N   0  0  0  0  0  0  0  0  0  0  0  0
   25.0890   18.7200   15.3650 C   0  0  1  0  0  0  0  0  0  0  0  0
   26.2510   18.0240   16.0670 C   0  0  0  0  0  0  0  0  0  0  0  0
   26.8220   18.9410   17.1370 C   0  0  0  0  0  0  0  0  0  0  0  0
   27.2330   20.2730   16.5570 C   0  0  0  0  0  0  0  0  0  0  0  0
   28.1850   20.9140   16.9910 O   0  0  0  0  0  0  0  0  0  0  0  0
   26.4620   20.7590   15.5310 N   0  0  0  0  0  0  0  0  0  0  0  0
   25.5870   20.0360   14.7600 C   0  0  0  0  0  0  0  0  0  0  0  0
   25.2220   20.4470   13.6600 O   0  0  0  0  0  0  0  0  0  0  0  0
   22.7990   15.0370   13.5160 N   0  0  0  0  0  0  0  0  0  0  0  0
   22.3140   14.6070   12.3590 N   0  0  0  0  0  0  0  0  0  0  0  0
   23.0420   15.1500   11.3540 N   0  0  0  0  0  0  0  0  0  0  0  0
   22.8820   14.9810    9.9820 C   0  0  0  0  0  0  0  0  0  0  0  0
   21.2400   15.7100    5.9780 C   0  0  0  0  0  0  0  0  0  0  0  0
   20.0270   16.2150    6.0680 N   0  0  0  0  0  0  0  0  0  0  0  0
   18.9504   19.6134    8.5356 H   0  0  0  0  0  0  0  0  0  0  0  0
   19.8320   19.3891    6.9867 H   0  0  0  0  0  0  0  0  0  0  0  0
   18.0430   19.5504    6.9867 H   0  0  0  0  0  0  0  0  0  0  0  0
   18.5705   17.4057    8.7321 H   0  0  0  0  0  0  0  0  0  0  0  0
   17.9487   17.3191    7.0271 H   0  0  0  0  0  0  0  0  0  0  0  0
   21.5072   17.2546    8.8673 H   0  0  0  0  0  0  0  0  0  0  0  0
   25.4505   16.9834    8.9885 H   0  0  0  0  0  0  0  0  0  0  0  0
   25.7172   17.2829   11.3970 H   0  0  0  0  0  0  0  0  0  0  0  0
   24.0149   18.3579   13.5412 H   0  0  0  0  0  0  0  0  0  0  0  0
   24.3033   18.9051   16.1122 H   0  0  0  0  0  0  0  0  0  0  0  0
   25.8931   17.0946   16.5340 H   0  0  0  0  0  0  0  0  0  0  0  0
   27.0342   17.7880   15.3315 H   0  0  0  0  0  0  0  0  0  0  0  0
   26.0581   19.1077   17.9107 H   0  0  0  0  0  0  0  0  0  0  0  0
   27.7131   18.4600   17.5665 H   0  0  0  0  0  0  0  0  0  0  0  0
   26.5485   21.7633   15.3193 H   0  0  0  0  0  0  0  0  0  0  0  0
   22.0852   14.3298    9.5933 H   0  0  0  0  0  0  0  0  0  0  0  0
   21.5943   15.0708    5.1559 H   0  0  0  0  0  0  0  0  0  0  0  0
  1  2  1  0
  2  3  1  0
  3  4  2  0
  4  5  1  0
  5  6  1  0
  6  7  2  0
  6  8  2  0
  6  9  1  0
  9 10  1  0
 10 11  2  0
 11 12  1  0
 12 13  2  0
 13 14  1  0
 14 15  2  0
 14 16  1  0
 16 17  1  0
 17 18  1  0
 18 19  1  0
 19 20  1  0
 20 21  2  0
 20 22  1  0
 22 23  1  0
 23 24  2  0
 13 25  1  0
 25 26  2  0
 26 27  1  0
 27 28  1  0
  5 29  1  0
 29 30  2  0
 30  3  1  0
 28  9  2  0
 27 12  1  0
 23 17  1  0
  1 31  1  0
  1 32  1  0
  1 33  1  0
  2 34  1  0
  2 35  1  0
  4 36  1  0
 10 37  1  0
 11 38  1  0
 16 39  1  0
 17 40  1  1
 18 41  1  0
 18 42  1  0
 19 43  1  0
 19 44  1  0
 22 45  1  0
 28 46  1  0
 29 47  1  0
M  END
>  <meeko>  (1367) 
{"is_sidechain": [true], "free_energy": -10.09, "intermolecular_energy": 0.0, "internal_energy": -10.09, "cluster_size": 8, "cluster_id": 1, "rank_in_cluster": 1}

>  <_RMSD_MCS_to_ref>  (1367) 
0.7287159940607862

$$$$
ligand
     RDKit          3D

 46 49  0  0  0  0  0  0  0  0999 V2000
   18.9090   19.1540    7.5370 C   0  0  0  0  0  0  0  0  0  0  0  0
   18.7730   17.6460    7.6780 C   0  0  0  0  0  0  0  0  0  0  0  0
   20.0530   16.9390    7.4020 C   0  0  0  0  0  0  0  0  0  0  0  0
   20.6110   15.8630    8.0640 C   0  0  0  0  0  0  0  0  0  0  0  0
   21.7700   15.6160    7.3850 N   0  0  0  0  0  0  0  0  0  0  0  0
   22.9870   14.5620    7.8640 S   0  0  0  0  0  6  0  0  0  0  0  0
   23.9170   14.5010    6.7530 O   0  0  0  0  0  0  0  0  0  0  0  0
   22.3150   13.3860    8.3820 O   0  0  0  0  0  0  0  0  0  0  0  0
   23.7670   15.4120    9.2120 C   0  0  0  0  0  0  0  0  0  0  0  0
   25.1060   15.7960    9.1000 C   0  0  0  0  0  0  0  0  0  0  0  0
   25.7180   16.4640   10.1620 C   0  0  0  0  0  0  0  0  0  0  0  0
   24.9910   16.7660   11.3230 C   0  0  0  0  0  0  0  0  0  0  0  0
   25.6910   17.4740   12.4270 C   0  0  0  0  0  0  0  0  0  0  0  0
   26.8020   17.9600   12.2430 O   0  0  0  0  0  0  0  0  0  0  0  0
   25.0150   17.5690   13.6290 N   0  0  0  0  0  0  0  0  0  0  0  0
   25.5410   18.4340   14.7140 C   0  0  1  0  0  0  0  0  0  0  0  0
   24.7300   18.3250   16.0550 C   0  0  0  0  0  0  0  0  0  0  0  0
   26.1110   18.6760   16.7100 C   0  0  1  0  0  0  0  0  0  0  0  0
   26.7050   17.7980   15.5610 C   0  0  0  0  0  0  0  0  0  0  0  0
   26.4960   20.2070   16.5990 C   0  0  0  0  0  0  0  0  0  0  0  0
   26.8020   20.9530   17.5250 O   0  0  0  0  0  0  0  0  0  0  0  0
   26.4130   20.6840   15.3050 N   0  0  0  0  0  0  0  0  0  0  0  0
   25.8010   19.9680   14.2930 C   0  0  0  0  0  0  0  0  0  0  0  0
   25.4460   20.5290   13.2560 O   0  0  0  0  0  0  0  0  0  0  0  0
   23.6470   16.3780   11.4240 C   0  0  0  0  0  0  0  0  0  0  0  0
   23.0310   15.7070   10.3640 C   0  0  0  0  0  0  0  0  0  0  0  0
   21.9100   16.5350    6.3940 C   0  0  0  0  0  0  0  0  0  0  0  0
   20.8750   17.3490    6.3700 N   0  0  0  0  0  0  0  0  0  0  0  0
   18.9504   19.6134    8.5356 H   0  0  0  0  0  0  0  0  0  0  0  0
   19.8320   19.3891    6.9867 H   0  0  0  0  0  0  0  0  0  0  0  0
   18.0430   19.5504    6.9867 H   0  0  0  0  0  0  0  0  0  0  0  0
   18.4538   17.4134    8.7046 H   0  0  0  0  0  0  0  0  0  0  0  0
   18.0316   17.3030    6.9414 H   0  0  0  0  0  0  0  0  0  0  0  0
   20.2129   15.3273    8.9384 H   0  0  0  0  0  0  0  0  0  0  0  0
   25.6724   15.5740    8.1836 H   0  0  0  0  0  0  0  0  0  0  0  0
   26.7762   16.7552   10.0880 H   0  0  0  0  0  0  0  0  0  0  0  0
   24.1440   17.0381   13.7719 H   0  0  0  0  0  0  0  0  0  0  0  0
   23.9367   19.0747   16.1913 H   0  0  0  0  0  0  0  0  0  0  0  0
   24.1240   17.4507   16.3349 H   0  0  0  0  0  0  0  0  0  0  0  0
   26.3352   18.5175   17.7752 H   0  0  0  0  0  0  0  0  0  0  0  0
   27.7234   18.0630   15.2405 H   0  0  0  0  0  0  0  0  0  0  0  0
   26.8789   16.7152   15.6458 H   0  0  0  0  0  0  0  0  0  0  0  0
   26.8209   21.6043   15.0869 H   0  0  0  0  0  0  0  0  0  0  0  0
   23.0774   16.6019   12.3380 H   0  0  0  0  0  0  0  0  0  0  0  0
   21.9735   15.4127   10.4354 H   0  0  0  0  0  0  0  0  0  0  0  0
   22.7678   16.5912    5.7078 H   0  0  0  0  0  0  0  0  0  0  0  0
  1  2  1  0
  2  3  1  0
  3  4  2  0
  4  5  1  0
  5  6  1  0
  6  7  2  0
  6  8  2  0
  6  9  1  0
  9 10  2  0
 10 11  1  0
 11 12  2  0
 12 13  1  0
 13 14  2  0
 13 15  1  0
 16 15  1  6
 16 17  1  0
 17 18  1  0
 18 19  1  0
 18 20  1  0
 20 21  2  0
 20 22  1  0
 22 23  1  0
 23 24  2  0
 12 25  1  0
 25 26  2  0
  5 27  1  0
 27 28  2  0
 28  3  1  0
 26  9  1  0
 19 16  1  0
 23 16  1  0
  1 29  1  0
  1 30  1  0
  1 31  1  0
  2 32  1  0
  2 33  1  0
  4 34  1  0
 10 35  1  0
 11 36  1  0
 15 37  1  0
 17 38  1  0
 17 39  1  0
 18 40  1  1
 19 41  1  0
 19 42  1  0
 22 43  1  0
 25 44  1  0
 26 45  1  0
 27 46  1  0
M  END
>  <meeko>  (1368) 
{"is_sidechain": [true], "free_energy": -10.09, "intermolecular_energy": 0.0, "internal_energy": -10.09, "cluster_size": 20, "cluster_id": 1, "rank_in_cluster": 1}

>  <_RMSD_MCS_to_ref>  (1368) 
0.7201386440586749

$$$$
ligand
     RDKit          3D

 50 53  0  0  0  0  0  0  0  0999 V2000
   18.9090   19.1540    7.5370 C   0  0  0  0  0  0  0  0  0  0  0  0
   18.7730   17.6460    7.6780 C   0  0  0  0  0  0  0  0  0  0  0  0
   20.0470   16.9370    7.3790 C   0  0  0  0  0  0  0  0  0  0  0  0
   20.8830   16.2520    8.2400 C   0  0  0  0  0  0  0  0  0  0  0  0
   21.9050   15.8250    7.4430 N   0  0  0  0  0  0  0  0  0  0  0  0
   23.1200   14.7510    7.8890 S   0  0  0  0  0  6  0  0  0  0  0  0
   24.0300   14.6940    6.7620 O   0  0  0  0  0  0  0  0  0  0  0  0
   22.4370   13.5770    8.3980 O   0  0  0  0  0  0  0  0  0  0  0  0
   23.9230   15.5790    9.2340 C   0  0  0  0  0  0  0  0  0  0  0  0
   25.2730   15.9110    9.1290 C   0  0  0  0  0  0  0  0  0  0  0  0
   25.9000   16.5630   10.1890 C   0  0  0  0  0  0  0  0  0  0  0  0
   25.1890   16.8760   11.3590 C   0  0  0  0  0  0  0  0  0  0  0  0
   23.8250   16.5420   11.4570 C   0  0  0  0  0  0  0  0  0  0  0  0
   23.2000   15.8750   10.3940 C   0  0  0  0  0  0  0  0  0  0  0  0
   23.0310   16.8240   12.7100 C   0  0  0  0  0  0  0  0  0  0  0  0
   23.6690   17.8990   13.5890 C   0  0  0  0  0  0  0  0  0  0  0  0
   25.1510   17.5790   13.8140 C   0  0  2  0  0  0  0  0  0  0  0  0
   25.7930   18.4380   14.8320 N   0  0  0  0  0  0  0  0  0  0  0  0
   25.6190   18.1490   16.2500 C   0  0  0  0  0  0  0  0  0  0  0  0
   26.7760   18.7100   17.0480 C   0  0  0  0  0  0  0  0  0  0  0  0
   26.9290   20.1690   16.7340 C   0  0  0  0  0  0  0  0  0  0  0  0
   27.4590   20.9560   17.5120 O   0  0  0  0  0  0  0  0  0  0  0  0
   26.5130   20.5600   15.4920 N   0  0  0  0  0  0  0  0  0  0  0  0
   26.0850   19.7490   14.4740 C   0  0  0  0  0  0  0  0  0  0  0  0
   25.9860   20.1910   13.3330 O   0  0  0  0  0  0  0  0  0  0  0  0
   25.9060   17.6090   12.4710 C   0  0  0  0  0  0  0  0  0  0  0  0
   21.6570   16.1980    6.1600 C   0  0  0  0  0  0  0  0  0  0  0  0
   20.5380   16.8880    6.0890 N   0  0  0  0  0  0  0  0  0  0  0  0
   18.9504   19.6134    8.5356 H   0  0  0  0  0  0  0  0  0  0  0  0
   19.8320   19.3891    6.9867 H   0  0  0  0  0  0  0  0  0  0  0  0
   18.0430   19.5504    6.9867 H   0  0  0  0  0  0  0  0  0  0  0  0
   18.4710   17.4123    8.7096 H   0  0  0  0  0  0  0  0  0  0  0  0
   18.0185   17.3054    6.9536 H   0  0  0  0  0  0  0  0  0  0  0  0
   20.7542   16.0884    9.3201 H   0  0  0  0  0  0  0  0  0  0  0  0
   25.8375   15.6608    8.2186 H   0  0  0  0  0  0  0  0  0  0  0  0
   26.9627   16.8353   10.1085 H   0  0  0  0  0  0  0  0  0  0  0  0
   22.1419   15.5847   10.4723 H   0  0  0  0  0  0  0  0  0  0  0  0
   22.0246   17.1598   12.4196 H   0  0  0  0  0  0  0  0  0  0  0  0
   22.9989   15.8941   13.2967 H   0  0  0  0  0  0  0  0  0  0  0  0
   23.5784   18.8766   13.0929 H   0  0  0  0  0  0  0  0  0  0  0  0
   23.1532   17.9250   14.5602 H   0  0  0  0  0  0  0  0  0  0  0  0
   25.2047   16.5616   14.2287 H   0  0  0  0  0  0  0  0  0  0  0  0
   24.6816   18.6054   16.6007 H   0  0  0  0  0  0  0  0  0  0  0  0
   25.5838   17.0586   16.3905 H   0  0  0  0  0  0  0  0  0  0  0  0
   26.5776   18.5836   18.1226 H   0  0  0  0  0  0  0  0  0  0  0  0
   27.7008   18.1758   16.7844 H   0  0  0  0  0  0  0  0  0  0  0  0
   26.5223   21.5721   15.3011 H   0  0  0  0  0  0  0  0  0  0  0  0
   26.0367   18.6585   12.1685 H   0  0  0  0  0  0  0  0  0  0  0  0
   26.8669   17.0974   12.6286 H   0  0  0  0  0  0  0  0  0  0  0  0
   22.3009   15.9572    5.3013 H   0  0  0  0  0  0  0  0  0  0  0  0
  1  2  1  0
  2  3  1  0
  3  4  2  0
  4  5  1  0
  5  6  1  0
  6  7  2  0
  6  8  2  0
  6  9  1  0
  9 10  2  0
 10 11  1  0
 11 12  2  0
 12 13  1  0
 13 14  2  0
 13 15  1  0
 15 16  1  0
 16 17  1  0
 17 18  1  0
 18 19  1  0
 19 20  1  0
 20 21  1  0
 21 22  2  0
 21 23  1  0
 23 24  1  0
 24 25  2  0
 17 26  1  0
  5 27  1  0
 27 28  2  0
 28  3  1  0
 14  9  1  0
 24 18  1  0
 26 12  1  0
  1 29  1  0
  1 30  1  0
  1 31  1  0
  2 32  1  0
  2 33  1  0
  4 34  1  0
 10 35  1  0
 11 36  1  0
 14 37  1  0
 15 38  1  0
 15 39  1  0
 16 40  1  0
 16 41  1  0
 17 42  1  1
 19 43  1  0
 19 44  1  0
 20 45  1  0
 20 46  1  0
 23 47  1  0
 26 48  1  0
 26 49  1  0
 27 50  1  0
M  END
>  <meeko>  (1369) 
{"is_sidechain": [true], "free_energy": -10.09, "intermolecular_energy": 0.0, "internal_energy": -10.09, "cluster_size": 9, "cluster_id": 1, "rank_in_cluster": 1}

>  <_RMSD_MCS_to_ref>  (1369) 
0.8262429273524828

$$$$
ligand
     RDKit          3D

 54 58  0  0  0  0  0  0  0  0999 V2000
   18.9090   19.1540    7.5370 C   0  0  0  0  0  0  0  0  0  0  0  0
   18.7730   17.6460    7.6780 C   0  0  0  0  0  0  0  0  0  0  0  0
   19.8150   16.9160    6.9070 C   0  0  0  0  0  0  0  0  0  0  0  0
   20.7370   15.9900    7.3550 C   0  0  0  0  0  0  0  0  0  0  0  0
   21.4210   15.6310    6.2300 N   0  0  0  0  0  0  0  0  0  0  0  0
   22.6090   14.4470    6.1360 S   0  0  0  0  0  6  0  0  0  0  0  0
   23.8550   15.1790    6.2650 O   0  0  0  0  0  0  0  0  0  0  0  0
   22.3010   13.6420    4.9710 O   0  0  0  0  0  0  0  0  0  0  0  0
   22.3750   13.4560    7.5860 C   0  0  0  0  0  0  0  0  0  0  0  0
   21.8510   12.1600    7.4280 C   0  0  0  0  0  0  0  0  0  0  0  0
   21.6890   11.3230    8.5290 C   0  0  0  0  0  0  0  0  0  0  0  0
   22.0440   11.7480    9.8100 C   0  0  0  0  0  0  0  0  0  0  0  0
   22.5510   13.0450    9.9530 C   0  0  0  0  0  0  0  0  0  0  0  0
   22.9700   13.7040   11.0860 N   0  0  0  0  0  0  0  0  0  0  0  0
   23.3910   14.9800   10.7870 C   0  0  0  0  0  0  0  0  0  0  0  0
   23.9170   15.9050   11.7880 C   0  0  0  0  0  0  0  0  0  0  0  0
   25.1540   16.5260   11.5950 C   0  0  0  0  0  0  0  0  0  0  0  0
   25.6730   17.4110   12.5510 C   0  0  0  0  0  0  0  0  0  0  0  0
   24.9740   17.7030   13.7320 C   0  0  0  0  0  0  0  0  0  0  0  0
   25.5000   18.6190   14.7070 N   0  0  0  0  0  0  0  0  0  0  0  0
   25.4080   18.2900   16.1270 C   0  0  0  0  0  0  0  0  0  0  0  0
   26.6360   18.7680   16.8740 C   0  0  0  0  0  0  0  0  0  0  0  0
   26.8390   20.2270   16.6070 C   0  0  0  0  0  0  0  0  0  0  0  0
   27.4670   20.9560   17.3700 O   0  0  0  0  0  0  0  0  0  0  0  0
   26.3570   20.6830   15.4130 N   0  0  0  0  0  0  0  0  0  0  0  0
   25.9030   19.9150   14.3660 C   0  0  0  0  0  0  0  0  0  0  0  0
   25.8800   20.4240   13.2480 O   0  0  0  0  0  0  0  0  0  0  0  0
   23.7320   17.0820   13.9110 C   0  0  0  0  0  0  0  0  0  0  0  0
   23.2090   16.1960   12.9560 C   0  0  0  0  0  0  0  0  0  0  0  0
   23.2240   15.1330    9.4220 C   0  0  0  0  0  0  0  0  0  0  0  0
   22.7170   13.9180    8.8760 C   0  0  0  0  0  0  0  0  0  0  0  0
   20.9490   16.3390    5.1730 C   0  0  0  0  0  0  0  0  0  0  0  0
   19.9560   17.1190    5.5470 N   0  0  0  0  0  0  0  0  0  0  0  0
   18.9504   19.6134    8.5356 H   0  0  0  0  0  0  0  0  0  0  0  0
   19.8320   19.3891    6.9867 H   0  0  0  0  0  0  0  0  0  0  0  0
   18.0430   19.5504    6.9867 H   0  0  0  0  0  0  0  0  0  0  0  0
   18.8662   17.3792    8.7411 H   0  0  0  0  0  0  0  0  0  0  0  0
   17.7901   17.3555    7.2785 H   0  0  0  0  0  0  0  0  0  0  0  0
   20.8857   15.6258    8.3823 H   0  0  0  0  0  0  0  0  0  0  0  0
   21.5669   11.8049    6.4264 H   0  0  0  0  0  0  0  0  0  0  0  0
   21.2758   10.3135    8.3872 H   0  0  0  0  0  0  0  0  0  0  0  0
   21.9290   11.0847   10.6800 H   0  0  0  0  0  0  0  0  0  0  0  0
   22.9688   13.2966   12.0320 H   0  0  0  0  0  0  0  0  0  0  0  0
   25.7286   16.3177   10.6804 H   0  0  0  0  0  0  0  0  0  0  0  0
   26.6486   17.8863   12.3712 H   0  0  0  0  0  0  0  0  0  0  0  0
   24.5167   18.7749   16.5519 H   0  0  0  0  0  0  0  0  0  0  0  0
   25.3374   17.1971   16.2304 H   0  0  0  0  0  0  0  0  0  0  0  0
   26.4955   18.6077   17.9532 H   0  0  0  0  0  0  0  0  0  0  0  0
   27.5174   18.2044   16.5341 H   0  0  0  0  0  0  0  0  0  0  0  0
   26.3309   21.7045   15.2837 H   0  0  0  0  0  0  0  0  0  0  0  0
   23.1523   17.2934   14.8216 H   0  0  0  0  0  0  0  0  0  0  0  0
   22.2300   15.7254   13.1297 H   0  0  0  0  0  0  0  0  0  0  0  0
   23.4468   16.0458    8.8500 H   0  0  0  0  0  0  0  0  0  0  0  0
   21.3409   16.2710    4.1474 H   0  0  0  0  0  0  0  0  0  0  0  0
  1  2  1  0
  2  3  1  0
  3  4  2  0
  4  5  1  0
  5  6  1  0
  6  7  2  0
  6  8  2  0
  6  9  1  0
  9 10  2  0
 10 11  1  0
 11 12  2  0
 12 13  1  0
 13 14  1  0
 14 15  1  0
 15 16  1  0
 16 17  2  0
 17 18  1  0
 18 19  2  0
 19 20  1  0
 20 21  1  0
 21 22  1  0
 22 23  1  0
 23 24  2  0
 23 25  1  0
 25 26  1  0
 26 27  2  0
 19 28  1  0
 28 29  2  0
 15 30  2  0
 30 31  1  0
  5 32  1  0
 32 33  2  0
 33  3  1  0
 31  9  1  0
 31 13  2  0
 29 16  1  0
 26 20  1  0
  1 34  1  0
  1 35  1  0
  1 36  1  0
  2 37  1  0
  2 38  1  0
  4 39  1  0
 10 40  1  0
 11 41  1  0
 12 42  1  0
 14 43  1  0
 17 44  1  0
 18 45  1  0
 21 46  1  0
 21 47  1  0
 22 48  1  0
 22 49  1  0
 25 50  1  0
 28 51  1  0
 29 52  1  0
 30 53  1  0
 32 54  1  0
M  END
>  <meeko>  (1370) 
{"is_sidechain": [true], "free_energy": -10.09, "intermolecular_energy": 0.0, "internal_energy": -10.09, "cluster_size": 18, "cluster_id": 1, "rank_in_cluster": 1}

>  <_RMSD_MCS_to_ref>  (1370) 
0.7326361648185262

$$$$
ligand
     RDKit          3D

 54 58  0  0  0  0  0  0  0  0999 V2000
   18.8250   19.0170    7.5350 C   0  0  0  0  0  0  0  0  0  0  0  0
   18.5200   17.5420    7.7330 C   0  0  0  0  0  0  0  0  0  0  0  0
   19.6950   16.7890    8.2540 C   0  0  0  0  0  0  0  0  0  0  0  0
   20.6070   16.0150    7.5620 C   0  0  0  0  0  0  0  0  0  0  0  0
   21.4360   15.5340    8.5340 N   0  0  0  0  0  0  0  0  0  0  0  0
   22.7030   14.4570    8.3080 S   0  0  0  0  0  6  0  0  0  0  0  0
   22.7350   14.2540    6.8720 O   0  0  0  0  0  0  0  0  0  0  0  0
   23.8390   14.9880    9.0340 O   0  0  0  0  0  0  0  0  0  0  0  0
   22.2370   12.9220    9.0710 C   0  0  0  0  0  0  0  0  0  0  0  0
   21.9800   11.8520    8.2020 C   0  0  0  0  0  0  0  0  0  0  0  0
   21.6100   10.6380    8.7450 C   0  0  0  0  0  0  0  0  0  0  0  0
   21.4860   10.4300   10.0670 N   0  0  0  0  0  0  0  0  0  0  0  0
   21.7560   11.4750   10.8840 C   0  0  0  0  0  0  0  0  0  0  0  0
   22.1380   12.7510   10.4610 C   0  0  0  0  0  0  0  0  0  0  0  0
   22.3930   13.7820   11.4700 C   0  0  0  0  0  0  0  0  0  0  0  0
   21.3460   14.2680   12.2970 C   0  0  0  0  0  0  0  0  0  0  0  0
   21.5840   15.2170   13.3000 C   0  0  0  0  0  0  0  0  0  0  0  0
   22.8810   15.6600   13.4550 C   0  0  0  0  0  0  0  0  0  0  0  0
   23.9030   15.2180   12.6410 C   0  0  0  0  0  0  0  0  0  0  0  0
   23.6930   14.3000   11.6290 C   0  0  0  0  0  0  0  0  0  0  0  0
   25.1350   15.8640   13.0840 C   0  0  0  0  0  0  0  0  0  0  0  0
   26.2180   15.7060   12.5510 O   0  0  0  0  0  0  0  0  0  0  0  0
   24.8050   16.6360   14.1650 N   0  0  0  0  0  0  0  0  0  0  0  0
   25.7490   17.5370   14.8050 C   0  0  2  0  0  0  0  0  0  0  0  0
   25.6410   17.5830   16.3270 C   0  0  0  0  0  0  0  0  0  0  0  0
   26.6980   18.5300   16.8750 C   0  0  0  0  0  0  0  0  0  0  0  0
   26.5700   19.9080   16.2670 C   0  0  0  0  0  0  0  0  0  0  0  0
   26.9340   20.9210   16.8560 O   0  0  0  0  0  0  0  0  0  0  0  0
   26.0780   19.9730   14.9870 N   0  0  0  0  0  0  0  0  0  0  0  0
   25.5790   18.9430   14.2200 C   0  0  0  0  0  0  0  0  0  0  0  0
   25.0910   19.1700   13.1140 O   0  0  0  0  0  0  0  0  0  0  0  0
   23.4590   16.6030   14.4110 C   0  0  0  0  0  0  0  0  0  0  0  0
   22.8100   17.2290   15.2270 O   0  0  0  0  0  0  0  0  0  0  0  0
   21.0790   16.0640    9.7320 C   0  0  0  0  0  0  0  0  0  0  0  0
   19.9920   16.7980    9.6040 N   0  0  0  0  0  0  0  0  0  0  0  0
   18.9260   19.5054    8.5155 H   0  0  0  0  0  0  0  0  0  0  0  0
   19.7645   19.1250    6.9731 H   0  0  0  0  0  0  0  0  0  0  0  0
   18.0054   19.4887    6.9731 H   0  0  0  0  0  0  0  0  0  0  0  0
   17.6910   17.4448    8.4495 H   0  0  0  0  0  0  0  0  0  0  0  0
   18.2546   17.1178    6.7534 H   0  0  0  0  0  0  0  0  0  0  0  0
   20.6540   15.8295    6.4788 H   0  0  0  0  0  0  0  0  0  0  0  0
   22.0711   11.9771    7.1129 H   0  0  0  0  0  0  0  0  0  0  0  0
   21.4067    9.7998    8.0623 H   0  0  0  0  0  0  0  0  0  0  0  0
   21.6677   11.3063   11.9674 H   0  0  0  0  0  0  0  0  0  0  0  0
   20.3238   13.8905   12.1467 H   0  0  0  0  0  0  0  0  0  0  0  0
   20.7702   15.5931   13.9374 H   0  0  0  0  0  0  0  0  0  0  0  0
   24.5146   13.9843   10.9693 H   0  0  0  0  0  0  0  0  0  0  0  0
   26.7532   17.1409   14.5936 H   0  0  0  0  0  0  0  0  0  0  0  0
   24.6415   17.9414   16.6143 H   0  0  0  0  0  0  0  0  0  0  0  0
   25.7981   16.5754   16.7393 H   0  0  0  0  0  0  0  0  0  0  0  0
   26.5788   18.6073   17.9658 H   0  0  0  0  0  0  0  0  0  0  0  0
   27.6896   18.1286   16.6190 H   0  0  0  0  0  0  0  0  0  0  0  0
   26.0825   20.9042   14.5469 H   0  0  0  0  0  0  0  0  0  0  0  0
   21.6205   15.9034   10.6759 H   0  0  0  0  0  0  0  0  0  0  0  0
  1  2  1  0
  2  3  1  0
  3  4  2  0
  4  5  1  0
  5  6  1  0
  6  7  2  0
  6  8  2  0
  6  9  1  0
  9 10  2  0
 10 11  1  0
 11 12  2  0
 12 13  1  0
 13 14  2  0
 14 15  1  0
 15 16  2  0
 16 17  1  0
 17 18  2  0
 18 19  1  0
 19 20  2  0
 19 21  1  0
 21 22  2  0
 21 23  1  0
 23 24  1  0
 24 25  1  0
 25 26  1  0
 26 27  1  0
 27 28  2  0
 27 29  1  0
 29 30  1  0
 30 31  2  0
 23 32  1  0
 32 33  2  0
  5 34  1  0
 34 35  2  0
 35  3  1  0
 14  9  1  0
 20 15  1  0
 30 24  1  0
 32 18  1  0
  1 36  1  0
  1 37  1  0
  1 38  1  0
  2 39  1  0
  2 40  1  0
  4 41  1  0
 10 42  1  0
 11 43  1  0
 13 44  1  0
 16 45  1  0
 17 46  1  0
 20 47  1  0
 24 48  1  1
 25 49  1  0
 25 50  1  0
 26 51  1  0
 26 52  1  0
 29 53  1  0
 34 54  1  0
M  END
>  <meeko>  (1371) 
{"is_sidechain": [true], "free_energy": -10.08, "intermolecular_energy": 0.0, "internal_energy": -10.08, "cluster_size": 19, "cluster_id": 1, "rank_in_cluster": 1}

>  <_RMSD_MCS_to_ref>  (1371) 
1.2446809274312478

$$$$
ligand
     RDKit          3D

 56 60  0  0  0  0  0  0  0  0999 V2000
   18.7970   18.8170    7.7190 C   0  0  0  0  0  0  0  0  0  0  0  0
   18.5280   17.3290    7.8810 C   0  0  0  0  0  0  0  0  0  0  0  0
   19.6330   16.5020    7.3290 C   0  0  0  0  0  0  0  0  0  0  0  0
   20.9160   16.3420    7.8110 C   0  0  0  0  0  0  0  0  0  0  0  0
   21.5100   15.5030    6.9120 N   0  0  0  0  0  0  0  0  0  0  0  0
   23.1600   15.1510    6.8140 S   0  0  0  0  0  6  0  0  0  0  0  0
   23.8110   16.3610    7.2850 O   0  0  0  0  0  0  0  0  0  0  0  0
   23.3650   14.6790    5.4560 O   0  0  0  0  0  0  0  0  0  0  0  0
   23.5270   13.9470    7.8610 O   0  0  0  0  0  0  0  0  0  0  0  0
   24.4470   14.1610    8.8430 C   0  0  0  0  0  0  0  0  0  0  0  0
   25.7960   14.2240    8.4950 C   0  0  0  0  0  0  0  0  0  0  0  0
   26.7690   14.4650    9.4750 C   0  0  0  0  0  0  0  0  0  0  0  0
   26.4060   14.6220   10.8140 C   0  0  0  0  0  0  0  0  0  0  0  0
   25.0640   14.5160   11.1570 C   0  0  0  0  0  0  0  0  0  0  0  0
   24.0900   14.2730   10.1770 C   0  0  0  0  0  0  0  0  0  0  0  0
   22.7220   14.2160   10.7870 C   0  0  0  0  0  0  0  0  0  0  0  0
   23.0550   13.9870   12.2680 C   0  0  0  0  0  0  0  0  0  0  0  0
   24.4210   14.6570   12.5160 C   0  0  1  0  0  0  0  0  0  0  0  0
   25.1840   14.0410   13.6840 C   0  0  0  0  0  0  0  0  0  0  0  0
   25.7390   15.2300   14.4120 C   0  0  0  0  0  0  0  0  0  0  0  0
   26.5360   15.1570   15.3360 O   0  0  0  0  0  0  0  0  0  0  0  0
   25.1900   16.3740   13.9100 N   0  0  0  0  0  0  0  0  0  0  0  0
   25.3250   17.6590   14.5840 C   0  0  1  0  0  0  0  0  0  0  0  0
   25.6290   17.5610   16.0750 C   0  0  0  0  0  0  0  0  0  0  0  0
   25.7340   18.9620   16.6610 C   0  0  0  0  0  0  0  0  0  0  0  0
   26.7730   19.7840   15.9330 C   0  0  0  0  0  0  0  0  0  0  0  0
   27.3980   20.6850   16.4840 O   0  0  0  0  0  0  0  0  0  0  0  0
   26.9500   19.5130   14.5990 N   0  0  0  0  0  0  0  0  0  0  0  0
   26.4040   18.4820   13.8700 C   0  0  0  0  0  0  0  0  0  0  0  0
   26.7420   18.2910   12.7030 O   0  0  0  0  0  0  0  0  0  0  0  0
   24.2880   16.1160   12.9140 C   0  0  0  0  0  0  0  0  0  0  0  0
   23.5200   16.9230   12.4130 O   0  0  0  0  0  0  0  0  0  0  0  0
   20.6200   15.2030    5.9300 C   0  0  0  0  0  0  0  0  0  0  0  0
   19.4620   15.7850    6.1610 N   0  0  0  0  0  0  0  0  0  0  0  0
   18.8815   19.2845    8.7111 H   0  0  0  0  0  0  0  0  0  0  0  0
   19.7359   18.9616    7.1643 H   0  0  0  0  0  0  0  0  0  0  0  0
   17.9682   19.2812    7.1643 H   0  0  0  0  0  0  0  0  0  0  0  0
   18.4151   17.1026    8.9515 H   0  0  0  0  0  0  0  0  0  0  0  0
   17.6104   17.0862    7.3251 H   0  0  0  0  0  0  0  0  0  0  0  0
   21.3592   16.7884    8.7134 H   0  0  0  0  0  0  0  0  0  0  0  0
   26.0980   14.0839    7.4466 H   0  0  0  0  0  0  0  0  0  0  0  0
   27.8284   14.5310    9.1863 H   0  0  0  0  0  0  0  0  0  0  0  0
   27.1671   14.8255   11.5817 H   0  0  0  0  0  0  0  0  0  0  0  0
   22.1768   15.1599   10.6393 H   0  0  0  0  0  0  0  0  0  0  0  0
   22.0686   13.4462   10.3505 H   0  0  0  0  0  0  0  0  0  0  0  0
   22.2851   14.4452   12.9062 H   0  0  0  0  0  0  0  0  0  0  0  0
   23.0879   12.9140   12.5079 H   0  0  0  0  0  0  0  0  0  0  0  0
   24.5090   13.4636   14.3328 H   0  0  0  0  0  0  0  0  0  0  0  0
   25.9644   13.3368   13.3598 H   0  0  0  0  0  0  0  0  0  0  0  0
   24.3446   18.1542   14.5239 H   0  0  0  0  0  0  0  0  0  0  0  0
   24.8205   17.0115   16.5794 H   0  0  0  0  0  0  0  0  0  0  0  0
   26.5798   17.0280   16.2226 H   0  0  0  0  0  0  0  0  0  0  0  0
   24.7574   19.4608   16.5749 H   0  0  0  0  0  0  0  0  0  0  0  0
   26.0348   18.8762   17.7156 H   0  0  0  0  0  0  0  0  0  0  0  0
   27.5646   20.1582   14.0825 H   0  0  0  0  0  0  0  0  0  0  0  0
   20.8370   14.5626    5.0623 H   0  0  0  0  0  0  0  0  0  0  0  0
  1  2  1  0
  2  3  1  0
  3  4  2  0
  4  5  1  0
  5  6  1  0
  6  7  2  0
  6  8  2  0
  6  9  1  0
  9 10  1  0
 10 11  2  0
 11 12  1  0
 12 13  2  0
 13 14  1  0
 14 15  2  0
 15 16  1  0
 16 17  1  0
 18 17  1  6
 18 19  1  0
 19 20  1  0
 20 21  2  0
 20 22  1  0
 22 23  1  0
 23 24  1  0
 24 25  1  0
 25 26  1  0
 26 27  2  0
 26 28  1  0
 28 29  1  0
 29 30  2  0
 22 31  1  0
 31 32  2  0
  5 33  1  0
 33 34  2  0
 34  3  1  0
 15 10  1  0
 31 18  1  0
 18 14  1  0
 29 23  1  0
  1 35  1  0
  1 36  1  0
  1 37  1  0
  2 38  1  0
  2 39  1  0
  4 40  1  0
 11 41  1  0
 12 42  1  0
 13 43  1  0
 16 44  1  0
 16 45  1  0
 17 46  1  0
 17 47  1  0
 19 48  1  0
 19 49  1  0
 23 50  1  1
 24 51  1  0
 24 52  1  0
 25 53  1  0
 25 54  1  0
 28 55  1  0
 33 56  1  0
M  END
>  <meeko>  (1372) 
{"is_sidechain": [true], "free_energy": -10.08, "intermolecular_energy": 0.0, "internal_energy": -10.08, "cluster_size": 20, "cluster_id": 1, "rank_in_cluster": 1}

>  <_RMSD_MCS_to_ref>  (1372) 
1.6680993247234581

$$$$
ligand
     RDKit          3D

 43 46  0  0  0  0  0  0  0  0999 V2000
   18.7980   18.8170    7.7190 C   0  0  0  0  0  0  0  0  0  0  0  0
   18.5270   17.3290    7.8810 C   0  0  0  0  0  0  0  0  0  0  0  0
   19.7440   16.5090    7.6370 C   0  0  0  0  0  0  0  0  0  0  0  0
   20.7760   16.2070    8.5030 C   0  0  0  0  0  0  0  0  0  0  0  0
   21.6190   15.4270    7.7630 N   0  0  0  0  0  0  0  0  0  0  0  0
   22.9230   14.5530    8.3560 S   0  0  0  0  0  6  0  0  0  0  0  0
   22.6760   13.1720    7.9850 O   0  0  0  0  0  0  0  0  0  0  0  0
   24.1090   15.2800    7.9440 O   0  0  0  0  0  0  0  0  0  0  0  0
   22.8460   14.6360   10.1150 C   0  0  0  0  0  0  0  0  0  0  0  0
   23.3990   15.5720   10.8580 N   0  0  0  0  0  0  0  0  0  0  0  0
   23.1340   15.3040   12.1910 C   0  0  0  0  0  0  0  0  0  0  0  0
   23.6650   16.2120   13.2010 C   0  0  0  0  0  0  0  0  0  0  0  0
   24.9790   16.4750   13.5100 C   0  0  0  0  0  0  0  0  0  0  0  0
   24.8980   17.3710   14.5340 N   0  0  0  0  0  0  0  0  0  0  0  0
   25.9650   18.0820   15.2200 C   0  0  2  0  0  0  0  0  0  0  0  0
   25.7630   18.0340   16.7350 C   0  0  0  0  0  0  0  0  0  0  0  0
   26.9120   18.7450   17.4300 C   0  0  0  0  0  0  0  0  0  0  0  0
   27.0500   20.1660   16.9400 C   0  0  0  0  0  0  0  0  0  0  0  0
   27.5560   21.0510   17.6230 O   0  0  0  0  0  0  0  0  0  0  0  0
   26.6360   20.4080   15.6540 N   0  0  0  0  0  0  0  0  0  0  0  0
   26.1010   19.5200   14.7470 C   0  0  0  0  0  0  0  0  0  0  0  0
   25.8150   19.9040   13.6160 O   0  0  0  0  0  0  0  0  0  0  0  0
   23.6130   17.6860   14.8040 N   0  0  0  0  0  0  0  0  0  0  0  0
   22.8460   16.9610   13.9980 N   0  0  0  0  0  0  0  0  0  0  0  0
   22.3750   14.1760   12.4290 C   0  0  0  0  0  0  0  0  0  0  0  0
   21.9810   13.4160   10.9390 S   0  0  0  0  0  0  0  0  0  0  0  0
   21.0780   15.2340    6.5320 C   0  0  0  0  0  0  0  0  0  0  0  0
   19.9470   15.8980    6.4140 N   0  0  0  0  0  0  0  0  0  0  0  0
   18.8831   19.2843    8.7111 H   0  0  0  0  0  0  0  0  0  0  0  0
   19.7370   18.9604    7.1644 H   0  0  0  0  0  0  0  0  0  0  0  0
   17.9698   19.2823    7.1644 H   0  0  0  0  0  0  0  0  0  0  0  0
   18.1731   17.1424    8.9056 H   0  0  0  0  0  0  0  0  0  0  0  0
   17.7690   17.0398    7.1382 H   0  0  0  0  0  0  0  0  0  0  0  0
   20.8929   16.5225    9.5503 H   0  0  0  0  0  0  0  0  0  0  0  0
   25.8832   16.0598   13.0409 H   0  0  0  0  0  0  0  0  0  0  0  0
   26.9040   17.5670   14.9687 H   0  0  0  0  0  0  0  0  0  0  0  0
   24.8163   18.5311   16.9932 H   0  0  0  0  0  0  0  0  0  0  0  0
   25.7325   16.9849   17.0644 H   0  0  0  0  0  0  0  0  0  0  0  0
   26.7245   18.7557   18.5138 H   0  0  0  0  0  0  0  0  0  0  0  0
   27.8437   18.2060   17.2032 H   0  0  0  0  0  0  0  0  0  0  0  0
   26.7386   21.3785   15.3247 H   0  0  0  0  0  0  0  0  0  0  0  0
   22.0685   13.8175   13.4228 H   0  0  0  0  0  0  0  0  0  0  0  0
   21.5230   14.6097    5.7432 H   0  0  0  0  0  0  0  0  0  0  0  0
  1  2  1  0
  2  3  1  0
  3  4  2  0
  4  5  1  0
  5  6  1  0
  6  7  2  0
  6  8  2  0
  6  9  1  0
  9 10  2  0
 10 11  1  0
 11 12  1  0
 12 13  2  0
 13 14  1  0
 14 15  1  0
 15 16  1  0
 16 17  1  0
 17 18  1  0
 18 19  2  0
 18 20  1  0
 20 21  1  0
 21 22  2  0
 14 23  1  0
 23 24  2  0
 11 25  2  0
 25 26  1  0
  5 27  1  0
 27 28  2  0
 28  3  1  0
 26  9  1  0
 24 12  1  0
 21 15  1  0
  1 29  1  0
  1 30  1  0
  1 31  1  0
  2 32  1  0
  2 33  1  0
  4 34  1  0
 13 35  1  0
 15 36  1  1
 16 37  1  0
 16 38  1  0
 17 39  1  0
 17 40  1  0
 20 41  1  0
 25 42  1  0
 27 43  1  0
M  END
>  <meeko>  (1373) 
{"is_sidechain": [true], "free_energy": -10.08, "intermolecular_energy": 0.0, "internal_energy": -10.08, "cluster_size": 17, "cluster_id": 1, "rank_in_cluster": 1}

>  <_RMSD_MCS_to_ref>  (1373) 
0.7370174881085098

$$$$
ligand
     RDKit          3D

 48 51  0  0  0  0  0  0  0  0999 V2000
   18.7970   18.8170    7.7190 C   0  0  0  0  0  0  0  0  0  0  0  0
   18.5280   17.3290    7.8810 C   0  0  0  0  0  0  0  0  0  0  0  0
   19.7100   16.5020    7.5190 C   0  0  0  0  0  0  0  0  0  0  0  0
   20.4730   15.6760    8.3220 C   0  0  0  0  0  0  0  0  0  0  0  0
   21.4040   15.1500    7.4740 N   0  0  0  0  0  0  0  0  0  0  0  0
   22.7570   14.2750    7.9310 S   0  0  0  0  0  6  0  0  0  0  0  0
   23.8800   15.1860    7.8980 O   0  0  0  0  0  0  0  0  0  0  0  0
   22.7240   13.0330    7.1870 O   0  0  0  0  0  0  0  0  0  0  0  0
   22.6150   13.7920    9.6200 C   0  0  0  0  0  0  0  0  0  0  0  0
   21.8580   12.8120   10.2500 C   0  0  0  0  0  0  0  0  0  0  0  0
   22.1320   12.8620   11.6370 C   0  0  0  0  0  0  0  0  0  0  0  0
   23.0480   13.8680   11.8250 C   0  0  0  0  0  0  0  0  0  0  0  0
   23.7150   14.4120   12.9480 C   0  0  0  0  0  0  0  0  0  0  0  0
   24.5750   15.4310   12.7540 C   0  0  0  0  0  0  0  0  0  0  0  0
   25.2700   15.9830   13.9780 C   0  0  0  0  0  0  0  0  0  0  0  0
   25.4890   15.3240   14.9880 O   0  0  0  0  0  0  0  0  0  0  0  0
   25.6390   17.2960   13.8300 N   0  0  0  0  0  0  0  0  0  0  0  0
   26.4560   17.9930   14.8030 C   0  0  2  0  0  0  0  0  0  0  0  0
   25.9140   17.8350   16.2210 C   0  0  0  0  0  0  0  0  0  0  0  0
   26.8010   18.5990   17.1920 C   0  0  0  0  0  0  0  0  0  0  0  0
   26.9220   20.0520   16.7960 C   0  0  0  0  0  0  0  0  0  0  0  0
   27.0420   20.9510   17.6230 O   0  0  0  0  0  0  0  0  0  0  0  0
   26.9260   20.3250   15.4520 N   0  0  0  0  0  0  0  0  0  0  0  0
   26.5060   19.4840   14.4500 C   0  0  0  0  0  0  0  0  0  0  0  0
   26.2130   19.9260   13.3400 O   0  0  0  0  0  0  0  0  0  0  0  0
   24.8650   15.9970   11.5160 N   0  0  0  0  0  0  0  0  0  0  0  0
   24.2540   15.4950   10.4800 C   0  0  0  0  0  0  0  0  0  0  0  0
   23.3440   14.4350   10.6020 N   0  0  0  0  0  0  0  0  0  0  0  0
   21.2380   15.6910    6.2390 C   0  0  0  0  0  0  0  0  0  0  0  0
   20.2060   16.5070    6.2290 N   0  0  0  0  0  0  0  0  0  0  0  0
   18.8815   19.2845    8.7111 H   0  0  0  0  0  0  0  0  0  0  0  0
   19.7359   18.9616    7.1643 H   0  0  0  0  0  0  0  0  0  0  0  0
   17.9682   19.2812    7.1643 H   0  0  0  0  0  0  0  0  0  0  0  0
   18.2634   17.1289    8.9298 H   0  0  0  0  0  0  0  0  0  0  0  0
   17.7058   17.0585    7.2022 H   0  0  0  0  0  0  0  0  0  0  0  0
   20.3566   15.4858    9.3992 H   0  0  0  0  0  0  0  0  0  0  0  0
   21.1644   12.1163    9.7551 H   0  0  0  0  0  0  0  0  0  0  0  0
   21.6954   12.2188   12.4153 H   0  0  0  0  0  0  0  0  0  0  0  0
   23.5355   14.0120   13.9569 H   0  0  0  0  0  0  0  0  0  0  0  0
   25.3226   17.8070   12.9936 H   0  0  0  0  0  0  0  0  0  0  0  0
   27.4632   17.5520   14.7719 H   0  0  0  0  0  0  0  0  0  0  0  0
   24.8900   18.2339   16.2685 H   0  0  0  0  0  0  0  0  0  0  0  0
   25.9059   16.7693   16.4933 H   0  0  0  0  0  0  0  0  0  0  0  0
   26.3654   18.5372   18.2002 H   0  0  0  0  0  0  0  0  0  0  0  0
   27.8046   18.1489   17.1741 H   0  0  0  0  0  0  0  0  0  0  0  0
   27.2779   21.2499   15.1662 H   0  0  0  0  0  0  0  0  0  0  0  0
   24.4575   15.9139    9.4835 H   0  0  0  0  0  0  0  0  0  0  0  0
   21.8767   15.4769    5.3694 H   0  0  0  0  0  0  0  0  0  0  0  0
  1  2  1  0
  2  3  1  0
  3  4  2  0
  4  5  1  0
  5  6  1  0
  6  7  2  0
  6  8  2  0
  6  9  1  0
  9 10  2  0
 10 11  1  0
 11 12  2  0
 12 13  1  0
 13 14  2  0
 14 15  1  0
 15 16  2  0
 15 17  1  0
 17 18  1  0
 18 19  1  0
 19 20  1  0
 20 21  1  0
 21 22  2  0
 21 23  1  0
 23 24  1  0
 24 25  2  0
 14 26  1  0
 26 27  2  0
 27 28  1  0
  5 29  1  0
 29 30  2  0
 30  3  1  0
 28  9  1  0
 28 12  1  0
 24 18  1  0
  1 31  1  0
  1 32  1  0
  1 33  1  0
  2 34  1  0
  2 35  1  0
  4 36  1  0
 10 37  1  0
 11 38  1  0
 13 39  1  0
 17 40  1  0
 18 41  1  1
 19 42  1  0
 19 43  1  0
 20 44  1  0
 20 45  1  0
 23 46  1  0
 27 47  1  0
 29 48  1  0
M  END
>  <meeko>  (1374) 
{"is_sidechain": [true], "free_energy": -10.08, "intermolecular_energy": 0.0, "internal_energy": -10.08, "cluster_size": 16, "cluster_id": 1, "rank_in_cluster": 1}

>  <_RMSD_MCS_to_ref>  (1374) 
0.9082897237237804

$$$$
ligand
     RDKit          3D

 50 53  0  0  0  0  0  0  0  0999 V2000
   18.7970   18.8170    7.7190 C   0  0  0  0  0  0  0  0  0  0  0  0
   18.5280   17.3290    7.8810 C   0  0  0  0  0  0  0  0  0  0  0  0
   19.7850   16.5410    8.0050 C   0  0  0  0  0  0  0  0  0  0  0  0
   20.0980   15.5380    8.9000 C   0  0  0  0  0  0  0  0  0  0  0  0
   21.3780   15.1840    8.5730 N   0  0  0  0  0  0  0  0  0  0  0  0
   22.2020   13.8520    9.1770 S   0  0  0  0  0  6  0  0  0  0  0  0
   21.1430   13.0210    9.7250 O   0  0  0  0  0  0  0  0  0  0  0  0
   23.0800   13.3380    8.1480 O   0  0  0  0  0  0  0  0  0  0  0  0
   23.2000   14.4030   10.5500 C   0  0  0  0  0  0  0  0  0  0  0  0
   23.0140   15.7390   10.9530 C   0  0  0  0  0  0  0  0  0  0  0  0
   23.6860   16.2510   12.0610 C   0  0  0  0  0  0  0  0  0  0  0  0
   24.5360   15.4230   12.8000 C   0  0  0  0  0  0  0  0  0  0  0  0
   25.2600   16.0120   13.9470 C   0  0  0  0  0  0  0  0  0  0  0  0
   25.5080   15.3280   14.9300 O   0  0  0  0  0  0  0  0  0  0  0  0
   25.6200   17.3290   13.8150 N   0  0  0  0  0  0  0  0  0  0  0  0
   26.4470   18.0000   14.8090 C   0  0  2  0  0  0  0  0  0  0  0  0
   25.9000   17.8320   16.2230 C   0  0  0  0  0  0  0  0  0  0  0  0
   26.7860   18.5890   17.2010 C   0  0  0  0  0  0  0  0  0  0  0  0
   26.9190   20.0430   16.8110 C   0  0  0  0  0  0  0  0  0  0  0  0
   27.0160   20.9420   17.6410 O   0  0  0  0  0  0  0  0  0  0  0  0
   26.9530   20.3190   15.4670 N   0  0  0  0  0  0  0  0  0  0  0  0
   26.5030   19.4920   14.4700 C   0  0  0  0  0  0  0  0  0  0  0  0
   26.1720   19.9340   13.3700 O   0  0  0  0  0  0  0  0  0  0  0  0
   24.7210   14.0880   12.4110 C   0  0  0  0  0  0  0  0  0  0  0  0
   25.5530   13.1730   13.2050 C   0  0  0  0  0  0  0  0  0  0  0  0
   25.7340   11.9230   12.9190 N   0  0  0  0  0  0  0  0  0  0  0  0
   25.1310   11.4440   11.8060 N   0  0  0  0  0  0  0  0  0  0  0  0
   24.3550   12.1620   10.9330 C   0  0  0  0  0  0  0  0  0  0  0  0
   23.9500   11.6620    9.8940 O   0  0  0  0  0  0  0  0  0  0  0  0
   24.0670   13.5700   11.2790 C   0  0  0  0  0  0  0  0  0  0  0  0
   21.7670   15.8940    7.4820 C   0  0  0  0  0  0  0  0  0  0  0  0
   20.8300   16.7490    7.1270 N   0  0  0  0  0  0  0  0  0  0  0  0
   18.8815   19.2845    8.7111 H   0  0  0  0  0  0  0  0  0  0  0  0
   19.7359   18.9616    7.1643 H   0  0  0  0  0  0  0  0  0  0  0  0
   17.9682   19.2812    7.1643 H   0  0  0  0  0  0  0  0  0  0  0  0
   17.9224   17.1749    8.7863 H   0  0  0  0  0  0  0  0  0  0  0  0
   17.9986   16.9814    6.9816 H   0  0  0  0  0  0  0  0  0  0  0  0
   19.4631   15.1191    9.6946 H   0  0  0  0  0  0  0  0  0  0  0  0
   22.3294   16.3869   10.3859 H   0  0  0  0  0  0  0  0  0  0  0  0
   23.5482   17.3025   12.3531 H   0  0  0  0  0  0  0  0  0  0  0  0
   25.2972   17.8572   12.9918 H   0  0  0  0  0  0  0  0  0  0  0  0
   27.4484   17.5456   14.7829 H   0  0  0  0  0  0  0  0  0  0  0  0
   24.8762   18.2316   16.2703 H   0  0  0  0  0  0  0  0  0  0  0  0
   25.8887   16.7645   16.4881 H   0  0  0  0  0  0  0  0  0  0  0  0
   26.3441   18.5269   18.2064 H   0  0  0  0  0  0  0  0  0  0  0  0
   27.7870   18.1331   17.1863 H   0  0  0  0  0  0  0  0  0  0  0  0
   27.3508   21.2255   15.1827 H   0  0  0  0  0  0  0  0  0  0  0  0
   26.0534   13.5751   14.0983 H   0  0  0  0  0  0  0  0  0  0  0  0
   25.2681   10.4453   11.5948 H   0  0  0  0  0  0  0  0  0  0  0  0
   22.7310   15.7718    6.9665 H   0  0  0  0  0  0  0  0  0  0  0  0
  1  2  1  0
  2  3  1  0
  3  4  2  0
  4  5  1  0
  5  6  1  0
  6  7  2  0
  6  8  2  0
  6  9  1  0
  9 10  2  0
 10 11  1  0
 11 12  2  0
 12 13  1  0
 13 14  2  0
 13 15  1  0
 15 16  1  0
 16 17  1  0
 17 18  1  0
 18 19  1  0
 19 20  2  0
 19 21  1  0
 21 22  1  0
 22 23  2  0
 12 24  1  0
 24 25  1  0
 25 26  2  0
 26 27  1  0
 27 28  1  0
 28 29  2  0
 28 30  1  0
  5 31  1  0
 31 32  2  0
 32  3  1  0
 30  9  1  0
 22 16  1  0
 30 24  2  0
  1 33  1  0
  1 34  1  0
  1 35  1  0
  2 36  1  0
  2 37  1  0
  4 38  1  0
 10 39  1  0
 11 40  1  0
 15 41  1  0
 16 42  1  1
 17 43  1  0
 17 44  1  0
 18 45  1  0
 18 46  1  0
 21 47  1  0
 25 48  1  0
 27 49  1  0
 31 50  1  0
M  END
>  <meeko>  (1375) 
{"is_sidechain": [true], "free_energy": -10.08, "intermolecular_energy": 0.0, "internal_energy": -10.08, "cluster_size": 3, "cluster_id": 2, "rank_in_cluster": 1}

>  <_RMSD_MCS_to_ref>  (1375) 
0.9006109037758757

$$$$
ligand
     RDKit          3D

 48 51  0  0  0  0  0  0  0  0999 V2000
   18.9090   19.1540    7.5370 C   0  0  0  0  0  0  0  0  0  0  0  0
   18.7730   17.6460    7.6780 C   0  0  0  0  0  0  0  0  0  0  0  0
   20.0680   16.9440    7.4610 C   0  0  0  0  0  0  0  0  0  0  0  0
   20.8310   16.2340    8.3670 C   0  0  0  0  0  0  0  0  0  0  0  0
   21.8980   15.7960    7.6360 N   0  0  0  0  0  0  0  0  0  0  0  0
   23.3110   15.1040    8.2510 S   0  0  0  0  0  6  0  0  0  0  0  0
   24.2500   16.2130    8.2900 O   0  0  0  0  0  0  0  0  0  0  0  0
   23.5620   13.9620    7.3870 O   0  0  0  0  0  0  0  0  0  0  0  0
   22.9250   14.5700    9.8730 C   0  0  0  0  0  0  0  0  0  0  0  0
   22.1450   13.4740   10.0160 C   0  0  0  0  0  0  0  0  0  0  0  0
   21.8080   12.9450   11.3270 C   0  0  0  0  0  0  0  0  0  0  0  0
   22.2920   13.5620   12.4150 C   0  0  0  0  0  0  0  0  0  0  0  0
   23.0940   14.6960   12.2850 N   0  0  0  0  0  0  0  0  0  0  0  0
   23.6470   15.4100   13.2950 N   0  0  0  0  0  0  0  0  0  0  0  0
   24.3070   16.4190   12.6990 C   0  0  0  0  0  0  0  0  0  0  0  0
   25.0460   17.4270   13.4730 C   0  0  0  0  0  0  0  0  0  0  0  0
   26.2080   17.7360   13.2280 O   0  0  0  0  0  0  0  0  0  0  0  0
   24.3180   17.9760   14.5020 N   0  0  0  0  0  0  0  0  0  0  0  0
   24.9040   18.8590   15.4900 C   0  0  1  0  0  0  0  0  0  0  0  0
   25.9570   18.1510   16.3360 C   0  0  0  0  0  0  0  0  0  0  0  0
   26.5510   19.1300   17.3360 C   0  0  0  0  0  0  0  0  0  0  0  0
   27.1150   20.3480   16.6430 C   0  0  0  0  0  0  0  0  0  0  0  0
   28.0960   20.9510   17.0660 O   0  0  0  0  0  0  0  0  0  0  0  0
   26.4530   20.7770   15.5210 N   0  0  0  0  0  0  0  0  0  0  0  0
   25.5520   20.0520   14.7790 C   0  0  0  0  0  0  0  0  0  0  0  0
   25.2820   20.3750   13.6230 O   0  0  0  0  0  0  0  0  0  0  0  0
   24.1870   16.3520   11.2910 C   0  0  0  0  0  0  0  0  0  0  0  0
   23.4240   15.2360   11.0400 C   0  0  0  0  0  0  0  0  0  0  0  0
   21.7890   16.2660    6.3660 C   0  0  0  0  0  0  0  0  0  0  0  0
   20.6800   16.9610    6.2240 N   0  0  0  0  0  0  0  0  0  0  0  0
   18.9504   19.6134    8.5356 H   0  0  0  0  0  0  0  0  0  0  0  0
   19.8320   19.3891    6.9867 H   0  0  0  0  0  0  0  0  0  0  0  0
   18.0430   19.5504    6.9867 H   0  0  0  0  0  0  0  0  0  0  0  0
   18.4101   17.4158    8.6906 H   0  0  0  0  0  0  0  0  0  0  0  0
   18.0657   17.2966    6.9114 H   0  0  0  0  0  0  0  0  0  0  0  0
   20.6261   16.0608    9.4338 H   0  0  0  0  0  0  0  0  0  0  0  0
   21.7564   12.9710    9.1182 H   0  0  0  0  0  0  0  0  0  0  0  0
   21.1682   12.0556   11.4250 H   0  0  0  0  0  0  0  0  0  0  0  0
   22.0552   13.1716   13.4157 H   0  0  0  0  0  0  0  0  0  0  0  0
   23.3155   17.7505   14.5734 H   0  0  0  0  0  0  0  0  0  0  0  0
   24.0994   19.1941   16.1610 H   0  0  0  0  0  0  0  0  0  0  0  0
   25.4904   17.3140   16.8761 H   0  0  0  0  0  0  0  0  0  0  0  0
   26.7543   17.7685   15.6818 H   0  0  0  0  0  0  0  0  0  0  0  0
   25.7647   19.4482   18.0363 H   0  0  0  0  0  0  0  0  0  0  0  0
   27.3686   18.6257   17.8719 H   0  0  0  0  0  0  0  0  0  0  0  0
   26.6506   21.7367   15.2035 H   0  0  0  0  0  0  0  0  0  0  0  0
   24.6141   17.0464   10.5525 H   0  0  0  0  0  0  0  0  0  0  0  0
   22.5249   16.0903    5.5675 H   0  0  0  0  0  0  0  0  0  0  0  0
  1  2  1  0
  2  3  1  0
  3  4  2  0
  4  5  1  0
  5  6  1  0
  6  7  2  0
  6  8  2  0
  6  9  1  0
  9 10  2  0
 10 11  1  0
 11 12  2  0
 12 13  1  0
 13 14  1  0
 14 15  2  0
 15 16  1  0
 16 17  2  0
 16 18  1  0
 18 19  1  0
 19 20  1  0
 20 21  1  0
 21 22  1  0
 22 23  2  0
 22 24  1  0
 24 25  1  0
 25 26  2  0
 15 27  1  0
 27 28  2  0
  5 29  1  0
 29 30  2  0
 30  3  1  0
 28  9  1  0
 28 13  1  0
 25 19  1  0
  1 31  1  0
  1 32  1  0
  1 33  1  0
  2 34  1  0
  2 35  1  0
  4 36  1  0
 10 37  1  0
 11 38  1  0
 12 39  1  0
 18 40  1  0
 19 41  1  1
 20 42  1  0
 20 43  1  0
 21 44  1  0
 21 45  1  0
 24 46  1  0
 27 47  1  0
 29 48  1  0
M  END
>  <meeko>  (1376) 
{"is_sidechain": [true], "free_energy": -10.08, "intermolecular_energy": 0.0, "internal_energy": -10.08, "cluster_size": 18, "cluster_id": 1, "rank_in_cluster": 1}

>  <_RMSD_MCS_to_ref>  (1376) 
0.7967727962781412

$$$$
ligand
     RDKit          3D

 47 50  0  0  0  0  0  0  0  0999 V2000
   18.9090   19.1540    7.5370 C   0  0  0  0  0  0  0  0  0  0  0  0
   18.7730   17.6460    7.6780 C   0  0  0  0  0  0  0  0  0  0  0  0
   20.0540   16.9940    8.0670 C   0  0  0  0  0  0  0  0  0  0  0  0
   20.3010   16.1440    9.1260 C   0  0  0  0  0  0  0  0  0  0  0  0
   21.6300   15.8470    9.0180 N   0  0  0  0  0  0  0  0  0  0  0  0
   22.4370   14.6540    9.8840 S   0  0  0  0  0  6  0  0  0  0  0  0
   22.3140   15.0210   11.2800 O   0  0  0  0  0  0  0  0  0  0  0  0
   21.9240   13.4000    9.3620 O   0  0  0  0  0  0  0  0  0  0  0  0
   24.1320   14.7520    9.4480 C   0  0  0  0  0  0  0  0  0  0  0  0
   24.6270   13.8800    8.4720 C   0  0  0  0  0  0  0  0  0  0  0  0
   25.9720   13.9400    8.1250 C   0  0  0  0  0  0  0  0  0  0  0  0
   26.8830   14.7840    8.6610 N   0  0  0  0  0  0  0  0  0  0  0  0
   26.3930   15.6190    9.6080 C   0  0  0  0  0  0  0  0  0  0  0  0
   27.0390   16.6020   10.3880 C   0  0  0  0  0  0  0  0  0  0  0  0
   26.0700   17.1600   11.2030 C   0  0  0  0  0  0  0  0  0  0  0  0
   26.1520   18.1750   12.2330 C   0  0  0  0  0  0  0  0  0  0  0  0
   27.0870   18.9640   12.3270 O   0  0  0  0  0  0  0  0  0  0  0  0
   25.0870   18.1830   13.1140 N   0  0  0  0  0  0  0  0  0  0  0  0
   25.2330   18.7570   14.4400 C   0  0  1  0  0  0  0  0  0  0  0  0
   26.2590   17.9890   15.2620 C   0  0  0  0  0  0  0  0  0  0  0  0
   26.3990   18.6370   16.6310 C   0  0  0  0  0  0  0  0  0  0  0  0
   26.7610   20.0990   16.5100 C   0  0  0  0  0  0  0  0  0  0  0  0
   27.4640   20.6710   17.3380 O   0  0  0  0  0  0  0  0  0  0  0  0
   26.2310   20.7770   15.4420 N   0  0  0  0  0  0  0  0  0  0  0  0
   25.6930   20.2180   14.3050 C   0  0  0  0  0  0  0  0  0  0  0  0
   25.5850   20.8780   13.2730 O   0  0  0  0  0  0  0  0  0  0  0  0
   24.8620   16.5660   10.9500 O   0  0  0  0  0  0  0  0  0  0  0  0
   25.0610   15.6220    9.9950 C   0  0  0  0  0  0  0  0  0  0  0  0
   22.1460   16.4970    7.9410 C   0  0  0  0  0  0  0  0  0  0  0  0
   21.2010   17.1720    7.3130 N   0  0  0  0  0  0  0  0  0  0  0  0
   18.9504   19.6134    8.5356 H   0  0  0  0  0  0  0  0  0  0  0  0
   19.8320   19.3891    6.9867 H   0  0  0  0  0  0  0  0  0  0  0  0
   18.0430   19.5504    6.9867 H   0  0  0  0  0  0  0  0  0  0  0  0
   18.0185   17.4300    8.4487 H   0  0  0  0  0  0  0  0  0  0  0  0
   18.4758   17.2432    6.6985 H   0  0  0  0  0  0  0  0  0  0  0  0
   19.5892   15.7868    9.8848 H   0  0  0  0  0  0  0  0  0  0  0  0
   23.9590   13.1547    7.9844 H   0  0  0  0  0  0  0  0  0  0  0  0
   26.3245   13.2432    7.3502 H   0  0  0  0  0  0  0  0  0  0  0  0
   28.1049   16.8719   10.3545 H   0  0  0  0  0  0  0  0  0  0  0  0
   24.1837   17.7791   12.8281 H   0  0  0  0  0  0  0  0  0  0  0  0
   24.2617   18.7008   14.9532 H   0  0  0  0  0  0  0  0  0  0  0  0
   25.9274   16.9470   15.3816 H   0  0  0  0  0  0  0  0  0  0  0  0
   27.2304   18.0075   14.7463 H   0  0  0  0  0  0  0  0  0  0  0  0
   25.4441   18.5474   17.1696 H   0  0  0  0  0  0  0  0  0  0  0  0
   27.2032   18.1236   17.1784 H   0  0  0  0  0  0  0  0  0  0  0  0
   26.2361   21.8056   15.4961 H   0  0  0  0  0  0  0  0  0  0  0  0
   23.2023   16.4650    7.6358 H   0  0  0  0  0  0  0  0  0  0  0  0
  1  2  1  0
  2  3  1  0
  3  4  2  0
  4  5  1  0
  5  6  1  0
  6  7  2  0
  6  8  2  0
  6  9  1  0
  9 10  2  0
 10 11  1  0
 11 12  2  0
 12 13  1  0
 13 14  1  0
 14 15  2  0
 15 16  1  0
 16 17  2  0
 16 18  1  0
 18 19  1  0
 19 20  1  0
 20 21  1  0
 21 22  1  0
 22 23  2  0
 22 24  1  0
 24 25  1  0
 25 26  2  0
 15 27  1  0
 27 28  1  0
  5 29  1  0
 29 30  2  0
 30  3  1  0
 28  9  1  0
 28 13  2  0
 25 19  1  0
  1 31  1  0
  1 32  1  0
  1 33  1  0
  2 34  1  0
  2 35  1  0
  4 36  1  0
 10 37  1  0
 11 38  1  0
 14 39  1  0
 18 40  1  0
 19 41  1  1
 20 42  1  0
 20 43  1  0
 21 44  1  0
 21 45  1  0
 24 46  1  0
 29 47  1  0
M  END
>  <meeko>  (1377) 
{"is_sidechain": [true], "free_energy": -10.08, "intermolecular_energy": 0.0, "internal_energy": -10.08, "cluster_size": 9, "cluster_id": 1, "rank_in_cluster": 1}

>  <_RMSD_MCS_to_ref>  (1377) 
0.6540874049646074

$$$$
ligand
     RDKit          3D

 46 49  0  0  0  0  0  0  0  0999 V2000
   18.9090   19.1540    7.5370 C   0  0  0  0  0  0  0  0  0  0  0  0
   18.7730   17.6460    7.6780 C   0  0  0  0  0  0  0  0  0  0  0  0
   20.0620   16.9880    8.0280 C   0  0  0  0  0  0  0  0  0  0  0  0
   20.3530   16.1730    9.1050 C   0  0  0  0  0  0  0  0  0  0  0  0
   21.6720   15.8580    8.9420 N   0  0  0  0  0  0  0  0  0  0  0  0
   22.5130   14.6860    9.8240 S   0  0  0  0  0  6  0  0  0  0  0  0
   21.9660   13.4320    9.3320 O   0  0  0  0  0  0  0  0  0  0  0  0
   22.3200   15.0610   11.2130 O   0  0  0  0  0  0  0  0  0  0  0  0
   24.1990   14.7060    9.4780 C   0  0  0  0  0  0  0  0  0  0  0  0
   24.6830   13.8000    8.6140 C   0  0  0  0  0  0  0  0  0  0  0  0
   26.1530   13.8640    8.4000 C   0  0  0  0  0  0  0  0  0  0  0  0
   26.9740   14.6880    8.9750 N   0  0  0  0  0  0  0  0  0  0  0  0
   26.4250   15.5690    9.8610 C   0  0  0  0  0  0  0  0  0  0  0  0
   27.0080   16.4840   10.6030 N   0  0  0  0  0  0  0  0  0  0  0  0
   25.9760   17.0700   11.2920 C   0  0  0  0  0  0  0  0  0  0  0  0
   26.1190   18.1440   12.2990 C   0  0  0  0  0  0  0  0  0  0  0  0
   27.0790   18.9080   12.3590 O   0  0  0  0  0  0  0  0  0  0  0  0
   25.0580   18.1950   13.1930 N   0  0  0  0  0  0  0  0  0  0  0  0
   25.2250   18.7910   14.5040 C   0  0  1  0  0  0  0  0  0  0  0  0
   26.2620   18.0290   15.3180 C   0  0  0  0  0  0  0  0  0  0  0  0
   26.4390   18.6990   16.6720 C   0  0  0  0  0  0  0  0  0  0  0  0
   26.8060   20.1570   16.5180 C   0  0  0  0  0  0  0  0  0  0  0  0
   27.5420   20.7350   17.3120 O   0  0  0  0  0  0  0  0  0  0  0  0
   26.2460   20.8230   15.4590 N   0  0  0  0  0  0  0  0  0  0  0  0
   25.6940   20.2460   14.3390 C   0  0  0  0  0  0  0  0  0  0  0  0
   25.5860   20.8850   13.2920 O   0  0  0  0  0  0  0  0  0  0  0  0
   24.7680   16.5670   10.9860 N   0  0  0  0  0  0  0  0  0  0  0  0
   25.0490   15.5930   10.1060 N   0  0  0  0  0  0  0  0  0  0  0  0
   22.1410   16.4670    7.8190 C   0  0  0  0  0  0  0  0  0  0  0  0
   21.1750   17.1420    7.2220 N   0  0  0  0  0  0  0  0  0  0  0  0
   18.9504   19.6134    8.5356 H   0  0  0  0  0  0  0  0  0  0  0  0
   19.8320   19.3891    6.9867 H   0  0  0  0  0  0  0  0  0  0  0  0
   18.0430   19.5504    6.9867 H   0  0  0  0  0  0  0  0  0  0  0  0
   18.0403   17.4303    8.4696 H   0  0  0  0  0  0  0  0  0  0  0  0
   18.4470   17.2473    6.7060 H   0  0  0  0  0  0  0  0  0  0  0  0
   19.6764   15.8511    9.9104 H   0  0  0  0  0  0  0  0  0  0  0  0
   24.0415   13.0666    8.1035 H   0  0  0  0  0  0  0  0  0  0  0  0
   26.5849   13.1457    7.6876 H   0  0  0  0  0  0  0  0  0  0  0  0
   24.1436   17.8057   12.9223 H   0  0  0  0  0  0  0  0  0  0  0  0
   24.2608   18.7525   15.0321 H   0  0  0  0  0  0  0  0  0  0  0  0
   25.9239   16.9924   15.4636 H   0  0  0  0  0  0  0  0  0  0  0  0
   27.2219   18.0305   14.7808 H   0  0  0  0  0  0  0  0  0  0  0  0
   25.4970   18.6239   17.2351 H   0  0  0  0  0  0  0  0  0  0  0  0
   27.2537   18.1901   17.2080 H   0  0  0  0  0  0  0  0  0  0  0  0
   26.2377   21.8519   15.5063 H   0  0  0  0  0  0  0  0  0  0  0  0
   23.1786   16.4058    7.4590 H   0  0  0  0  0  0  0  0  0  0  0  0
  1  2  1  0
  2  3  1  0
  3  4  2  0
  4  5  1  0
  5  6  1  0
  6  7  2  0
  6  8  2  0
  6  9  1  0
  9 10  2  0
 10 11  1  0
 11 12  2  0
 12 13  1  0
 13 14  2  0
 14 15  1  0
 15 16  1  0
 16 17  2  0
 16 18  1  0
 18 19  1  0
 19 20  1  0
 20 21  1  0
 21 22  1  0
 22 23  2  0
 22 24  1  0
 24 25  1  0
 25 26  2  0
 15 27  2  0
 27 28  1  0
  5 29  1  0
 29 30  2  0
 30  3  1  0
 28  9  1  0
 28 13  1  0
 25 19  1  0
  1 31  1  0
  1 32  1  0
  1 33  1  0
  2 34  1  0
  2 35  1  0
  4 36  1  0
 10 37  1  0
 11 38  1  0
 18 39  1  0
 19 40  1  1
 20 41  1  0
 20 42  1  0
 21 43  1  0
 21 44  1  0
 24 45  1  0
 29 46  1  0
M  END
>  <meeko>  (1378) 
{"is_sidechain": [true], "free_energy": -10.08, "intermolecular_energy": 0.0, "internal_energy": -10.08, "cluster_size": 15, "cluster_id": 1, "rank_in_cluster": 1}

>  <_RMSD_MCS_to_ref>  (1378) 
0.6574394775693554

$$$$
ligand
     RDKit          3D

 42 44  0  0  0  0  0  0  0  0999 V2000
   18.9090   19.1540    7.5370 C   0  0  0  0  0  0  0  0  0  0  0  0
   18.7730   17.6460    7.6780 C   0  0  0  0  0  0  0  0  0  0  0  0
   20.0940   16.9600    7.6760 C   0  0  0  0  0  0  0  0  0  0  0  0
   20.9190   16.6630    8.7420 C   0  0  0  0  0  0  0  0  0  0  0  0
   21.9990   16.0520    8.1700 N   0  0  0  0  0  0  0  0  0  0  0  0
   23.2820   15.3500    8.9790 S   0  0  0  0  0  6  0  0  0  0  0  0
   24.4740   16.0850    8.5960 O   0  0  0  0  0  0  0  0  0  0  0  0
   23.1530   13.9160    8.8030 O   0  0  0  0  0  0  0  0  0  0  0  0
   23.1180   15.6120   10.6880 C   0  0  0  0  0  0  0  0  0  0  0  0
   23.9670   16.4570   11.4410 C   0  0  0  0  0  0  0  0  0  0  0  0
   23.5030   16.3740   12.7400 C   0  0  0  0  0  0  0  0  0  0  0  0
   23.9130   16.9730   13.9800 C   0  0  0  0  0  0  0  0  0  0  0  0
   23.6100   16.4930   15.0680 O   0  0  0  0  0  0  0  0  0  0  0  0
   24.6550   18.1210   13.8660 N   0  0  0  0  0  0  0  0  0  0  0  0
   25.0230   18.9170   15.0270 C   0  0  1  0  0  0  0  0  0  0  0  0
   25.9550   18.1670   15.9730 C   0  0  0  0  0  0  0  0  0  0  0  0
   26.3280   19.0710   17.1380 C   0  0  0  0  0  0  0  0  0  0  0  0
   26.9370   20.3670   16.6550 C   0  0  0  0  0  0  0  0  0  0  0  0
   27.8170   20.9540   17.2770 O   0  0  0  0  0  0  0  0  0  0  0  0
   26.4350   20.8830   15.4870 N   0  0  0  0  0  0  0  0  0  0  0  0
   25.7250   20.1880   14.5410 C   0  0  0  0  0  0  0  0  0  0  0  0
   25.6580   20.5780   13.3760 O   0  0  0  0  0  0  0  0  0  0  0  0
   22.4400   15.5090   12.6840 N   0  0  0  0  0  0  0  0  0  0  0  0
   22.1800   15.0310   11.4530 N   0  0  0  0  0  0  0  0  0  0  0  0
   21.7890   15.9410    6.8330 C   0  0  0  0  0  0  0  0  0  0  0  0
   20.6490   16.5080    6.4940 N   0  0  0  0  0  0  0  0  0  0  0  0
   18.9504   19.6134    8.5356 H   0  0  0  0  0  0  0  0  0  0  0  0
   19.8320   19.3891    6.9867 H   0  0  0  0  0  0  0  0  0  0  0  0
   18.0430   19.5504    6.9867 H   0  0  0  0  0  0  0  0  0  0  0  0
   18.2597   17.4236    8.6251 H   0  0  0  0  0  0  0  0  0  0  0  0
   18.1991   17.2764    6.8154 H   0  0  0  0  0  0  0  0  0  0  0  0
   20.7464   16.8707    9.8083 H   0  0  0  0  0  0  0  0  0  0  0  0
   24.8149   17.0525   11.0715 H   0  0  0  0  0  0  0  0  0  0  0  0
   24.9605   18.4284   12.9316 H   0  0  0  0  0  0  0  0  0  0  0  0
   24.1041   19.1519   15.5841 H   0  0  0  0  0  0  0  0  0  0  0  0
   25.4463   17.2690   16.3537 H   0  0  0  0  0  0  0  0  0  0  0  0
   26.8658   17.8704   15.4323 H   0  0  0  0  0  0  0  0  0  0  0  0
   25.4227   19.2960   17.7210 H   0  0  0  0  0  0  0  0  0  0  0  0
   27.0710   18.5486   17.7585 H   0  0  0  0  0  0  0  0  0  0  0  0
   26.6066   21.8820   15.3040 H   0  0  0  0  0  0  0  0  0  0  0  0
   21.8878   15.2476   13.5133 H   0  0  0  0  0  0  0  0  0  0  0  0
   22.4756   15.4462    6.1303 H   0  0  0  0  0  0  0  0  0  0  0  0
  1  2  1  0
  2  3  1  0
  3  4  2  0
  4  5  1  0
  5  6  1  0
  6  7  2  0
  6  8  2  0
  6  9  1  0
  9 10  1  0
 10 11  2  0
 11 12  1  0
 12 13  2  0
 12 14  1  0
 14 15  1  0
 15 16  1  0
 16 17  1  0
 17 18  1  0
 18 19  2  0
 18 20  1  0
 20 21  1  0
 21 22  2  0
 11 23  1  0
 23 24  1  0
  5 25  1  0
 25 26  2  0
 26  3  1  0
 24  9  2  0
 21 15  1  0
  1 27  1  0
  1 28  1  0
  1 29  1  0
  2 30  1  0
  2 31  1  0
  4 32  1  0
 10 33  1  0
 14 34  1  0
 15 35  1  1
 16 36  1  0
 16 37  1  0
 17 38  1  0
 17 39  1  0
 20 40  1  0
 23 41  1  0
 25 42  1  0
M  END
>  <meeko>  (1379) 
{"is_sidechain": [true], "free_energy": -10.08, "intermolecular_energy": 0.0, "internal_energy": -10.08, "cluster_size": 20, "cluster_id": 1, "rank_in_cluster": 1}

>  <_RMSD_MCS_to_ref>  (1379) 
0.6959107541759783

$$$$
ligand
     RDKit          3D

 49 52  0  0  0  0  0  0  0  0999 V2000
   18.9090   19.1540    7.5370 C   0  0  0  0  0  0  0  0  0  0  0  0
   18.7730   17.6460    7.6780 C   0  0  0  0  0  0  0  0  0  0  0  0
   19.8730   16.9160    6.9900 C   0  0  0  0  0  0  0  0  0  0  0  0
   21.2380   17.0860    7.1110 C   0  0  0  0  0  0  0  0  0  0  0  0
   21.7670   16.1760    6.2420 N   0  0  0  0  0  0  0  0  0  0  0  0
   23.3890   15.7570    6.1240 S   0  0  0  0  0  6  0  0  0  0  0  0
   23.4460   14.6680    5.1670 O   0  0  0  0  0  0  0  0  0  0  0  0
   24.1100   16.9990    5.9340 O   0  0  0  0  0  0  0  0  0  0  0  0
   23.7740   15.1210    7.7120 C   0  0  0  0  0  0  0  0  0  0  0  0
   23.8780   13.7600    7.8950 C   0  0  0  0  0  0  0  0  0  0  0  0
   24.1780   13.1970    9.0880 N   0  0  0  0  0  0  0  0  0  0  0  0
   24.3660   13.9780   10.1550 C   0  0  0  0  0  0  0  0  0  0  0  0
   24.6660   13.4000   11.3170 N   0  0  0  0  0  0  0  0  0  0  0  0
   24.8560   14.1790   12.4120 C   0  0  0  0  0  0  0  0  0  0  0  0
   24.7420   15.5600   12.4120 C   0  0  0  0  0  0  0  0  0  0  0  0
   24.9730   16.2950   13.6780 C   0  0  0  0  0  0  0  0  0  0  0  0
   24.8860   15.7120   14.7520 O   0  0  0  0  0  0  0  0  0  0  0  0
   25.2550   17.6400   13.5770 N   0  0  0  0  0  0  0  0  0  0  0  0
   25.3460   18.4780   14.7680 C   0  0  1  0  0  0  0  0  0  0  0  0
   26.2870   17.8970   15.8170 C   0  0  0  0  0  0  0  0  0  0  0  0
   26.3690   18.8450   17.0040 C   0  0  0  0  0  0  0  0  0  0  0  0
   26.7930   20.2290   16.5700 C   0  0  0  0  0  0  0  0  0  0  0  0
   27.4920   20.9550   17.2710 O   0  0  0  0  0  0  0  0  0  0  0  0
   26.3340   20.6590   15.3510 N   0  0  0  0  0  0  0  0  0  0  0  0
   25.8640   19.8550   14.3440 C   0  0  0  0  0  0  0  0  0  0  0  0
   25.8560   20.2320   13.1720 O   0  0  0  0  0  0  0  0  0  0  0  0
   24.4440   16.1730   11.1990 C   0  0  0  0  0  0  0  0  0  0  0  0
   24.2510   15.3810   10.0540 C   0  0  0  0  0  0  0  0  0  0  0  0
   23.9500   15.9550    8.8090 C   0  0  0  0  0  0  0  0  0  0  0  0
   20.7590   15.4690    5.6690 C   0  0  0  0  0  0  0  0  0  0  0  0
   19.5920   15.8990    6.0980 N   0  0  0  0  0  0  0  0  0  0  0  0
   18.9504   19.6134    8.5356 H   0  0  0  0  0  0  0  0  0  0  0  0
   19.8320   19.3891    6.9867 H   0  0  0  0  0  0  0  0  0  0  0  0
   18.0430   19.5504    6.9867 H   0  0  0  0  0  0  0  0  0  0  0  0
   18.7902   17.3871    8.7470 H   0  0  0  0  0  0  0  0  0  0  0  0
   17.8239   17.3470    7.2092 H   0  0  0  0  0  0  0  0  0  0  0  0
   21.7760   17.7931    7.7595 H   0  0  0  0  0  0  0  0  0  0  0  0
   23.7093   13.1002    7.0312 H   0  0  0  0  0  0  0  0  0  0  0  0
   25.1168   13.6831   13.3586 H   0  0  0  0  0  0  0  0  0  0  0  0
   25.4036   18.0595   12.6481 H   0  0  0  0  0  0  0  0  0  0  0  0
   24.3458   18.5408   15.2215 H   0  0  0  0  0  0  0  0  0  0  0  0
   25.9051   16.9215   16.1523 H   0  0  0  0  0  0  0  0  0  0  0  0
   27.2884   17.7678   15.3805 H   0  0  0  0  0  0  0  0  0  0  0  0
   25.3807   18.9063   17.4831 H   0  0  0  0  0  0  0  0  0  0  0  0
   27.1185   18.4562   17.7090 H   0  0  0  0  0  0  0  0  0  0  0  0
   26.3431   21.6741   15.1767 H   0  0  0  0  0  0  0  0  0  0  0  0
   24.3602   17.2680   11.1367 H   0  0  0  0  0  0  0  0  0  0  0  0
   23.8551   17.0458    8.7038 H   0  0  0  0  0  0  0  0  0  0  0  0
   20.8988   14.6510    4.9470 H   0  0  0  0  0  0  0  0  0  0  0  0
  1  2  1  0
  2  3  1  0
  3  4  2  0
  4  5  1  0
  5  6  1  0
  6  7  2  0
  6  8  2  0
  6  9  1  0
  9 10  2  0
 10 11  1  0
 11 12  2  0
 12 13  1  0
 13 14  2  0
 14 15  1  0
 15 16  1  0
 16 17  2  0
 16 18  1  0
 18 19  1  0
 19 20  1  0
 20 21  1  0
 21 22  1  0
 22 23  2  0
 22 24  1  0
 24 25  1  0
 25 26  2  0
 15 27  2  0
 27 28  1  0
 28 29  2  0
  5 30  1  0
 30 31  2  0
 31  3  1  0
 29  9  1  0
 28 12  1  0
 25 19  1  0
  1 32  1  0
  1 33  1  0
  1 34  1  0
  2 35  1  0
  2 36  1  0
  4 37  1  0
 10 38  1  0
 14 39  1  0
 18 40  1  0
 19 41  1  1
 20 42  1  0
 20 43  1  0
 21 44  1  0
 21 45  1  0
 24 46  1  0
 27 47  1  0
 29 48  1  0
 30 49  1  0
M  END
>  <meeko>  (1380) 
{"is_sidechain": [true], "free_energy": -10.08, "intermolecular_energy": 0.0, "internal_energy": -10.08, "cluster_size": 18, "cluster_id": 1, "rank_in_cluster": 1}

>  <_RMSD_MCS_to_ref>  (1380) 
0.6111678256511145

$$$$
ligand
     RDKit          3D

 46 49  0  0  0  0  0  0  0  0999 V2000
   18.9090   19.1540    7.5370 C   0  0  0  0  0  0  0  0  0  0  0  0
   18.7730   17.6460    7.6780 C   0  0  0  0  0  0  0  0  0  0  0  0
   19.8660   16.9150    6.9810 C   0  0  0  0  0  0  0  0  0  0  0  0
   21.1040   16.5370    7.4640 C   0  0  0  0  0  0  0  0  0  0  0  0
   21.7040   15.9210    6.4030 N   0  0  0  0  0  0  0  0  0  0  0  0
   23.1900   15.1430    6.4220 S   0  0  0  0  0  6  0  0  0  0  0  0
   22.9830   13.8700    5.7570 O   0  0  0  0  0  0  0  0  0  0  0  0
   24.1460   16.1210    5.9380 O   0  0  0  0  0  0  0  0  0  0  0  0
   23.5410   14.8290    8.1160 C   0  0  0  0  0  0  0  0  0  0  0  0
   23.5450   13.5230    8.5620 C   0  0  0  0  0  0  0  0  0  0  0  0
   23.8080   13.1870    9.8450 N   0  0  0  0  0  0  0  0  0  0  0  0
   24.0630   14.2690   10.6200 C   0  0  0  0  0  0  0  0  0  0  0  0
   24.4250   14.1370   12.2740 S   0  0  0  0  0  0  0  0  0  0  0  0
   24.5910   15.8380   12.4440 C   0  0  0  0  0  0  0  0  0  0  0  0
   24.9230   16.4650   13.7150 C   0  0  0  0  0  0  0  0  0  0  0  0
   25.0170   15.8290   14.7620 O   0  0  0  0  0  0  0  0  0  0  0  0
   25.1190   17.8270   13.6900 N   0  0  0  0  0  0  0  0  0  0  0  0
   25.3100   18.6030   14.9060 C   0  0  1  0  0  0  0  0  0  0  0  0
   26.3380   17.9710   15.8370 C   0  0  0  0  0  0  0  0  0  0  0  0
   26.5160   18.8490   17.0670 C   0  0  0  0  0  0  0  0  0  0  0  0
   26.8930   20.2610   16.6830 C   0  0  0  0  0  0  0  0  0  0  0  0
   27.6360   20.9540   17.3710 O   0  0  0  0  0  0  0  0  0  0  0  0
   26.3370   20.7540   15.5300 N   0  0  0  0  0  0  0  0  0  0  0  0
   25.7820   20.0080   14.5200 C   0  0  0  0  0  0  0  0  0  0  0  0
   25.6690   20.4600   13.3820 O   0  0  0  0  0  0  0  0  0  0  0  0
   24.3700   16.4880   11.2410 C   0  0  0  0  0  0  0  0  0  0  0  0
   24.0640   15.5920   10.1820 C   0  0  0  0  0  0  0  0  0  0  0  0
   23.7980   15.9190    8.8820 N   0  0  0  0  0  0  0  0  0  0  0  0
   20.8390   15.8980    5.3550 C   0  0  0  0  0  0  0  0  0  0  0  0
   19.7160   16.5100    5.6700 N   0  0  0  0  0  0  0  0  0  0  0  0
   18.9504   19.6134    8.5356 H   0  0  0  0  0  0  0  0  0  0  0  0
   19.8320   19.3891    6.9867 H   0  0  0  0  0  0  0  0  0  0  0  0
   18.0430   19.5504    6.9867 H   0  0  0  0  0  0  0  0  0  0  0  0
   18.7986   17.3865    8.7466 H   0  0  0  0  0  0  0  0  0  0  0  0
   17.8200   17.3484    7.2163 H   0  0  0  0  0  0  0  0  0  0  0  0
   21.5130   16.6959    8.4727 H   0  0  0  0  0  0  0  0  0  0  0  0
   23.3247   12.7206    7.8425 H   0  0  0  0  0  0  0  0  0  0  0  0
   25.1309   18.3125   12.7817 H   0  0  0  0  0  0  0  0  0  0  0  0
   24.3508   18.6375   15.4433 H   0  0  0  0  0  0  0  0  0  0  0  0
   25.9896   16.9742   16.1453 H   0  0  0  0  0  0  0  0  0  0  0  0
   27.2997   17.8769   15.3114 H   0  0  0  0  0  0  0  0  0  0  0  0
   25.5721   18.8709   17.6314 H   0  0  0  0  0  0  0  0  0  0  0  0
   27.3261   18.4277   17.6804 H   0  0  0  0  0  0  0  0  0  0  0  0
   26.3358   21.7771   15.4112 H   0  0  0  0  0  0  0  0  0  0  0  0
   24.4254   17.5798   11.1189 H   0  0  0  0  0  0  0  0  0  0  0  0
   21.0476   15.4333    4.3800 H   0  0  0  0  0  0  0  0  0  0  0  0
  1  2  1  0
  2  3  1  0
  3  4  2  0
  4  5  1  0
  5  6  1  0
  6  7  2  0
  6  8  2  0
  6  9  1  0
  9 10  2  0
 10 11  1  0
 11 12  2  0
 12 13  1  0
 13 14  1  0
 14 15  1  0
 15 16  2  0
 15 17  1  0
 17 18  1  0
 18 19  1  0
 19 20  1  0
 20 21  1  0
 21 22  2  0
 21 23  1  0
 23 24  1  0
 24 25  2  0
 14 26  2  0
 26 27  1  0
 27 28  2  0
  5 29  1  0
 29 30  2  0
 30  3  1  0
 28  9  1  0
 27 12  1  0
 24 18  1  0
  1 31  1  0
  1 32  1  0
  1 33  1  0
  2 34  1  0
  2 35  1  0
  4 36  1  0
 10 37  1  0
 17 38  1  0
 18 39  1  1
 19 40  1  0
 19 41  1  0
 20 42  1  0
 20 43  1  0
 23 44  1  0
 26 45  1  0
 29 46  1  0
M  END
>  <meeko>  (1381) 
{"is_sidechain": [true], "free_energy": -10.08, "intermolecular_energy": 0.0, "internal_energy": -10.08, "cluster_size": 16, "cluster_id": 1, "rank_in_cluster": 1}

>  <_RMSD_MCS_to_ref>  (1381) 
0.615713497587239

$$$$
ligand
     RDKit          3D

 47 50  0  0  0  0  0  0  0  0999 V2000
   18.7970   18.8170    7.7190 C   0  0  0  0  0  0  0  0  0  0  0  0
   18.5280   17.3290    7.8810 C   0  0  0  0  0  0  0  0  0  0  0  0
   19.6080   16.4950    7.2850 C   0  0  0  0  0  0  0  0  0  0  0  0
   20.8500   16.1830    7.8010 C   0  0  0  0  0  0  0  0  0  0  0  0
   21.4340   15.4190    6.8320 N   0  0  0  0  0  0  0  0  0  0  0  0
   22.8710   14.5620    6.9850 S   0  0  0  0  0  6  0  0  0  0  0  0
   23.9040   15.4120    6.4270 O   0  0  0  0  0  0  0  0  0  0  0  0
   22.5950   13.2340    6.4750 O   0  0  0  0  0  0  0  0  0  0  0  0
   23.1120   14.4620    8.7420 C   0  0  0  0  0  0  0  0  0  0  0  0
   22.4450   13.4640    9.4720 C   0  0  0  0  0  0  0  0  0  0  0  0
   22.6210   13.3560   10.8600 C   0  0  0  0  0  0  0  0  0  0  0  0
   23.4840   14.2630   11.4910 C   0  0  0  0  0  0  0  0  0  0  0  0
   23.8430   14.3950   12.8070 N   0  0  0  0  0  0  0  0  0  0  0  0
   24.6860   15.4190   12.7960 C   0  0  0  0  0  0  0  0  0  0  0  0
   25.3590   15.9720   13.9630 C   0  0  0  0  0  0  0  0  0  0  0  0
   25.6490   15.3330   14.9730 O   0  0  0  0  0  0  0  0  0  0  0  0
   25.6720   17.3130   13.8430 N   0  0  0  0  0  0  0  0  0  0  0  0
   26.4820   18.0130   14.8240 C   0  0  2  0  0  0  0  0  0  0  0  0
   25.9320   17.8550   16.2390 C   0  0  0  0  0  0  0  0  0  0  0  0
   26.8050   18.6310   17.2120 C   0  0  0  0  0  0  0  0  0  0  0  0
   26.9170   20.0830   16.8120 C   0  0  0  0  0  0  0  0  0  0  0  0
   27.0160   20.9880   17.6360 O   0  0  0  0  0  0  0  0  0  0  0  0
   26.9350   20.3490   15.4660 N   0  0  0  0  0  0  0  0  0  0  0  0
   26.5220   19.5030   14.4680 C   0  0  0  0  0  0  0  0  0  0  0  0
   26.2220   19.9320   13.3540 O   0  0  0  0  0  0  0  0  0  0  0  0
   24.9050   15.9710   11.5580 O   0  0  0  0  0  0  0  0  0  0  0  0
   24.1290   15.2220   10.7250 C   0  0  0  0  0  0  0  0  0  0  0  0
   23.9910   15.3710    9.3510 C   0  0  0  0  0  0  0  0  0  0  0  0
   20.5540   15.2460    5.8120 C   0  0  0  0  0  0  0  0  0  0  0  0
   19.4350   15.8960    6.0520 N   0  0  0  0  0  0  0  0  0  0  0  0
   18.8815   19.2845    8.7111 H   0  0  0  0  0  0  0  0  0  0  0  0
   19.7359   18.9616    7.1643 H   0  0  0  0  0  0  0  0  0  0  0  0
   17.9682   19.2812    7.1643 H   0  0  0  0  0  0  0  0  0  0  0  0
   18.4523   17.0972    8.9536 H   0  0  0  0  0  0  0  0  0  0  0  0
   17.5909   17.0955    7.3544 H   0  0  0  0  0  0  0  0  0  0  0  0
   21.2726   16.4819    8.7716 H   0  0  0  0  0  0  0  0  0  0  0  0
   21.7787   12.7609    8.9508 H   0  0  0  0  0  0  0  0  0  0  0  0
   22.0961   12.5807   11.4373 H   0  0  0  0  0  0  0  0  0  0  0  0
   25.3179   17.8345   13.0284 H   0  0  0  0  0  0  0  0  0  0  0  0
   27.4911   17.5756   14.8023 H   0  0  0  0  0  0  0  0  0  0  0  0
   24.9039   18.2442   16.2783 H   0  0  0  0  0  0  0  0  0  0  0  0
   25.9320   16.7903   16.5155 H   0  0  0  0  0  0  0  0  0  0  0  0
   26.3629   18.5695   18.2174 H   0  0  0  0  0  0  0  0  0  0  0  0
   27.8126   18.1897   17.2019 H   0  0  0  0  0  0  0  0  0  0  0  0
   27.2924   21.2710   15.1776 H   0  0  0  0  0  0  0  0  0  0  0  0
   24.5301   16.1434    8.7828 H   0  0  0  0  0  0  0  0  0  0  0  0
   20.7493   14.6462    4.9108 H   0  0  0  0  0  0  0  0  0  0  0  0
  1  2  1  0
  2  3  1  0
  3  4  2  0
  4  5  1  0
  5  6  1  0
  6  7  2  0
  6  8  2  0
  6  9  1  0
  9 10  2  0
 10 11  1  0
 11 12  2  0
 12 13  1  0
 13 14  2  0
 14 15  1  0
 15 16  2  0
 15 17  1  0
 17 18  1  0
 18 19  1  0
 19 20  1  0
 20 21  1  0
 21 22  2  0
 21 23  1  0
 23 24  1  0
 24 25  2  0
 14 26  1  0
 26 27  1  0
 27 28  2  0
  5 29  1  0
 29 30  2  0
 30  3  1  0
 28  9  1  0
 27 12  1  0
 24 18  1  0
  1 31  1  0
  1 32  1  0
  1 33  1  0
  2 34  1  0
  2 35  1  0
  4 36  1  0
 10 37  1  0
 11 38  1  0
 17 39  1  0
 18 40  1  1
 19 41  1  0
 19 42  1  0
 20 43  1  0
 20 44  1  0
 23 45  1  0
 28 46  1  0
 29 47  1  0
M  END
>  <meeko>  (1382) 
{"is_sidechain": [true], "free_energy": -10.07, "intermolecular_energy": 0.0, "internal_energy": -10.07, "cluster_size": 19, "cluster_id": 1, "rank_in_cluster": 1}

>  <_RMSD_MCS_to_ref>  (1382) 
0.9230187791516844

$$$$
ligand
     RDKit          3D

 47 50  0  0  0  0  0  0  0  0999 V2000
   18.7970   18.8170    7.7190 C   0  0  0  0  0  0  0  0  0  0  0  0
   18.5280   17.3290    7.8810 C   0  0  0  0  0  0  0  0  0  0  0  0
   19.7750   16.5580    8.1360 C   0  0  0  0  0  0  0  0  0  0  0  0
   20.1930   15.9390    9.2960 C   0  0  0  0  0  0  0  0  0  0  0  0
   21.4050   15.4000    8.9720 N   0  0  0  0  0  0  0  0  0  0  0  0
   22.3120   14.3830    9.9550 S   0  0  0  0  0  6  0  0  0  0  0  0
   22.2550   14.9330   11.2940 O   0  0  0  0  0  0  0  0  0  0  0  0
   21.8350   13.0470    9.6490 O   0  0  0  0  0  0  0  0  0  0  0  0
   23.9570   14.5310    9.3600 C   0  0  0  0  0  0  0  0  0  0  0  0
   24.3710   13.8110    8.2250 C   0  0  0  0  0  0  0  0  0  0  0  0
   25.6770   13.9220    7.7340 C   0  0  0  0  0  0  0  0  0  0  0  0
   26.6180   14.7510    8.3610 C   0  0  0  0  0  0  0  0  0  0  0  0
   26.2210   15.4640    9.5000 C   0  0  0  0  0  0  0  0  0  0  0  0
   26.9170   16.3290   10.3040 N   0  0  0  0  0  0  0  0  0  0  0  0
   26.0310   16.6800   11.2250 C   0  0  0  0  0  0  0  0  0  0  0  0
   26.2740   17.5900   12.3350 C   0  0  0  0  0  0  0  0  0  0  0  0
   27.2830   18.2790   12.4650 O   0  0  0  0  0  0  0  0  0  0  0  0
   25.2540   17.6190   13.2680 N   0  0  0  0  0  0  0  0  0  0  0  0
   25.3760   18.3310   14.5270 C   0  0  1  0  0  0  0  0  0  0  0  0
   26.4420   17.7190   15.4310 C   0  0  0  0  0  0  0  0  0  0  0  0
   26.5410   18.5250   16.7180 C   0  0  0  0  0  0  0  0  0  0  0  0
   26.8170   19.9820   16.4310 C   0  0  0  0  0  0  0  0  0  0  0  0
   27.4990   20.6820   17.1730 O   0  0  0  0  0  0  0  0  0  0  0  0
   26.2380   20.5070   15.3040 N   0  0  0  0  0  0  0  0  0  0  0  0
   25.7440   19.7910   14.2410 C   0  0  0  0  0  0  0  0  0  0  0  0
   25.5990   20.3130   13.1360 O   0  0  0  0  0  0  0  0  0  0  0  0
   24.7920   16.1120   11.0710 O   0  0  0  0  0  0  0  0  0  0  0  0
   24.9190   15.3320    9.9600 C   0  0  0  0  0  0  0  0  0  0  0  0
   21.6710   15.6560    7.6660 C   0  0  0  0  0  0  0  0  0  0  0  0
   20.7010   16.3680    7.1300 N   0  0  0  0  0  0  0  0  0  0  0  0
   18.8815   19.2845    8.7111 H   0  0  0  0  0  0  0  0  0  0  0  0
   19.7359   18.9616    7.1643 H   0  0  0  0  0  0  0  0  0  0  0  0
   17.9682   19.2812    7.1643 H   0  0  0  0  0  0  0  0  0  0  0  0
   17.8415   17.1830    8.7280 H   0  0  0  0  0  0  0  0  0  0  0  0
   18.0886   16.9606    6.9423 H   0  0  0  0  0  0  0  0  0  0  0  0
   19.6691   15.8907   10.2620 H   0  0  0  0  0  0  0  0  0  0  0  0
   23.6560   13.1492    7.7143 H   0  0  0  0  0  0  0  0  0  0  0  0
   25.9699   13.3495    6.8416 H   0  0  0  0  0  0  0  0  0  0  0  0
   27.6419   14.8394    7.9687 H   0  0  0  0  0  0  0  0  0  0  0  0
   24.3777   17.1183   13.0626 H   0  0  0  0  0  0  0  0  0  0  0  0
   24.4100   18.2620   15.0486 H   0  0  0  0  0  0  0  0  0  0  0  0
   26.1684   16.6805   15.6691 H   0  0  0  0  0  0  0  0  0  0  0  0
   27.4129   17.7337   14.9141 H   0  0  0  0  0  0  0  0  0  0  0  0
   25.5918   18.4412   17.2676 H   0  0  0  0  0  0  0  0  0  0  0  0
   27.3727   18.1245   17.3163 H   0  0  0  0  0  0  0  0  0  0  0  0
   26.1670   21.5331   15.2497 H   0  0  0  0  0  0  0  0  0  0  0  0
   22.5700   15.3167    7.1305 H   0  0  0  0  0  0  0  0  0  0  0  0
  1  2  1  0
  2  3  1  0
  3  4  2  0
  4  5  1  0
  5  6  1  0
  6  7  2  0
  6  8  2  0
  6  9  1  0
  9 10  2  0
 10 11  1  0
 11 12  2  0
 12 13  1  0
 13 14  1  0
 14 15  2  0
 15 16  1  0
 16 17  2  0
 16 18  1  0
 18 19  1  0
 19 20  1  0
 20 21  1  0
 21 22  1  0
 22 23  2  0
 22 24  1  0
 24 25  1  0
 25 26  2  0
 15 27  1  0
 27 28  1  0
  5 29  1  0
 29 30  2  0
 30  3  1  0
 28  9  1  0
 28 13  2  0
 25 19  1  0
  1 31  1  0
  1 32  1  0
  1 33  1  0
  2 34  1  0
  2 35  1  0
  4 36  1  0
 10 37  1  0
 11 38  1  0
 12 39  1  0
 18 40  1  0
 19 41  1  1
 20 42  1  0
 20 43  1  0
 21 44  1  0
 21 45  1  0
 24 46  1  0
 29 47  1  0
M  END
>  <meeko>  (1383) 
{"is_sidechain": [true], "free_energy": -10.07, "intermolecular_energy": 0.0, "internal_energy": -10.07, "cluster_size": 10, "cluster_id": 1, "rank_in_cluster": 1}

>  <_RMSD_MCS_to_ref>  (1383) 
0.5404279168708197

$$$$
ligand
     RDKit          3D

 45 48  0  0  0  0  0  0  0  0999 V2000
   18.7970   18.8170    7.7190 C   0  0  0  0  0  0  0  0  0  0  0  0
   18.5280   17.3290    7.8810 C   0  0  0  0  0  0  0  0  0  0  0  0
   19.7370   16.5060    7.6110 C   0  0  0  0  0  0  0  0  0  0  0  0
   20.7770   16.1850    8.4620 C   0  0  0  0  0  0  0  0  0  0  0  0
   21.5970   15.3980    7.7050 N   0  0  0  0  0  0  0  0  0  0  0  0
   23.1440   14.8820    8.1320 S   0  0  0  0  0  6  0  0  0  0  0  0
   23.2100   13.5020    7.6830 O   0  0  0  0  0  0  0  0  0  0  0  0
   24.0260   15.8850    7.5570 O   0  0  0  0  0  0  0  0  0  0  0  0
   23.2760   14.9290    9.8570 C   0  0  0  0  0  0  0  0  0  0  0  0
   22.2640   14.4640   10.6180 C   0  0  0  0  0  0  0  0  0  0  0  0
   22.5350   14.6080   11.9580 N   0  0  0  0  0  0  0  0  0  0  0  0
   21.9050   14.3250   13.1320 C   0  0  0  0  0  0  0  0  0  0  0  0
   22.6460   14.6870   14.1650 N   0  0  0  0  0  0  0  0  0  0  0  0
   23.8190   15.2370   13.6260 C   0  0  0  0  0  0  0  0  0  0  0  0
   24.9000   15.7670   14.4490 C   0  0  0  0  0  0  0  0  0  0  0  0
   25.7530   15.0720   14.9890 O   0  0  0  0  0  0  0  0  0  0  0  0
   24.8700   17.1380   14.5490 N   0  0  0  0  0  0  0  0  0  0  0  0
   25.9320   17.8950   15.1810 C   0  0  2  0  0  0  0  0  0  0  0  0
   25.8320   17.8550   16.7020 C   0  0  0  0  0  0  0  0  0  0  0  0
   26.9560   18.6810   17.3080 C   0  0  0  0  0  0  0  0  0  0  0  0
   26.9430   20.0960   16.7820 C   0  0  0  0  0  0  0  0  0  0  0  0
   27.2900   21.0550   17.4630 O   0  0  0  0  0  0  0  0  0  0  0  0
   26.5510   20.2620   15.4780 N   0  0  0  0  0  0  0  0  0  0  0  0
   25.8640   19.3510   14.7110 C   0  0  0  0  0  0  0  0  0  0  0  0
   25.2570   19.7060   13.7020 O   0  0  0  0  0  0  0  0  0  0  0  0
   23.7350   15.1810   12.2620 C   0  0  0  0  0  0  0  0  0  0  0  0
   24.6130   15.5820   10.8190 S   0  0  0  0  0  0  0  0  0  0  0  0
   21.0900   15.3020    6.4500 C   0  0  0  0  0  0  0  0  0  0  0  0
   19.9490   15.9540    6.3630 N   0  0  0  0  0  0  0  0  0  0  0  0
   18.8815   19.2845    8.7111 H   0  0  0  0  0  0  0  0  0  0  0  0
   19.7359   18.9616    7.1643 H   0  0  0  0  0  0  0  0  0  0  0  0
   17.9682   19.2812    7.1643 H   0  0  0  0  0  0  0  0  0  0  0  0
   18.1938   17.1398    8.9118 H   0  0  0  0  0  0  0  0  0  0  0  0
   17.7562   17.0443    7.1508 H   0  0  0  0  0  0  0  0  0  0  0  0
   20.9133   16.4928    9.5092 H   0  0  0  0  0  0  0  0  0  0  0  0
   21.3386   14.0249   10.2169 H   0  0  0  0  0  0  0  0  0  0  0  0
   20.9123   13.8577   13.2100 H   0  0  0  0  0  0  0  0  0  0  0  0
   24.0627   17.6459   14.1603 H   0  0  0  0  0  0  0  0  0  0  0  0
   26.8898   17.4380   14.8917 H   0  0  0  0  0  0  0  0  0  0  0  0
   24.8626   18.2691   17.0164 H   0  0  0  0  0  0  0  0  0  0  0  0
   25.9163   16.8139   17.0468 H   0  0  0  0  0  0  0  0  0  0  0  0
   26.8344   18.7041   18.4010 H   0  0  0  0  0  0  0  0  0  0  0  0
   27.9147   18.2173   17.0324 H   0  0  0  0  0  0  0  0  0  0  0  0
   26.7952   21.1566   15.0297 H   0  0  0  0  0  0  0  0  0  0  0  0
   21.5653   14.7562    5.6216 H   0  0  0  0  0  0  0  0  0  0  0  0
  1  2  1  0
  2  3  1  0
  3  4  2  0
  4  5  1  0
  5  6  1  0
  6  7  2  0
  6  8  2  0
  6  9  1  0
  9 10  2  0
 10 11  1  0
 11 12  1  0
 12 13  2  0
 13 14  1  0
 14 15  1  0
 15 16  2  0
 15 17  1  0
 17 18  1  0
 18 19  1  0
 19 20  1  0
 20 21  1  0
 21 22  2  0
 21 23  1  0
 23 24  1  0
 24 25  2  0
 14 26  2  0
 26 27  1  0
  5 28  1  0
 28 29  2  0
 29  3  1  0
 27  9  1  0
 26 11  1  0
 24 18  1  0
  1 30  1  0
  1 31  1  0
  1 32  1  0
  2 33  1  0
  2 34  1  0
  4 35  1  0
 10 36  1  0
 12 37  1  0
 17 38  1  0
 18 39  1  1
 19 40  1  0
 19 41  1  0
 20 42  1  0
 20 43  1  0
 23 44  1  0
 28 45  1  0
M  END
>  <meeko>  (1384) 
{"is_sidechain": [true], "free_energy": -10.07, "intermolecular_energy": 0.0, "internal_energy": -10.07, "cluster_size": 16, "cluster_id": 1, "rank_in_cluster": 1}

>  <_RMSD_MCS_to_ref>  (1384) 
0.6396482540341126

$$$$
ligand
     RDKit          3D

 50 53  0  0  0  0  0  0  0  0999 V2000
   18.7970   18.8170    7.7190 C   0  0  0  0  0  0  0  0  0  0  0  0
   18.5280   17.3290    7.8810 C   0  0  0  0  0  0  0  0  0  0  0  0
   19.6610   16.4970    7.3910 C   0  0  0  0  0  0  0  0  0  0  0  0
   20.4150   15.5650    8.0750 C   0  0  0  0  0  0  0  0  0  0  0  0
   21.2960   15.0970    7.1430 N   0  0  0  0  0  0  0  0  0  0  0  0
   22.6200   14.1090    7.4500 S   0  0  0  0  0  6  0  0  0  0  0  0
   22.2910   12.8190    6.8740 O   0  0  0  0  0  0  0  0  0  0  0  0
   23.7840   14.8690    7.0390 O   0  0  0  0  0  0  0  0  0  0  0  0
   22.6290   13.9600    9.1970 C   0  0  0  0  0  0  0  0  0  0  0  0
   21.7270   13.1180    9.8130 C   0  0  0  0  0  0  0  0  0  0  0  0
   21.6630   12.9590   11.1550 N   0  0  0  0  0  0  0  0  0  0  0  0
   22.5360   13.6390   11.9210 C   0  0  0  0  0  0  0  0  0  0  0  0
   22.4990   13.4850   13.3000 C   0  0  0  0  0  0  0  0  0  0  0  0
   23.3860   14.1650   14.1440 C   0  0  0  0  0  0  0  0  0  0  0  0
   24.3360   15.0330   13.6010 C   0  0  0  0  0  0  0  0  0  0  0  0
   25.3110   15.7810   14.4440 C   0  0  0  0  0  0  0  0  0  0  0  0
   26.1460   15.1750   15.1050 O   0  0  0  0  0  0  0  0  0  0  0  0
   25.2390   17.1550   14.4080 N   0  0  0  0  0  0  0  0  0  0  0  0
   26.2430   17.9750   15.0730 C   0  0  2  0  0  0  0  0  0  0  0  0
   26.2480   17.7720   16.5850 C   0  0  0  0  0  0  0  0  0  0  0  0
   27.2860   18.6870   17.2160 C   0  0  0  0  0  0  0  0  0  0  0  0
   27.0420   20.1300   16.8440 C   0  0  0  0  0  0  0  0  0  0  0  0
   27.2840   21.0580   17.6100 O   0  0  0  0  0  0  0  0  0  0  0  0
   26.5580   20.3670   15.5820 N   0  0  0  0  0  0  0  0  0  0  0  0
   25.9430   19.4470   14.7710 C   0  0  0  0  0  0  0  0  0  0  0  0
   25.2050   19.8000   13.8510 O   0  0  0  0  0  0  0  0  0  0  0  0
   24.3990   15.1920   12.2120 C   0  0  0  0  0  0  0  0  0  0  0  0
   23.5060   14.5070   11.3710 C   0  0  0  0  0  0  0  0  0  0  0  0
   23.5440   14.6580    9.9780 C   0  0  0  0  0  0  0  0  0  0  0  0
   21.1010   15.7590    5.9740 C   0  0  0  0  0  0  0  0  0  0  0  0
   20.1060   16.6130    6.0880 N   0  0  0  0  0  0  0  0  0  0  0  0
   18.8815   19.2845    8.7111 H   0  0  0  0  0  0  0  0  0  0  0  0
   19.7359   18.9616    7.1643 H   0  0  0  0  0  0  0  0  0  0  0  0
   17.9682   19.2812    7.1643 H   0  0  0  0  0  0  0  0  0  0  0  0
   18.3643   17.1124    8.9470 H   0  0  0  0  0  0  0  0  0  0  0  0
   17.6406   17.0786    7.2812 H   0  0  0  0  0  0  0  0  0  0  0  0
   20.3263   15.2673    9.1302 H   0  0  0  0  0  0  0  0  0  0  0  0
   21.0268   12.5490    9.1837 H   0  0  0  0  0  0  0  0  0  0  0  0
   21.7518   12.8097   13.7425 H   0  0  0  0  0  0  0  0  0  0  0  0
   23.3346   14.0157   15.2326 H   0  0  0  0  0  0  0  0  0  0  0  0
   24.4645   17.6099   13.9039 H   0  0  0  0  0  0  0  0  0  0  0  0
   27.2321   17.6780   14.6943 H   0  0  0  0  0  0  0  0  0  0  0  0
   25.2537   18.0110   16.9903 H   0  0  0  0  0  0  0  0  0  0  0  0
   26.4951   16.7248   16.8135 H   0  0  0  0  0  0  0  0  0  0  0  0
   27.2358   18.5854   18.3101 H   0  0  0  0  0  0  0  0  0  0  0  0
   28.2791   18.3951   16.8439 H   0  0  0  0  0  0  0  0  0  0  0  0
   26.6661   21.3214   15.2101 H   0  0  0  0  0  0  0  0  0  0  0  0
   25.1554   15.8601   11.7742 H   0  0  0  0  0  0  0  0  0  0  0  0
   24.2873   15.3195    9.5089 H   0  0  0  0  0  0  0  0  0  0  0  0
   21.6919   15.6034    5.0593 H   0  0  0  0  0  0  0  0  0  0  0  0
  1  2  1  0
  2  3  1  0
  3  4  2  0
  4  5  1  0
  5  6  1  0
  6  7  2  0
  6  8  2  0
  6  9  1  0
  9 10  2  0
 10 11  1  0
 11 12  2  0
 12 13  1  0
 13 14  2  0
 14 15  1  0
 15 16  1  0
 16 17  2  0
 16 18  1  0
 18 19  1  0
 19 20  1  0
 20 21  1  0
 21 22  1  0
 22 23  2  0
 22 24  1  0
 24 25  1  0
 25 26  2  0
 15 27  2  0
 27 28  1  0
 28 29  2  0
  5 30  1  0
 30 31  2  0
 31  3  1  0
 29  9  1  0
 28 12  1  0
 25 19  1  0
  1 32  1  0
  1 33  1  0
  1 34  1  0
  2 35  1  0
  2 36  1  0
  4 37  1  0
 10 38  1  0
 13 39  1  0
 14 40  1  0
 18 41  1  0
 19 42  1  6
 20 43  1  0
 20 44  1  0
 21 45  1  0
 21 46  1  0
 24 47  1  0
 27 48  1  0
 29 49  1  0
 30 50  1  0
M  END
>  <meeko>  (1385) 
{"is_sidechain": [true], "free_energy": -10.07, "intermolecular_energy": 0.0, "internal_energy": -10.07, "cluster_size": 12, "cluster_id": 1, "rank_in_cluster": 1}

>  <_RMSD_MCS_to_ref>  (1385) 
0.724218352585891

$$$$
ligand
     RDKit          3D

 48 51  0  0  0  0  0  0  0  0999 V2000
   18.7970   18.8170    7.7190 C   0  0  0  0  0  0  0  0  0  0  0  0
   18.5280   17.3290    7.8810 C   0  0  0  0  0  0  0  0  0  0  0  0
   19.7410   16.5060    7.6220 C   0  0  0  0  0  0  0  0  0  0  0  0
   20.3380   15.5640    8.4340 C   0  0  0  0  0  0  0  0  0  0  0  0
   21.4130   15.1340    7.7150 N   0  0  0  0  0  0  0  0  0  0  0  0
   22.6170   14.0810    8.2250 S   0  0  0  0  0  6  0  0  0  0  0  0
   22.4780   12.8610    7.4560 O   0  0  0  0  0  0  0  0  0  0  0  0
   23.8310   14.8770    8.1760 O   0  0  0  0  0  0  0  0  0  0  0  0
   22.2810   13.7210    9.9190 C   0  0  0  0  0  0  0  0  0  0  0  0
   21.2180   12.8600   10.2220 C   0  0  0  0  0  0  0  0  0  0  0  0
   20.9380   12.5710   11.5490 C   0  0  0  0  0  0  0  0  0  0  0  0
   21.7160   13.1470   12.5540 C   0  0  0  0  0  0  0  0  0  0  0  0
   22.7660   14.0090   12.2610 C   0  0  0  0  0  0  0  0  0  0  0  0
   23.4630   14.5200   13.2870 N   0  0  0  0  0  0  0  0  0  0  0  0
   24.4700   15.3540   12.9510 C   0  0  0  0  0  0  0  0  0  0  0  0
   25.2700   15.9530   14.0720 C   0  0  0  0  0  0  0  0  0  0  0  0
   25.7110   15.2850   15.0010 O   0  0  0  0  0  0  0  0  0  0  0  0
   25.4840   17.3180   13.9730 N   0  0  0  0  0  0  0  0  0  0  0  0
   26.3790   18.0290   14.8700 C   0  0  2  0  0  0  0  0  0  0  0  0
   25.9550   17.8990   16.3280 C   0  0  0  0  0  0  0  0  0  0  0  0
   26.9110   18.6900   17.2080 C   0  0  0  0  0  0  0  0  0  0  0  0
   26.9900   20.1340   16.7710 C   0  0  0  0  0  0  0  0  0  0  0  0
   27.1510   21.0550   17.5650 O   0  0  0  0  0  0  0  0  0  0  0  0
   26.9010   20.3740   15.4230 N   0  0  0  0  0  0  0  0  0  0  0  0
   26.3890   19.5130   14.4840 C   0  0  0  0  0  0  0  0  0  0  0  0
   25.9790   19.9250   13.3990 O   0  0  0  0  0  0  0  0  0  0  0  0
   24.8010   15.6880   11.6910 N   0  0  0  0  0  0  0  0  0  0  0  0
   24.0760   15.1530   10.6670 N   0  0  0  0  0  0  0  0  0  0  0  0
   23.0580   14.3110   10.9150 C   0  0  0  0  0  0  0  0  0  0  0  0
   21.4440   15.7880    6.5240 C   0  0  0  0  0  0  0  0  0  0  0  0
   20.4430   16.6380    6.4380 N   0  0  0  0  0  0  0  0  0  0  0  0
   18.8815   19.2845    8.7111 H   0  0  0  0  0  0  0  0  0  0  0  0
   19.7359   18.9616    7.1643 H   0  0  0  0  0  0  0  0  0  0  0  0
   17.9682   19.2812    7.1643 H   0  0  0  0  0  0  0  0  0  0  0  0
   18.1855   17.1410    8.9093 H   0  0  0  0  0  0  0  0  0  0  0  0
   17.7625   17.0425    7.1449 H   0  0  0  0  0  0  0  0  0  0  0  0
   20.0190   15.2349    9.4340 H   0  0  0  0  0  0  0  0  0  0  0  0
   20.6126   12.4185    9.4166 H   0  0  0  0  0  0  0  0  0  0  0  0
   20.1103   11.8940   11.8070 H   0  0  0  0  0  0  0  0  0  0  0  0
   21.4925   12.9127   13.6053 H   0  0  0  0  0  0  0  0  0  0  0  0
   24.9920   17.8468   13.2387 H   0  0  0  0  0  0  0  0  0  0  0  0
   27.3807   17.5854   14.7711 H   0  0  0  0  0  0  0  0  0  0  0  0
   24.9349   18.2922   16.4494 H   0  0  0  0  0  0  0  0  0  0  0  0
   25.9778   16.8395   16.6228 H   0  0  0  0  0  0  0  0  0  0  0  0
   26.5572   18.6492   18.2488 H   0  0  0  0  0  0  0  0  0  0  0  0
   27.9131   18.2449   17.1205 H   0  0  0  0  0  0  0  0  0  0  0  0
   27.2498   21.2822   15.0849 H   0  0  0  0  0  0  0  0  0  0  0  0
   22.2003   15.6290    5.7412 H   0  0  0  0  0  0  0  0  0  0  0  0
  1  2  1  0
  2  3  1  0
  3  4  2  0
  4  5  1  0
  5  6  1  0
  6  7  2  0
  6  8  2  0
  6  9  1  0
  9 10  2  0
 10 11  1  0
 11 12  2  0
 12 13  1  0
 13 14  2  0
 14 15  1  0
 15 16  1  0
 16 17  2  0
 16 18  1  0
 18 19  1  0
 19 20  1  0
 20 21  1  0
 21 22  1  0
 22 23  2  0
 22 24  1  0
 24 25  1  0
 25 26  2  0
 15 27  2  0
 27 28  1  0
 28 29  2  0
  5 30  1  0
 30 31  2  0
 31  3  1  0
 29  9  1  0
 29 13  1  0
 25 19  1  0
  1 32  1  0
  1 33  1  0
  1 34  1  0
  2 35  1  0
  2 36  1  0
  4 37  1  0
 10 38  1  0
 11 39  1  0
 12 40  1  0
 18 41  1  0
 19 42  1  1
 20 43  1  0
 20 44  1  0
 21 45  1  0
 21 46  1  0
 24 47  1  0
 30 48  1  0
M  END
>  <meeko>  (1386) 
{"is_sidechain": [true], "free_energy": -10.07, "intermolecular_energy": 0.0, "internal_energy": -10.07, "cluster_size": 17, "cluster_id": 1, "rank_in_cluster": 1}

>  <_RMSD_MCS_to_ref>  (1386) 
0.829012799793961

$$$$
ligand
     RDKit          3D

 48 51  0  0  0  0  0  0  0  0999 V2000
   18.7970   18.8170    7.7190 C   0  0  0  0  0  0  0  0  0  0  0  0
   18.5280   17.3290    7.8810 C   0  0  0  0  0  0  0  0  0  0  0  0
   19.7160   16.5010    7.5380 C   0  0  0  0  0  0  0  0  0  0  0  0
   20.4000   15.5960    8.3230 C   0  0  0  0  0  0  0  0  0  0  0  0
   21.3770   15.1100    7.5020 N   0  0  0  0  0  0  0  0  0  0  0  0
   22.6710   14.1460    7.9730 S   0  0  0  0  0  6  0  0  0  0  0  0
   23.8640   14.8830    7.6100 O   0  0  0  0  0  0  0  0  0  0  0  0
   22.3880   12.8180    7.4700 O   0  0  0  0  0  0  0  0  0  0  0  0
   22.5440   14.1080    9.7400 C   0  0  0  0  0  0  0  0  0  0  0  0
   21.7800   13.1260   10.3650 C   0  0  0  0  0  0  0  0  0  0  0  0
   21.6870   13.1300   11.7570 C   0  0  0  0  0  0  0  0  0  0  0  0
   22.3360   14.0970   12.5210 C   0  0  0  0  0  0  0  0  0  0  0  0
   22.2480   14.0980   13.8590 N   0  0  0  0  0  0  0  0  0  0  0  0
   22.8950   15.0590   14.5770 N   0  0  0  0  0  0  0  0  0  0  0  0
   23.6070   15.9890   13.9110 C   0  0  0  0  0  0  0  0  0  0  0  0
   24.3240   17.0350   14.7170 C   0  0  0  0  0  0  0  0  0  0  0  0
   23.7750   17.6840   15.6010 O   0  0  0  0  0  0  0  0  0  0  0  0
   25.6620   17.2000   14.3980 N   0  0  0  0  0  0  0  0  0  0  0  0
   26.5510   18.0370   15.1880 C   0  0  2  0  0  0  0  0  0  0  0  0
   26.3500   17.8320   16.6860 C   0  0  0  0  0  0  0  0  0  0  0  0
   27.2830   18.7560   17.4530 C   0  0  0  0  0  0  0  0  0  0  0  0
   27.0830   20.1980   17.0490 C   0  0  0  0  0  0  0  0  0  0  0  0
   27.2130   21.1280   17.8390 O   0  0  0  0  0  0  0  0  0  0  0  0
   26.7730   20.4300   15.7330 N   0  0  0  0  0  0  0  0  0  0  0  0
   26.2820   19.5050   14.8430 C   0  0  0  0  0  0  0  0  0  0  0  0
   25.6810   19.8560   13.8300 O   0  0  0  0  0  0  0  0  0  0  0  0
   23.7420   16.0510   12.5650 N   0  0  0  0  0  0  0  0  0  0  0  0
   23.0980   15.0960   11.8820 C   0  0  0  0  0  0  0  0  0  0  0  0
   23.1880   15.0920   10.4960 C   0  0  0  0  0  0  0  0  0  0  0  0
   21.3010   15.7380    6.3010 C   0  0  0  0  0  0  0  0  0  0  0  0
   20.2950   16.5870    6.2870 N   0  0  0  0  0  0  0  0  0  0  0  0
   18.8815   19.2845    8.7111 H   0  0  0  0  0  0  0  0  0  0  0  0
   19.7359   18.9616    7.1643 H   0  0  0  0  0  0  0  0  0  0  0  0
   17.9682   19.2812    7.1643 H   0  0  0  0  0  0  0  0  0  0  0  0
   18.2488   17.1315    8.9265 H   0  0  0  0  0  0  0  0  0  0  0  0
   17.7162   17.0561    7.1907 H   0  0  0  0  0  0  0  0  0  0  0  0
   20.2032   15.3271    9.3713 H   0  0  0  0  0  0  0  0  0  0  0  0
   21.2588   12.3604    9.7716 H   0  0  0  0  0  0  0  0  0  0  0  0
   21.0901   12.3552   12.2604 H   0  0  0  0  0  0  0  0  0  0  0  0
   26.0402   16.7131   13.5729 H   0  0  0  0  0  0  0  0  0  0  0  0
   27.5871   17.7568   14.9470 H   0  0  0  0  0  0  0  0  0  0  0  0
   25.3073   18.0613   16.9509 H   0  0  0  0  0  0  0  0  0  0  0  0
   26.5728   16.7868   16.9465 H   0  0  0  0  0  0  0  0  0  0  0  0
   27.0821   18.6545   18.5297 H   0  0  0  0  0  0  0  0  0  0  0  0
   28.3201   18.4716   17.2217 H   0  0  0  0  0  0  0  0  0  0  0  0
   26.9220   21.3858   15.3792 H   0  0  0  0  0  0  0  0  0  0  0  0
   23.7729   15.8723    9.9871 H   0  0  0  0  0  0  0  0  0  0  0  0
   21.9845   15.5621    5.4573 H   0  0  0  0  0  0  0  0  0  0  0  0
  1  2  1  0
  2  3  1  0
  3  4  2  0
  4  5  1  0
  5  6  1  0
  6  7  2  0
  6  8  2  0
  6  9  1  0
  9 10  2  0
 10 11  1  0
 11 12  2  0
 12 13  1  0
 13 14  2  0
 14 15  1  0
 15 16  1  0
 16 17  2  0
 16 18  1  0
 18 19  1  0
 19 20  1  0
 20 21  1  0
 21 22  1  0
 22 23  2  0
 22 24  1  0
 24 25  1  0
 25 26  2  0
 15 27  2  0
 27 28  1  0
 28 29  2  0
  5 30  1  0
 30 31  2  0
 31  3  1  0
 29  9  1  0
 28 12  1  0
 25 19  1  0
  1 32  1  0
  1 33  1  0
  1 34  1  0
  2 35  1  0
  2 36  1  0
  4 37  1  0
 10 38  1  0
 11 39  1  0
 18 40  1  0
 19 41  1  6
 20 42  1  0
 20 43  1  0
 21 44  1  0
 21 45  1  0
 24 46  1  0
 29 47  1  0
 30 48  1  0
M  END
>  <meeko>  (1387) 
{"is_sidechain": [true], "free_energy": -10.07, "intermolecular_energy": 0.0, "internal_energy": -10.07, "cluster_size": 9, "cluster_id": 1, "rank_in_cluster": 1}

>  <_RMSD_MCS_to_ref>  (1387) 
0.9529088798690734

$$$$
ligand
     RDKit          3D

 54 57  0  0  0  0  0  0  0  0999 V2000
   18.7970   18.8170    7.7190 C   0  0  0  0  0  0  0  0  0  0  0  0
   18.5280   17.3290    7.8810 C   0  0  0  0  0  0  0  0  0  0  0  0
   19.6830   16.4980    7.4470 C   0  0  0  0  0  0  0  0  0  0  0  0
   20.8380   16.1880    8.1370 C   0  0  0  0  0  0  0  0  0  0  0  0
   21.5550   15.4200    7.2640 N   0  0  0  0  0  0  0  0  0  0  0  0
   22.9700   14.5870    7.6180 S   0  0  0  0  0  6  0  0  0  0  0  0
   22.5790   13.1960    7.7310 O   0  0  0  0  0  0  0  0  0  0  0  0
   23.9240   15.0570    6.6300 O   0  0  0  0  0  0  0  0  0  0  0  0
   23.5300   15.1280    9.2260 C   0  0  0  0  0  0  0  0  0  0  0  0
   22.6200   15.2410   10.2830 C   0  0  0  0  0  0  0  0  0  0  0  0
   23.0550   15.6770   11.5340 C   0  0  0  0  0  0  0  0  0  0  0  0
   24.4000   16.0080   11.7400 C   0  0  0  0  0  0  0  0  0  0  0  0
   24.8260   16.4930   13.0860 C   0  0  0  0  0  0  0  0  0  0  0  0
   24.9720   15.7100   14.0190 O   0  0  0  0  0  0  0  0  0  0  0  0
   25.0210   17.8520   13.2070 N   0  0  0  0  0  0  0  0  0  0  0  0
   25.2530   18.4620   14.5090 C   0  0  1  0  0  0  0  0  0  0  0  0
   26.3760   17.7770   15.2790 C   0  0  0  0  0  0  0  0  0  0  0  0
   26.5890   18.4880   16.6050 C   0  0  0  0  0  0  0  0  0  0  0  0
   26.8630   19.9590   16.4010 C   0  0  0  0  0  0  0  0  0  0  0  0
   27.6170   20.5970   17.1300 O   0  0  0  0  0  0  0  0  0  0  0  0
   26.2000   20.5700   15.3670 N   0  0  0  0  0  0  0  0  0  0  0  0
   25.6200   19.9340   14.2970 C   0  0  0  0  0  0  0  0  0  0  0  0
   25.4050   20.5290   13.2420 O   0  0  0  0  0  0  0  0  0  0  0  0
   25.3320   15.9290   10.6770 C   0  0  0  0  0  0  0  0  0  0  0  0
   24.8990   15.4420    9.4170 C   0  0  0  0  0  0  0  0  0  0  0  0
   25.9020   15.3280    8.2830 C   0  0  0  0  0  0  0  0  0  0  0  0
   27.3510   15.3460    8.7510 C   0  0  0  0  0  0  0  0  0  0  0  0
   27.5350   16.4560    9.7640 C   0  0  0  0  0  0  0  0  0  0  0  0
   26.6980   16.1830   10.9180 N   0  0  0  0  0  0  0  0  0  0  0  0
   20.8420   15.2640    6.1180 C   0  0  0  0  0  0  0  0  0  0  0  0
   19.6920   15.9000    6.2020 N   0  0  0  0  0  0  0  0  0  0  0  0
   18.8815   19.2845    8.7111 H   0  0  0  0  0  0  0  0  0  0  0  0
   19.7359   18.9616    7.1643 H   0  0  0  0  0  0  0  0  0  0  0  0
   17.9682   19.2812    7.1643 H   0  0  0  0  0  0  0  0  0  0  0  0
   18.3198   17.1201    8.9407 H   0  0  0  0  0  0  0  0  0  0  0  0
   17.6684   17.0703    7.2452 H   0  0  0  0  0  0  0  0  0  0  0  0
   21.1172   16.4905    9.1571 H   0  0  0  0  0  0  0  0  0  0  0  0
   21.5614   14.9859   10.1270 H   0  0  0  0  0  0  0  0  0  0  0  0
   22.3377   15.7614   12.3637 H   0  0  0  0  0  0  0  0  0  0  0  0
   25.0024   18.4446   12.3647 H   0  0  0  0  0  0  0  0  0  0  0  0
   24.3329   18.3576   15.1027 H   0  0  0  0  0  0  0  0  0  0  0  0
   26.1054   16.7272   15.4653 H   0  0  0  0  0  0  0  0  0  0  0  0
   27.3031   17.8178   14.6884 H   0  0  0  0  0  0  0  0  0  0  0  0
   25.6854   18.3740   17.2219 H   0  0  0  0  0  0  0  0  0  0  0  0
   27.4602   18.0385   17.1040 H   0  0  0  0  0  0  0  0  0  0  0  0
   26.1311   21.5973   15.3958 H   0  0  0  0  0  0  0  0  0  0  0  0
   25.7197   14.3830    7.7503 H   0  0  0  0  0  0  0  0  0  0  0  0
   25.7598   16.2056    7.6352 H   0  0  0  0  0  0  0  0  0  0  0  0
   27.5995   14.3801    9.2149 H   0  0  0  0  0  0  0  0  0  0  0  0
   28.0144   15.5182    7.8906 H   0  0  0  0  0  0  0  0  0  0  0  0
   28.5892   16.5011   10.0749 H   0  0  0  0  0  0  0  0  0  0  0  0
   27.2501   17.4197    9.3167 H   0  0  0  0  0  0  0  0  0  0  0  0
   27.0853   16.1751   11.8724 H   0  0  0  0  0  0  0  0  0  0  0  0
   21.1780   14.6877    5.2434 H   0  0  0  0  0  0  0  0  0  0  0  0
  1  2  1  0
  2  3  1  0
  3  4  2  0
  4  5  1  0
  5  6  1  0
  6  7  2  0
  6  8  2  0
  6  9  1  0
  9 10  2  0
 10 11  1  0
 11 12  2  0
 12 13  1  0
 13 14  2  0
 13 15  1  0
 15 16  1  0
 16 17  1  0
 17 18  1  0
 18 19  1  0
 19 20  2  0
 19 21  1  0
 21 22  1  0
 22 23  2  0
 12 24  1  0
 24 25  2  0
 25 26  1  0
 26 27  1  0
 27 28  1  0
 28 29  1  0
  5 30  1  0
 30 31  2  0
 31  3  1  0
 25  9  1  0
 22 16  1  0
 29 24  1  0
  1 32  1  0
  1 33  1  0
  1 34  1  0
  2 35  1  0
  2 36  1  0
  4 37  1  0
 10 38  1  0
 11 39  1  0
 15 40  1  0
 16 41  1  1
 17 42  1  0
 17 43  1  0
 18 44  1  0
 18 45  1  0
 21 46  1  0
 26 47  1  0
 26 48  1  0
 27 49  1  0
 27 50  1  0
 28 51  1  0
 28 52  1  0
 29 53  1  0
 30 54  1  0
M  END
>  <meeko>  (1388) 
{"is_sidechain": [true], "free_energy": -10.07, "intermolecular_energy": 0.0, "internal_energy": -10.07, "cluster_size": 16, "cluster_id": 1, "rank_in_cluster": 1}

>  <_RMSD_MCS_to_ref>  (1388) 
0.5558031226172727

$$$$
ligand
     RDKit          3D

 50 53  0  0  0  0  0  0  0  0999 V2000
   18.7970   18.8170    7.7190 C   0  0  0  0  0  0  0  0  0  0  0  0
   18.5280   17.3290    7.8810 C   0  0  0  0  0  0  0  0  0  0  0  0
   19.6180   16.4960    7.3040 C   0  0  0  0  0  0  0  0  0  0  0  0
   20.9150   16.3320    7.7480 C   0  0  0  0  0  0  0  0  0  0  0  0
   21.4790   15.4880    6.8340 N   0  0  0  0  0  0  0  0  0  0  0  0
   22.9650   14.7070    7.0110 S   0  0  0  0  0  6  0  0  0  0  0  0
   23.9460   15.7440    6.7420 O   0  0  0  0  0  0  0  0  0  0  0  0
   22.8670   13.5390    6.1550 O   0  0  0  0  0  0  0  0  0  0  0  0
   23.0670   14.2240    8.6880 C   0  0  0  0  0  0  0  0  0  0  0  0
   22.3870   13.0470    9.1770 C   0  0  0  0  0  0  0  0  0  0  0  0
   22.4920   12.6890   10.4630 C   0  0  0  0  0  0  0  0  0  0  0  0
   23.3110   13.5050   11.4010 C   0  0  0  0  0  0  0  0  0  0  0  0
   23.3990   13.1360   12.6400 N   0  0  0  0  0  0  0  0  0  0  0  0
   24.1600   13.9100   13.4730 C   0  0  0  0  0  0  0  0  0  0  0  0
   24.8250   15.0190   13.1200 C   0  0  0  0  0  0  0  0  0  0  0  0
   25.6070   15.7350   14.1650 C   0  0  0  0  0  0  0  0  0  0  0  0
   26.1120   15.1440   15.1150 O   0  0  0  0  0  0  0  0  0  0  0  0
   25.7350   17.0880   14.0000 N   0  0  0  0  0  0  0  0  0  0  0  0
   26.5330   17.9070   14.8990 C   0  0  2  0  0  0  0  0  0  0  0  0
   26.0530   17.7910   16.3420 C   0  0  0  0  0  0  0  0  0  0  0  0
   26.9120   18.6720   17.2360 C   0  0  0  0  0  0  0  0  0  0  0  0
   26.9090   20.1040   16.7600 C   0  0  0  0  0  0  0  0  0  0  0  0
   26.9920   21.0550   17.5330 O   0  0  0  0  0  0  0  0  0  0  0  0
   26.8440   20.3010   15.4040 N   0  0  0  0  0  0  0  0  0  0  0  0
   26.4610   19.3750   14.4630 C   0  0  0  0  0  0  0  0  0  0  0  0
   26.1110   19.7290   13.3390 O   0  0  0  0  0  0  0  0  0  0  0  0
   24.7200   15.4370   11.7030 C   0  0  0  0  0  0  0  0  0  0  0  0
   25.3070   16.4470   11.3120 O   0  0  0  0  0  0  0  0  0  0  0  0
   23.9380   14.6300   10.8780 N   0  0  0  0  0  0  0  0  0  0  0  0
   23.8000   14.9690    9.5310 C   0  0  0  0  0  0  0  0  0  0  0  0
   20.5360   15.1200    5.9280 C   0  0  0  0  0  0  0  0  0  0  0  0
   19.3960   15.7270    6.1790 N   0  0  0  0  0  0  0  0  0  0  0  0
   18.8815   19.2845    8.7111 H   0  0  0  0  0  0  0  0  0  0  0  0
   19.7359   18.9616    7.1643 H   0  0  0  0  0  0  0  0  0  0  0  0
   17.9682   19.2812    7.1643 H   0  0  0  0  0  0  0  0  0  0  0  0
   18.4364   17.1000    8.9530 H   0  0  0  0  0  0  0  0  0  0  0  0
   17.5994   17.0923    7.3410 H   0  0  0  0  0  0  0  0  0  0  0  0
   21.3866   16.7791    8.6355 H   0  0  0  0  0  0  0  0  0  0  0  0
   21.7793   12.4412    8.4888 H   0  0  0  0  0  0  0  0  0  0  0  0
   21.9722   11.7905   10.8270 H   0  0  0  0  0  0  0  0  0  0  0  0
   24.2324   13.5946   14.5243 H   0  0  0  0  0  0  0  0  0  0  0  0
   25.2498   17.5413   13.2126 H   0  0  0  0  0  0  0  0  0  0  0  0
   27.5702   17.5442   14.8492 H   0  0  0  0  0  0  0  0  0  0  0  0
   25.0040   18.1158   16.4064 H   0  0  0  0  0  0  0  0  0  0  0  0
   26.1346   16.7448   16.6719 H   0  0  0  0  0  0  0  0  0  0  0  0
   26.5171   18.6346   18.2620 H   0  0  0  0  0  0  0  0  0  0  0  0
   27.9457   18.2972   17.2031 H   0  0  0  0  0  0  0  0  0  0  0  0
   27.1080   21.2341   15.0569 H   0  0  0  0  0  0  0  0  0  0  0  0
   24.3045   15.8693    9.1504 H   0  0  0  0  0  0  0  0  0  0  0  0
   20.7021   14.4140    5.1010 H   0  0  0  0  0  0  0  0  0  0  0  0
  1  2  1  0
  2  3  1  0
  3  4  2  0
  4  5  1  0
  5  6  1  0
  6  7  2  0
  6  8  2  0
  6  9  1  0
  9 10  1  0
 10 11  2  0
 11 12  1  0
 12 13  2  0
 13 14  1  0
 14 15  2  0
 15 16  1  0
 16 17  2  0
 16 18  1  0
 18 19  1  0
 19 20  1  0
 20 21  1  0
 21 22  1  0
 22 23  2  0
 22 24  1  0
 24 25  1  0
 25 26  2  0
 15 27  1  0
 27 28  2  0
 27 29  1  0
 29 30  1  0
  5 31  1  0
 31 32  2  0
 32  3  1  0
 30  9  2  0
 29 12  1  0
 25 19  1  0
  1 33  1  0
  1 34  1  0
  1 35  1  0
  2 36  1  0
  2 37  1  0
  4 38  1  0
 10 39  1  0
 11 40  1  0
 14 41  1  0
 18 42  1  0
 19 43  1  1
 20 44  1  0
 20 45  1  0
 21 46  1  0
 21 47  1  0
 24 48  1  0
 30 49  1  0
 31 50  1  0
M  END
>  <meeko>  (1389) 
{"is_sidechain": [true], "free_energy": -10.07, "intermolecular_energy": 0.0, "internal_energy": -10.07, "cluster_size": 16, "cluster_id": 1, "rank_in_cluster": 1}

>  <_RMSD_MCS_to_ref>  (1389) 
0.932265758485446

$$$$
ligand
     RDKit          3D

 48 51  0  0  0  0  0  0  0  0999 V2000
   18.9090   19.1540    7.5370 C   0  0  0  0  0  0  0  0  0  0  0  0
   18.7730   17.6460    7.6780 C   0  0  0  0  0  0  0  0  0  0  0  0
   19.9100   16.9180    7.0520 C   0  0  0  0  0  0  0  0  0  0  0  0
   20.8300   16.0720    7.6410 C   0  0  0  0  0  0  0  0  0  0  0  0
   21.6280   15.6760    6.6080 N   0  0  0  0  0  0  0  0  0  0  0  0
   23.0210   14.7580    6.7340 S   0  0  0  0  0  6  0  0  0  0  0  0
   24.0120   15.3750    5.8760 O   0  0  0  0  0  0  0  0  0  0  0  0
   22.6270   13.3690    6.5890 O   0  0  0  0  0  0  0  0  0  0  0  0
   23.6520   14.8860    8.3680 C   0  0  0  0  0  0  0  0  0  0  0  0
   23.5600   15.9330    9.1690 N   0  0  0  0  0  0  0  0  0  0  0  0
   24.1940   15.5620   10.3280 C   0  0  0  0  0  0  0  0  0  0  0  0
   24.3900   16.2950   11.5080 C   0  0  0  0  0  0  0  0  0  0  0  0
   25.0740   15.6790   12.5690 C   0  0  0  0  0  0  0  0  0  0  0  0
   25.3280   16.3960   13.8500 C   0  0  0  0  0  0  0  0  0  0  0  0
   25.5010   15.7680   14.8890 O   0  0  0  0  0  0  0  0  0  0  0  0
   25.3190   17.7730   13.8020 N   0  0  0  0  0  0  0  0  0  0  0  0
   25.4080   18.5650   15.0220 C   0  0  1  0  0  0  0  0  0  0  0  0
   26.3550   17.9440   16.0430 C   0  0  0  0  0  0  0  0  0  0  0  0
   26.4300   18.8360   17.2730 C   0  0  0  0  0  0  0  0  0  0  0  0
   26.8440   20.2420   16.9050 C   0  0  0  0  0  0  0  0  0  0  0  0
   27.5180   20.9460   17.6520 O   0  0  0  0  0  0  0  0  0  0  0  0
   26.4000   20.7180   15.6980 N   0  0  0  0  0  0  0  0  0  0  0  0
   25.9150   19.9650   14.6590 C   0  0  0  0  0  0  0  0  0  0  0  0
   25.8800   20.4080   13.5110 O   0  0  0  0  0  0  0  0  0  0  0  0
   25.5650   14.3710   12.4370 C   0  0  0  0  0  0  0  0  0  0  0  0
   25.3750   13.6280   11.2640 C   0  0  0  0  0  0  0  0  0  0  0  0
   24.6810   14.2630   10.2350 C   0  0  0  0  0  0  0  0  0  0  0  0
   24.3220   13.8550    8.9760 N   0  0  0  0  0  0  0  0  0  0  0  0
   21.2380   16.3120    5.4740 C   0  0  0  0  0  0  0  0  0  0  0  0
   20.1750   17.0540    5.7030 N   0  0  0  0  0  0  0  0  0  0  0  0
   18.9504   19.6134    8.5356 H   0  0  0  0  0  0  0  0  0  0  0  0
   19.8320   19.3891    6.9867 H   0  0  0  0  0  0  0  0  0  0  0  0
   18.0430   19.5504    6.9867 H   0  0  0  0  0  0  0  0  0  0  0  0
   18.7358   17.3922    8.7477 H   0  0  0  0  0  0  0  0  0  0  0  0
   17.8511   17.3404    7.1616 H   0  0  0  0  0  0  0  0  0  0  0  0
   20.9023   15.7839    8.7001 H   0  0  0  0  0  0  0  0  0  0  0  0
   24.0175   17.3259   11.6000 H   0  0  0  0  0  0  0  0  0  0  0  0
   25.2484   18.2491   12.8914 H   0  0  0  0  0  0  0  0  0  0  0  0
   24.4071   18.6069   15.4764 H   0  0  0  0  0  0  0  0  0  0  0  0
   25.9817   16.9506   16.3326 H   0  0  0  0  0  0  0  0  0  0  0  0
   27.3572   17.8444   15.6006 H   0  0  0  0  0  0  0  0  0  0  0  0
   25.4412   18.8676   17.7540 H   0  0  0  0  0  0  0  0  0  0  0  0
   27.1824   18.4200   17.9591 H   0  0  0  0  0  0  0  0  0  0  0  0
   26.4339   21.7379   15.5583 H   0  0  0  0  0  0  0  0  0  0  0  0
   26.1131   13.9172   13.2758 H   0  0  0  0  0  0  0  0  0  0  0  0
   25.7528   12.6001   11.1608 H   0  0  0  0  0  0  0  0  0  0  0  0
   24.5209   12.9343    8.5593 H   0  0  0  0  0  0  0  0  0  0  0  0
   21.7401   16.2202    4.4996 H   0  0  0  0  0  0  0  0  0  0  0  0
  1  2  1  0
  2  3  1  0
  3  4  2  0
  4  5  1  0
  5  6  1  0
  6  7  2  0
  6  8  2  0
  6  9  1  0
  9 10  2  0
 10 11  1  0
 11 12  2  0
 12 13  1  0
 13 14  1  0
 14 15  2  0
 14 16  1  0
 16 17  1  0
 17 18  1  0
 18 19  1  0
 19 20  1  0
 20 21  2  0
 20 22  1  0
 22 23  1  0
 23 24  2  0
 13 25  2  0
 25 26  1  0
 26 27  2  0
 27 28  1  0
  5 29  1  0
 29 30  2  0
 30  3  1  0
 28  9  1  0
 27 11  1  0
 23 17  1  0
  1 31  1  0
  1 32  1  0
  1 33  1  0
  2 34  1  0
  2 35  1  0
  4 36  1  0
 12 37  1  0
 16 38  1  0
 17 39  1  1
 18 40  1  0
 18 41  1  0
 19 42  1  0
 19 43  1  0
 22 44  1  0
 25 45  1  0
 26 46  1  0
 28 47  1  0
 29 48  1  0
M  END
>  <meeko>  (1390) 
{"is_sidechain": [true], "free_energy": -10.07, "intermolecular_energy": 0.0, "internal_energy": -10.07, "cluster_size": 4, "cluster_id": 1, "rank_in_cluster": 1}

>  <_RMSD_MCS_to_ref>  (1390) 
0.7498570234088331

$$$$
ligand
     RDKit          3D

 42 44  0  0  0  0  0  0  0  0999 V2000
   18.9090   19.1540    7.5370 C   0  0  0  0  0  0  0  0  0  0  0  0
   18.7730   17.6460    7.6780 C   0  0  0  0  0  0  0  0  0  0  0  0
   20.0910   16.9550    7.6230 C   0  0  0  0  0  0  0  0  0  0  0  0
   21.0470   16.8280    8.6110 C   0  0  0  0  0  0  0  0  0  0  0  0
   22.0550   16.1280    8.0130 N   0  0  0  0  0  0  0  0  0  0  0  0
   23.3850   15.4690    8.7920 S   0  0  0  0  0  6  0  0  0  0  0  0
   24.5260   16.2760    8.4090 O   0  0  0  0  0  0  0  0  0  0  0  0
   23.3140   14.0370    8.5910 O   0  0  0  0  0  0  0  0  0  0  0  0
   23.2050   15.7020   10.4760 C   0  0  0  0  0  0  0  0  0  0  0  0
   22.2010   15.1910   11.2610 C   0  0  0  0  0  0  0  0  0  0  0  0
   22.3860   15.5610   12.5560 O   0  0  0  0  0  0  0  0  0  0  0  0
   23.5230   16.3290   12.6030 C   0  0  0  0  0  0  0  0  0  0  0  0
   23.9670   16.8680   13.8710 C   0  0  0  0  0  0  0  0  0  0  0  0
   23.7740   16.3130   14.9490 O   0  0  0  0  0  0  0  0  0  0  0  0
   24.6220   18.0740   13.7760 N   0  0  0  0  0  0  0  0  0  0  0  0
   25.0020   18.8470   14.9460 C   0  0  1  0  0  0  0  0  0  0  0  0
   25.9570   18.0790   15.8550 C   0  0  0  0  0  0  0  0  0  0  0  0
   26.3400   18.9510   17.0410 C   0  0  0  0  0  0  0  0  0  0  0  0
   26.9290   20.2660   16.5870 C   0  0  0  0  0  0  0  0  0  0  0  0
   27.8080   20.8460   17.2160 O   0  0  0  0  0  0  0  0  0  0  0  0
   26.4100   20.8080   15.4400 N   0  0  0  0  0  0  0  0  0  0  0  0
   25.6830   20.1390   14.4860 C   0  0  0  0  0  0  0  0  0  0  0  0
   25.5830   20.5780   13.3400 O   0  0  0  0  0  0  0  0  0  0  0  0
   24.0600   16.4370   11.3340 C   0  0  0  0  0  0  0  0  0  0  0  0
   21.6810   15.8020    6.7490 C   0  0  0  0  0  0  0  0  0  0  0  0
   20.4960   16.3060    6.4740 N   0  0  0  0  0  0  0  0  0  0  0  0
   18.9504   19.6134    8.5356 H   0  0  0  0  0  0  0  0  0  0  0  0
   19.8320   19.3891    6.9867 H   0  0  0  0  0  0  0  0  0  0  0  0
   18.0430   19.5504    6.9867 H   0  0  0  0  0  0  0  0  0  0  0  0
   18.2956   17.4220    8.6434 H   0  0  0  0  0  0  0  0  0  0  0  0
   18.1651   17.2815    6.8368 H   0  0  0  0  0  0  0  0  0  0  0  0
   21.0059   17.2047    9.6437 H   0  0  0  0  0  0  0  0  0  0  0  0
   21.3682   14.5723   10.8953 H   0  0  0  0  0  0  0  0  0  0  0  0
   24.8513   18.4422   12.8418 H   0  0  0  0  0  0  0  0  0  0  0  0
   24.0896   19.0631   15.5211 H   0  0  0  0  0  0  0  0  0  0  0  0
   25.4635   17.1647   16.2164 H   0  0  0  0  0  0  0  0  0  0  0  0
   26.8621   17.8090   15.2912 H   0  0  0  0  0  0  0  0  0  0  0  0
   25.4421   19.1497   17.6446 H   0  0  0  0  0  0  0  0  0  0  0  0
   27.0971   18.4175   17.6344 H   0  0  0  0  0  0  0  0  0  0  0  0
   26.5812   21.8107   15.2784 H   0  0  0  0  0  0  0  0  0  0  0  0
   24.9699   16.9845   11.0473 H   0  0  0  0  0  0  0  0  0  0  0  0
   22.2837   15.2009    6.0522 H   0  0  0  0  0  0  0  0  0  0  0  0
  1  2  1  0
  2  3  1  0
  3  4  2  0
  4  5  1  0
  5  6  1  0
  6  7  2  0
  6  8  2  0
  6  9  1  0
  9 10  2  0
 10 11  1  0
 11 12  1  0
 12 13  1  0
 13 14  2  0
 13 15  1  0
 15 16  1  0
 16 17  1  0
 17 18  1  0
 18 19  1  0
 19 20  2  0
 19 21  1  0
 21 22  1  0
 22 23  2  0
 12 24  2  0
  5 25  1  0
 25 26  2  0
 26  3  1  0
 24  9  1  0
 22 16  1  0
  1 27  1  0
  1 28  1  0
  1 29  1  0
  2 30  1  0
  2 31  1  0
  4 32  1  0
 10 33  1  0
 15 34  1  0
 16 35  1  1
 17 36  1  0
 17 37  1  0
 18 38  1  0
 18 39  1  0
 21 40  1  0
 24 41  1  0
 25 42  1  0
M  END
>  <meeko>  (1391) 
{"is_sidechain": [true], "free_energy": -10.07, "intermolecular_energy": 0.0, "internal_energy": -10.07, "cluster_size": 20, "cluster_id": 1, "rank_in_cluster": 1}

>  <_RMSD_MCS_to_ref>  (1391) 
0.6098586357145034

$$$$
ligand
     RDKit          3D

 47 50  0  0  0  0  0  0  0  0999 V2000
   18.9090   19.1540    7.5370 C   0  0  0  0  0  0  0  0  0  0  0  0
   18.7730   17.6460    7.6780 C   0  0  0  0  0  0  0  0  0  0  0  0
   19.9980   16.9280    7.2330 C   0  0  0  0  0  0  0  0  0  0  0  0
   21.2210   16.8240    7.8660 C   0  0  0  0  0  0  0  0  0  0  0  0
   21.9650   16.0420    7.0290 N   0  0  0  0  0  0  0  0  0  0  0  0
   23.6130   15.7680    7.1540 S   0  0  0  0  0  6  0  0  0  0  0  0
   24.2710   17.0320    6.8900 O   0  0  0  0  0  0  0  0  0  0  0  0
   23.8940   14.5530    6.4200 O   0  0  0  0  0  0  0  0  0  0  0  0
   24.0130   15.3990    8.8340 C   0  0  0  0  0  0  0  0  0  0  0  0
   24.0430   16.1570    9.9960 C   0  0  0  0  0  0  0  0  0  0  0  0
   24.4470   15.3160   11.0690 C   0  0  0  0  0  0  0  0  0  0  0  0
   24.6780   15.4230   12.4410 C   0  0  0  0  0  0  0  0  0  0  0  0
   24.5160   16.7050   13.1800 C   0  0  0  0  0  0  0  0  0  0  0  0
   23.8510   17.6350   12.7390 O   0  0  0  0  0  0  0  0  0  0  0  0
   25.1850   16.7590   14.3840 N   0  0  0  0  0  0  0  0  0  0  0  0
   25.2840   17.9750   15.1680 C   0  0  1  0  0  0  0  0  0  0  0  0
   25.9520   17.7330   16.5190 C   0  0  0  0  0  0  0  0  0  0  0  0
   26.0460   19.0440   17.2820 C   0  0  0  0  0  0  0  0  0  0  0  0
   26.7740   20.0950   16.4770 C   0  0  0  0  0  0  0  0  0  0  0  0
   27.4780   20.9540   16.9990 O   0  0  0  0  0  0  0  0  0  0  0  0
   26.5850   20.0700   15.1180 N   0  0  0  0  0  0  0  0  0  0  0  0
   26.1000   19.0130   14.3880 C   0  0  0  0  0  0  0  0  0  0  0  0
   26.3060   18.9350   13.1770 O   0  0  0  0  0  0  0  0  0  0  0  0
   25.0760   14.3330   13.1570 N   0  0  0  0  0  0  0  0  0  0  0  0
   25.2300   13.1770   12.4870 C   0  0  0  0  0  0  0  0  0  0  0  0
   25.0390   12.9530   11.1770 N   0  0  0  0  0  0  0  0  0  0  0  0
   24.6490   14.0580   10.5270 C   0  0  0  0  0  0  0  0  0  0  0  0
   24.3790   14.1180    9.1900 N   0  0  0  0  0  0  0  0  0  0  0  0
   21.2340   15.7510    5.9240 C   0  0  0  0  0  0  0  0  0  0  0  0
   20.0220   16.2580    6.0260 N   0  0  0  0  0  0  0  0  0  0  0  0
   18.9504   19.6134    8.5356 H   0  0  0  0  0  0  0  0  0  0  0  0
   19.8320   19.3891    6.9867 H   0  0  0  0  0  0  0  0  0  0  0  0
   18.0430   19.5504    6.9867 H   0  0  0  0  0  0  0  0  0  0  0  0
   18.5847   17.4044    8.7345 H   0  0  0  0  0  0  0  0  0  0  0  0
   17.9392   17.3205    7.0386 H   0  0  0  0  0  0  0  0  0  0  0  0
   21.5261   17.2690    8.8246 H   0  0  0  0  0  0  0  0  0  0  0  0
   23.7963   17.2262   10.0738 H   0  0  0  0  0  0  0  0  0  0  0  0
   25.6320   15.9023   14.7407 H   0  0  0  0  0  0  0  0  0  0  0  0
   24.2624   18.3378   15.3541 H   0  0  0  0  0  0  0  0  0  0  0  0
   25.3553   17.0136   17.0990 H   0  0  0  0  0  0  0  0  0  0  0  0
   26.9627   17.3289   16.3602 H   0  0  0  0  0  0  0  0  0  0  0  0
   25.0303   19.4028   17.5049 H   0  0  0  0  0  0  0  0  0  0  0  0
   26.6078   18.8663   18.2109 H   0  0  0  0  0  0  0  0  0  0  0  0
   26.8299   20.9240   14.5968 H   0  0  0  0  0  0  0  0  0  0  0  0
   25.5511   12.3108   13.0842 H   0  0  0  0  0  0  0  0  0  0  0  0
   24.4399   13.3209    8.5405 H   0  0  0  0  0  0  0  0  0  0  0  0
   21.6015   15.1728    5.0634 H   0  0  0  0  0  0  0  0  0  0  0  0
  1  2  1  0
  2  3  1  0
  3  4  2  0
  4  5  1  0
  5  6  1  0
  6  7  2  0
  6  8  2  0
  6  9  1  0
  9 10  2  0
 10 11  1  0
 11 12  2  0
 12 13  1  0
 13 14  2  0
 13 15  1  0
 15 16  1  0
 16 17  1  0
 17 18  1  0
 18 19  1  0
 19 20  2  0
 19 21  1  0
 21 22  1  0
 22 23  2  0
 12 24  1  0
 24 25  2  0
 25 26  1  0
 26 27  2  0
 27 28  1  0
  5 29  1  0
 29 30  2  0
 30  3  1  0
 28  9  1  0
 27 11  1  0
 22 16  1  0
  1 31  1  0
  1 32  1  0
  1 33  1  0
  2 34  1  0
  2 35  1  0
  4 36  1  0
 10 37  1  0
 15 38  1  0
 16 39  1  1
 17 40  1  0
 17 41  1  0
 18 42  1  0
 18 43  1  0
 21 44  1  0
 25 45  1  0
 28 46  1  0
 29 47  1  0
M  END
>  <meeko>  (1392) 
{"is_sidechain": [true], "free_energy": -10.07, "intermolecular_energy": 0.0, "internal_energy": -10.07, "cluster_size": 20, "cluster_id": 1, "rank_in_cluster": 1}

>  <_RMSD_MCS_to_ref>  (1392) 
1.0363249704819641

$$$$
ligand
     RDKit          3D

 45 47  0  0  0  0  0  0  0  0999 V2000
   18.9090   19.1540    7.5370 C   0  0  0  0  0  0  0  0  0  0  0  0
   18.7730   17.6460    7.6780 C   0  0  0  0  0  0  0  0  0  0  0  0
   20.0600   16.9410    7.4310 C   0  0  0  0  0  0  0  0  0  0  0  0
   20.8730   16.2760    8.3280 C   0  0  0  0  0  0  0  0  0  0  0  0
   21.9210   15.8380    7.5690 N   0  0  0  0  0  0  0  0  0  0  0  0
   23.1220   14.7750    8.0710 S   0  0  0  0  0  6  0  0  0  0  0  0
   24.2330   14.9710    7.1600 O   0  0  0  0  0  0  0  0  0  0  0  0
   22.4680   13.4900    8.2350 O   0  0  0  0  0  0  0  0  0  0  0  0
   23.5800   15.3900    9.6690 C   0  0  0  0  0  0  0  0  0  0  0  0
   22.6410   15.3990   10.7050 C   0  0  0  0  0  0  0  0  0  0  0  0
   23.0070   15.8820   11.9650 C   0  0  0  0  0  0  0  0  0  0  0  0
   24.3120   16.3400   12.1930 C   0  0  0  0  0  0  0  0  0  0  0  0
   24.7480   16.8720   13.5140 C   0  0  0  0  0  0  0  0  0  0  0  0
   24.8200   16.1290   14.4870 O   0  0  0  0  0  0  0  0  0  0  0  0
   25.0250   18.2190   13.5800 N   0  0  0  0  0  0  0  0  0  0  0  0
   25.3040   18.8650   14.8550 C   0  0  1  0  0  0  0  0  0  0  0  0
   26.3830   18.1370   15.6500 C   0  0  0  0  0  0  0  0  0  0  0  0
   26.6530   18.8870   16.9440 C   0  0  0  0  0  0  0  0  0  0  0  0
   27.0260   20.3270   16.6770 C   0  0  0  0  0  0  0  0  0  0  0  0
   27.8250   20.9420   17.3780 O   0  0  0  0  0  0  0  0  0  0  0  0
   26.4030   20.9360   15.6180 N   0  0  0  0  0  0  0  0  0  0  0  0
   25.7710   20.2980   14.5800 C   0  0  0  0  0  0  0  0  0  0  0  0
   25.5870   20.8610   13.5020 O   0  0  0  0  0  0  0  0  0  0  0  0
   25.2450   16.3250   11.1440 C   0  0  0  0  0  0  0  0  0  0  0  0
   24.8850   15.8420    9.8840 C   0  0  0  0  0  0  0  0  0  0  0  0
   21.7100   16.1880    6.2750 C   0  0  0  0  0  0  0  0  0  0  0  0
   20.5900   16.8700    6.1570 N   0  0  0  0  0  0  0  0  0  0  0  0
   18.9504   19.6134    8.5356 H   0  0  0  0  0  0  0  0  0  0  0  0
   19.8320   19.3891    6.9867 H   0  0  0  0  0  0  0  0  0  0  0  0
   18.0430   19.5504    6.9867 H   0  0  0  0  0  0  0  0  0  0  0  0
   18.4322   17.4147    8.6980 H   0  0  0  0  0  0  0  0  0  0  0  0
   18.0483   17.3001    6.9262 H   0  0  0  0  0  0  0  0  0  0  0  0
   20.7132   16.1320    9.4068 H   0  0  0  0  0  0  0  0  0  0  0  0
   21.6203   15.0282   10.5297 H   0  0  0  0  0  0  0  0  0  0  0  0
   22.2685   15.9026   12.7800 H   0  0  0  0  0  0  0  0  0  0  0  0
   25.0350   18.7780   12.7149 H   0  0  0  0  0  0  0  0  0  0  0  0
   24.3820   18.8488   15.4547 H   0  0  0  0  0  0  0  0  0  0  0  0
   26.0422   17.1171   15.8818 H   0  0  0  0  0  0  0  0  0  0  0  0
   27.3069   18.0890   15.0549 H   0  0  0  0  0  0  0  0  0  0  0  0
   25.7478   18.8613   17.5685 H   0  0  0  0  0  0  0  0  0  0  0  0
   27.4948   18.4001   17.4581 H   0  0  0  0  0  0  0  0  0  0  0  0
   26.4100   21.9658   15.5999 H   0  0  0  0  0  0  0  0  0  0  0  0
   26.2662   16.6961   11.3156 H   0  0  0  0  0  0  0  0  0  0  0  0
   25.6221   15.8175    9.0679 H   0  0  0  0  0  0  0  0  0  0  0  0
   22.3814   15.9368    5.4406 H   0  0  0  0  0  0  0  0  0  0  0  0
  1  2  1  0
  2  3  1  0
  3  4  2  0
  4  5  1  0
  5  6  1  0
  6  7  2  0
  6  8  2  0
  6  9  1  0
  9 10  2  0
 10 11  1  0
 11 12  2  0
 12 13  1  0
 13 14  2  0
 13 15  1  0
 15 16  1  0
 16 17  1  0
 17 18  1  0
 18 19  1  0
 19 20  2  0
 19 21  1  0
 21 22  1  0
 22 23  2  0
 12 24  1  0
 24 25  2  0
  5 26  1  0
 26 27  2  0
 27  3  1  0
 25  9  1  0
 22 16  1  0
  1 28  1  0
  1 29  1  0
  1 30  1  0
  2 31  1  0
  2 32  1  0
  4 33  1  0
 10 34  1  0
 11 35  1  0
 15 36  1  0
 16 37  1  1
 17 38  1  0
 17 39  1  0
 18 40  1  0
 18 41  1  0
 21 42  1  0
 24 43  1  0
 25 44  1  0
 26 45  1  0
M  END
>  <meeko>  (1393) 
{"is_sidechain": [true], "free_energy": -10.07, "intermolecular_energy": 0.0, "internal_energy": -10.07, "cluster_size": 18, "cluster_id": 1, "rank_in_cluster": 1}

>  <_RMSD_MCS_to_ref>  (1393) 
0.7525199148342998

$$$$
ligand
     RDKit          3D

 44 46  0  0  0  0  0  0  0  0999 V2000
   18.9090   19.1540    7.5370 C   0  0  0  0  0  0  0  0  0  0  0  0
   18.7730   17.6460    7.6780 C   0  0  0  0  0  0  0  0  0  0  0  0
   20.0940   16.9620    7.7060 C   0  0  0  0  0  0  0  0  0  0  0  0
   20.8250   16.5350    8.7970 C   0  0  0  0  0  0  0  0  0  0  0  0
   21.9520   15.9830    8.2560 N   0  0  0  0  0  0  0  0  0  0  0  0
   23.3610   15.6020    9.0990 S   0  0  0  0  0  6  0  0  0  0  0  0
   23.8660   14.3880    8.4860 O   0  0  0  0  0  0  0  0  0  0  0  0
   24.1320   16.8300    9.1530 O   0  0  0  0  0  0  0  0  0  0  0  0
   22.7930   15.2170   10.7350 C   0  0  0  0  0  0  0  0  0  0  0  0
   21.6710   14.4290   10.9310 C   0  0  0  0  0  0  0  0  0  0  0  0
   21.2670   14.2100   12.2460 C   0  0  0  0  0  0  0  0  0  0  0  0
   21.9820   14.7880   13.2970 C   0  0  0  0  0  0  0  0  0  0  0  0
   23.0930   15.5640   12.9900 C   0  0  0  0  0  0  0  0  0  0  0  0
   23.8830   16.2490   14.0640 C   0  0  0  0  0  0  0  0  0  0  0  0
   24.1520   15.6930   15.1210 O   0  0  0  0  0  0  0  0  0  0  0  0
   24.2460   17.5470   13.7530 N   0  0  0  0  0  0  0  0  0  0  0  0
   24.6500   18.4860   14.7820 C   0  0  1  0  0  0  0  0  0  0  0  0
   25.7270   17.8780   15.6710 C   0  0  0  0  0  0  0  0  0  0  0  0
   26.1490   18.8890   16.7250 C   0  0  0  0  0  0  0  0  0  0  0  0
   26.5980   20.1840   16.0920 C   0  0  0  0  0  0  0  0  0  0  0  0
   27.5060   20.8660   16.5590 O   0  0  0  0  0  0  0  0  0  0  0  0
   25.9200   20.5880   14.9710 N   0  0  0  0  0  0  0  0  0  0  0  0
   25.2090   19.7620   14.1310 C   0  0  0  0  0  0  0  0  0  0  0  0
   25.0570   20.0600   12.9480 O   0  0  0  0  0  0  0  0  0  0  0  0
   23.5240   15.7860   11.7230 N   0  0  0  0  0  0  0  0  0  0  0  0
   21.8920   16.1000    6.9010 C   0  0  0  0  0  0  0  0  0  0  0  0
   20.7790   16.7000    6.5340 N   0  0  0  0  0  0  0  0  0  0  0  0
   18.9504   19.6134    8.5356 H   0  0  0  0  0  0  0  0  0  0  0  0
   19.8320   19.3891    6.9867 H   0  0  0  0  0  0  0  0  0  0  0  0
   18.0430   19.5504    6.9867 H   0  0  0  0  0  0  0  0  0  0  0  0
   18.2397   17.4246    8.6142 H   0  0  0  0  0  0  0  0  0  0  0  0
   18.2189   17.2740    6.8036 H   0  0  0  0  0  0  0  0  0  0  0  0
   20.5600   16.6200    9.8612 H   0  0  0  0  0  0  0  0  0  0  0  0
   21.1215   13.9940   10.0831 H   0  0  0  0  0  0  0  0  0  0  0  0
   20.3874   13.5837   12.4559 H   0  0  0  0  0  0  0  0  0  0  0  0
   21.6736   14.6329   14.3414 H   0  0  0  0  0  0  0  0  0  0  0  0
   24.2291   17.8533   12.7697 H   0  0  0  0  0  0  0  0  0  0  0  0
   23.7680   18.7273   15.3934 H   0  0  0  0  0  0  0  0  0  0  0  0
   25.3297   16.9788   16.1646 H   0  0  0  0  0  0  0  0  0  0  0  0
   26.5977   17.6063   15.0562 H   0  0  0  0  0  0  0  0  0  0  0  0
   25.2961   19.0915   17.3895 H   0  0  0  0  0  0  0  0  0  0  0  0
   26.9923   18.4685   17.2925 H   0  0  0  0  0  0  0  0  0  0  0  0
   25.9448   21.5912   14.7387 H   0  0  0  0  0  0  0  0  0  0  0  0
   22.6674   15.7422    6.2076 H   0  0  0  0  0  0  0  0  0  0  0  0
  1  2  1  0
  2  3  1  0
  3  4  2  0
  4  5  1  0
  5  6  1  0
  6  7  2  0
  6  8  2  0
  6  9  1  0
  9 10  2  0
 10 11  1  0
 11 12  2  0
 12 13  1  0
 13 14  1  0
 14 15  2  0
 14 16  1  0
 16 17  1  0
 17 18  1  0
 18 19  1  0
 19 20  1  0
 20 21  2  0
 20 22  1  0
 22 23  1  0
 23 24  2  0
 13 25  2  0
  5 26  1  0
 26 27  2  0
 27  3  1  0
 25  9  1  0
 23 17  1  0
  1 28  1  0
  1 29  1  0
  1 30  1  0
  2 31  1  0
  2 32  1  0
  4 33  1  0
 10 34  1  0
 11 35  1  0
 12 36  1  0
 16 37  1  0
 17 38  1  1
 18 39  1  0
 18 40  1  0
 19 41  1  0
 19 42  1  0
 22 43  1  0
 26 44  1  0
M  END
>  <meeko>  (1394) 
{"is_sidechain": [true], "free_energy": -10.07, "intermolecular_energy": 0.0, "internal_energy": -10.07, "cluster_size": 18, "cluster_id": 1, "rank_in_cluster": 1}

>  <_RMSD_MCS_to_ref>  (1394) 
0.42571782516905116

$$$$
ligand
     RDKit          3D

 48 51  0  0  0  0  0  0  0  0999 V2000
   18.9090   19.1540    7.5370 C   0  0  0  0  0  0  0  0  0  0  0  0
   18.7730   17.6460    7.6780 C   0  0  0  0  0  0  0  0  0  0  0  0
   20.0950   16.9620    7.6690 C   0  0  0  0  0  0  0  0  0  0  0  0
   20.8300   16.4830    8.7350 C   0  0  0  0  0  0  0  0  0  0  0  0
   21.9610   15.9790    8.1640 N   0  0  0  0  0  0  0  0  0  0  0  0
   23.3390   15.4510    8.9650 S   0  0  0  0  0  6  0  0  0  0  0  0
   23.6640   14.1450    8.4310 O   0  0  0  0  0  0  0  0  0  0  0  0
   24.2610   16.5690    8.8910 O   0  0  0  0  0  0  0  0  0  0  0  0
   22.8690   15.2570   10.6490 C   0  0  0  0  0  0  0  0  0  0  0  0
   23.5600   15.9540   11.6560 C   0  0  0  0  0  0  0  0  0  0  0  0
   23.1930   15.8010   13.0130 C   0  0  0  0  0  0  0  0  0  0  0  0
   23.9070   16.5150   14.1080 C   0  0  0  0  0  0  0  0  0  0  0  0
   24.2290   15.9120   15.1250 O   0  0  0  0  0  0  0  0  0  0  0  0
   24.1410   17.8580   13.9250 N   0  0  0  0  0  0  0  0  0  0  0  0
   24.7020   18.6740   14.9960 C   0  0  1  0  0  0  0  0  0  0  0  0
   25.8340   17.9650   15.7290 C   0  0  0  0  0  0  0  0  0  0  0  0
   26.4010   18.8880   16.7980 C   0  0  0  0  0  0  0  0  0  0  0  0
   26.8490   20.2030   16.2070 C   0  0  0  0  0  0  0  0  0  0  0  0
   27.8080   20.8300   16.6480 O   0  0  0  0  0  0  0  0  0  0  0  0
   26.1100   20.6910   15.1600 N   0  0  0  0  0  0  0  0  0  0  0  0
   25.2370   19.9710   14.3830 C   0  0  0  0  0  0  0  0  0  0  0  0
   24.9010   20.3640   13.2640 O   0  0  0  0  0  0  0  0  0  0  0  0
   22.1500   14.9330   13.3710 C   0  0  0  0  0  0  0  0  0  0  0  0
   21.5110   14.2660   12.3490 C   0  0  0  0  0  0  0  0  0  0  0  0
   20.4820   13.3720   12.3940 N   0  0  0  0  0  0  0  0  0  0  0  0
   20.2070   12.9800   11.1080 C   0  0  0  0  0  0  0  0  0  0  0  0
   19.3400   12.1850   10.7820 O   0  0  0  0  0  0  0  0  0  0  0  0
   21.0600   13.6210   10.1990 O   0  0  0  0  0  0  0  0  0  0  0  0
   21.8470   14.4120   11.0190 C   0  0  0  0  0  0  0  0  0  0  0  0
   21.8930   16.1480    6.8180 C   0  0  0  0  0  0  0  0  0  0  0  0
   20.7710   16.7480    6.4830 N   0  0  0  0  0  0  0  0  0  0  0  0
   18.9504   19.6134    8.5356 H   0  0  0  0  0  0  0  0  0  0  0  0
   19.8320   19.3891    6.9867 H   0  0  0  0  0  0  0  0  0  0  0  0
   18.0430   19.5504    6.9867 H   0  0  0  0  0  0  0  0  0  0  0  0
   18.2645   17.4228    8.6275 H   0  0  0  0  0  0  0  0  0  0  0  0
   18.1940   17.2760    6.8190 H   0  0  0  0  0  0  0  0  0  0  0  0
   20.5638   16.5033    9.8021 H   0  0  0  0  0  0  0  0  0  0  0  0
   24.3911   16.6223   11.3865 H   0  0  0  0  0  0  0  0  0  0  0  0
   23.9169   18.2936   13.0189 H   0  0  0  0  0  0  0  0  0  0  0  0
   23.9072   18.8735   15.7298 H   0  0  0  0  0  0  0  0  0  0  0  0
   25.4485   17.0496   16.2016 H   0  0  0  0  0  0  0  0  0  0  0  0
   26.6267   17.7015   15.0133 H   0  0  0  0  0  0  0  0  0  0  0  0
   25.6248   19.0807   17.5533 H   0  0  0  0  0  0  0  0  0  0  0  0
   27.2738   18.3969   17.2529 H   0  0  0  0  0  0  0  0  0  0  0  0
   26.2202   21.6903   14.9359 H   0  0  0  0  0  0  0  0  0  0  0  0
   21.8557   14.7915   14.4214 H   0  0  0  0  0  0  0  0  0  0  0  0
   19.9971   13.0483   13.2431 H   0  0  0  0  0  0  0  0  0  0  0  0
   22.6685   15.8277    6.1066 H   0  0  0  0  0  0  0  0  0  0  0  0
  1  2  1  0
  2  3  1  0
  3  4  2  0
  4  5  1  0
  5  6  1  0
  6  7  2  0
  6  8  2  0
  6  9  1  0
  9 10  2  0
 10 11  1  0
 11 12  1  0
 12 13  2  0
 12 14  1  0
 14 15  1  0
 15 16  1  0
 16 17  1  0
 17 18  1  0
 18 19  2  0
 18 20  1  0
 20 21  1  0
 21 22  2  0
 11 23  2  0
 23 24  1  0
 24 25  1  0
 25 26  1  0
 26 27  2  0
 26 28  1  0
 28 29  1  0
  5 30  1  0
 30 31  2  0
 31  3  1  0
 29  9  1  0
 21 15  1  0
 29 24  2  0
  1 32  1  0
  1 33  1  0
  1 34  1  0
  2 35  1  0
  2 36  1  0
  4 37  1  0
 10 38  1  0
 14 39  1  0
 15 40  1  1
 16 41  1  0
 16 42  1  0
 17 43  1  0
 17 44  1  0
 20 45  1  0
 23 46  1  0
 25 47  1  0
 30 48  1  0
M  END
>  <meeko>  (1395) 
{"is_sidechain": [true], "free_energy": -10.07, "intermolecular_energy": 0.0, "internal_energy": -10.07, "cluster_size": 20, "cluster_id": 1, "rank_in_cluster": 1}

>  <_RMSD_MCS_to_ref>  (1395) 
0.4523469661418967

$$$$
ligand
     RDKit          3D

 51 54  0  0  0  0  0  0  0  0999 V2000
   18.9090   19.1540    7.5370 C   0  0  0  0  0  0  0  0  0  0  0  0
   18.7730   17.6460    7.6780 C   0  0  0  0  0  0  0  0  0  0  0  0
   19.9310   16.9200    7.0880 C   0  0  0  0  0  0  0  0  0  0  0  0
   21.2590   16.9500    7.4650 C   0  0  0  0  0  0  0  0  0  0  0  0
   21.8700   16.0830    6.6050 N   0  0  0  0  0  0  0  0  0  0  0  0
   23.5280   15.8650    6.4380 S   0  0  0  0  0  6  0  0  0  0  0  0
   23.7010   14.9160    5.3550 O   0  0  0  0  0  0  0  0  0  0  0  0
   24.0990   17.1970    6.4050 O   0  0  0  0  0  0  0  0  0  0  0  0
   24.0050   15.0800    7.9550 C   0  0  0  0  0  0  0  0  0  0  0  0
   24.3960   13.7360    7.9390 C   0  0  0  0  0  0  0  0  0  0  0  0
   24.7630   13.1170    9.1320 C   0  0  0  0  0  0  0  0  0  0  0  0
   24.7530   13.8500   10.3250 C   0  0  0  0  0  0  0  0  0  0  0  0
   25.1450   13.2050   11.6020 C   0  0  0  0  0  0  0  0  0  0  0  0
   25.4490   12.0190   11.6530 O   0  0  0  0  0  0  0  0  0  0  0  0
   25.1690   14.0430   12.8220 C   0  0  0  0  0  0  0  0  0  0  0  0
   24.7770   15.3220   12.7270 C   0  0  0  0  0  0  0  0  0  0  0  0
   24.8320   16.1400   13.9890 C   0  0  0  0  0  0  0  0  0  0  0  0
   24.3100   15.7890   15.0390 O   0  0  0  0  0  0  0  0  0  0  0  0
   25.5070   17.3290   13.8340 N   0  0  0  0  0  0  0  0  0  0  0  0
   25.4920   18.3410   14.8820 C   0  0  1  0  0  0  0  0  0  0  0  0
   26.1240   17.8460   16.1790 C   0  0  0  0  0  0  0  0  0  0  0  0
   26.1200   18.9690   17.2050 C   0  0  0  0  0  0  0  0  0  0  0  0
   26.8160   20.2010   16.6740 C   0  0  0  0  0  0  0  0  0  0  0  0
   27.4670   20.9530   17.3920 O   0  0  0  0  0  0  0  0  0  0  0  0
   26.6630   20.4630   15.3360 N   0  0  0  0  0  0  0  0  0  0  0  0
   26.2760   19.5570   14.3800 C   0  0  0  0  0  0  0  0  0  0  0  0
   26.5400   19.7290   13.1900 O   0  0  0  0  0  0  0  0  0  0  0  0
   24.3330   15.9120   11.5540 N   0  0  0  0  0  0  0  0  0  0  0  0
   24.4000   15.2120   10.3380 C   0  0  0  0  0  0  0  0  0  0  0  0
   24.0070   15.8210    9.1440 C   0  0  0  0  0  0  0  0  0  0  0  0
   20.9520   15.6030    5.7290 C   0  0  0  0  0  0  0  0  0  0  0  0
   19.7580   16.0860    6.0010 N   0  0  0  0  0  0  0  0  0  0  0  0
   18.9504   19.6134    8.5356 H   0  0  0  0  0  0  0  0  0  0  0  0
   19.8320   19.3891    6.9867 H   0  0  0  0  0  0  0  0  0  0  0  0
   18.0430   19.5504    6.9867 H   0  0  0  0  0  0  0  0  0  0  0  0
   18.7044   17.3948    8.7467 H   0  0  0  0  0  0  0  0  0  0  0  0
   17.8677   17.3361    7.1354 H   0  0  0  0  0  0  0  0  0  0  0  0
   21.7193   17.5377    8.2730 H   0  0  0  0  0  0  0  0  0  0  0  0
   24.4133   13.1740    6.9936 H   0  0  0  0  0  0  0  0  0  0  0  0
   25.0592   12.0576    9.1367 H   0  0  0  0  0  0  0  0  0  0  0  0
   25.5007   13.6262   13.7844 H   0  0  0  0  0  0  0  0  0  0  0  0
   26.0303   17.5061   12.9647 H   0  0  0  0  0  0  0  0  0  0  0  0
   24.4441   18.5929   15.1022 H   0  0  0  0  0  0  0  0  0  0  0  0
   25.5469   16.9934   16.5662 H   0  0  0  0  0  0  0  0  0  0  0  0
   27.1596   17.5296   15.9852 H   0  0  0  0  0  0  0  0  0  0  0  0
   25.0791   19.2243   17.4526 H   0  0  0  0  0  0  0  0  0  0  0  0
   26.6596   18.6239   18.0993 H   0  0  0  0  0  0  0  0  0  0  0  0
   26.8555   21.4245   15.0209 H   0  0  0  0  0  0  0  0  0  0  0  0
   23.9519   16.8687   11.5741 H   0  0  0  0  0  0  0  0  0  0  0  0
   23.7005   16.8774    9.1373 H   0  0  0  0  0  0  0  0  0  0  0  0
   21.1743   14.9074    4.9064 H   0  0  0  0  0  0  0  0  0  0  0  0
  1  2  1  0
  2  3  1  0
  3  4  2  0
  4  5  1  0
  5  6  1  0
  6  7  2  0
  6  8  2  0
  6  9  1  0
  9 10  2  0
 10 11  1  0
 11 12  2  0
 12 13  1  0
 13 14  2  0
 13 15  1  0
 15 16  2  0
 16 17  1  0
 17 18  2  0
 17 19  1  0
 19 20  1  0
 20 21  1  0
 21 22  1  0
 22 23  1  0
 23 24  2  0
 23 25  1  0
 25 26  1  0
 26 27  2  0
 16 28  1  0
 28 29  1  0
 29 30  2  0
  5 31  1  0
 31 32  2  0
 32  3  1  0
 30  9  1  0
 29 12  1  0
 26 20  1  0
  1 33  1  0
  1 34  1  0
  1 35  1  0
  2 36  1  0
  2 37  1  0
  4 38  1  0
 10 39  1  0
 11 40  1  0
 15 41  1  0
 19 42  1  0
 20 43  1  1
 21 44  1  0
 21 45  1  0
 22 46  1  0
 22 47  1  0
 25 48  1  0
 28 49  1  0
 30 50  1  0
 31 51  1  0
M  END
>  <meeko>  (1396) 
{"is_sidechain": [true], "free_energy": -10.07, "intermolecular_energy": 0.0, "internal_energy": -10.07, "cluster_size": 20, "cluster_id": 1, "rank_in_cluster": 1}

>  <_RMSD_MCS_to_ref>  (1396) 
0.9277152340861686

$$$$
ligand
     RDKit          3D

 60 64  0  0  0  0  0  0  0  0999 V2000
   18.8250   19.0170    7.5350 C   0  0  0  0  0  0  0  0  0  0  0  0
   18.5200   17.5420    7.7330 C   0  0  0  0  0  0  0  0  0  0  0  0
   19.7560   16.7240    7.8630 C   0  0  0  0  0  0  0  0  0  0  0  0
   20.1820   15.9570    8.9290 C   0  0  0  0  0  0  0  0  0  0  0  0
   21.3820   15.4460    8.5180 N   0  0  0  0  0  0  0  0  0  0  0  0
   22.2930   14.2850    9.3250 S   0  0  0  0  0  6  0  0  0  0  0  0
   23.5010   14.1700    8.5270 O   0  0  0  0  0  0  0  0  0  0  0  0
   21.3680   13.1830    9.5250 O   0  0  0  0  0  0  0  0  0  0  0  0
   22.7190   14.9670   10.9200 C   0  0  0  0  0  0  0  0  0  0  0  0
   21.7640   15.0160   11.9620 C   0  0  0  0  0  0  0  0  0  0  0  0
   22.1020   15.5550   13.2010 C   0  0  0  0  0  0  0  0  0  0  0  0
   23.3880   16.0280   13.3570 C   0  0  0  0  0  0  0  0  0  0  0  0
   24.3470   15.9930   12.3410 C   0  0  0  0  0  0  0  0  0  0  0  0
   24.0400   15.4600   11.0910 C   0  0  0  0  0  0  0  0  0  0  0  0
   24.9490   15.3930   10.0440 N   0  0  0  0  0  0  0  0  0  0  0  0
   26.3370   15.0370   10.3970 C   0  0  0  0  0  0  0  0  0  0  0  0
   27.1160   14.6380    9.1220 C   0  0  0  0  0  0  0  0  0  0  0  0
   27.0750   15.6760    8.0690 N   0  0  0  0  0  0  0  0  0  0  0  0
   25.6640   15.9920    7.7560 C   0  0  0  0  0  0  0  0  0  0  0  0
   24.8530   16.4290    8.9990 C   0  0  0  0  0  0  0  0  0  0  0  0
   25.6090   16.6110   12.8520 C   0  0  0  0  0  0  0  0  0  0  0  0
   25.3140   16.8750   14.2530 N   0  0  0  0  0  0  0  0  0  0  0  0
   26.2070   17.6880   15.0740 C   0  0  2  0  0  0  0  0  0  0  0  0
   25.7780   17.7880   16.5370 C   0  0  0  0  0  0  0  0  0  0  0  0
   26.8060   18.5990   17.3100 C   0  0  0  0  0  0  0  0  0  0  0  0
   26.9950   19.9680   16.6990 C   0  0  0  0  0  0  0  0  0  0  0  0
   27.4200   20.9210   17.3460 O   0  0  0  0  0  0  0  0  0  0  0  0
   26.7480   20.0830   15.3540 N   0  0  0  0  0  0  0  0  0  0  0  0
   26.3940   19.0890   14.4700 C   0  0  0  0  0  0  0  0  0  0  0  0
   26.3430   19.3210   13.2630 O   0  0  0  0  0  0  0  0  0  0  0  0
   23.9840   16.6390   14.5490 C   0  0  0  0  0  0  0  0  0  0  0  0
   23.3780   16.8860   15.5730 O   0  0  0  0  0  0  0  0  0  0  0  0
   21.6380   15.8740    7.2530 C   0  0  0  0  0  0  0  0  0  0  0  0
   20.6630   16.6480    6.8230 N   0  0  0  0  0  0  0  0  0  0  0  0
   18.9260   19.5054    8.5155 H   0  0  0  0  0  0  0  0  0  0  0  0
   19.7645   19.1250    6.9731 H   0  0  0  0  0  0  0  0  0  0  0  0
   18.0054   19.4887    6.9731 H   0  0  0  0  0  0  0  0  0  0  0  0
   17.9197   17.4242    8.6472 H   0  0  0  0  0  0  0  0  0  0  0  0
   17.9734   17.1886    6.8462 H   0  0  0  0  0  0  0  0  0  0  0  0
   19.6722   15.7941    9.8900 H   0  0  0  0  0  0  0  0  0  0  0  0
   20.7492   14.6265   11.7931 H   0  0  0  0  0  0  0  0  0  0  0  0
   21.3721   15.6016   14.0226 H   0  0  0  0  0  0  0  0  0  0  0  0
   26.8270   15.9015   10.8688 H   0  0  0  0  0  0  0  0  0  0  0  0
   26.3275   14.1886   11.0971 H   0  0  0  0  0  0  0  0  0  0  0  0
   28.1661   14.4577    9.3953 H   0  0  0  0  0  0  0  0  0  0  0  0
   26.6365   13.7364    8.7130 H   0  0  0  0  0  0  0  0  0  0  0  0
   27.5528   16.5252    8.4029 H   0  0  0  0  0  0  0  0  0  0  0  0
   25.6426   16.8081    7.0187 H   0  0  0  0  0  0  0  0  0  0  0  0
   25.1997   15.0743    7.3658 H   0  0  0  0  0  0  0  0  0  0  0  0
   25.2574   17.3764    9.3850 H   0  0  0  0  0  0  0  0  0  0  0  0
   23.7986   16.5654    8.7168 H   0  0  0  0  0  0  0  0  0  0  0  0
   26.4557   15.9159   12.7525 H   0  0  0  0  0  0  0  0  0  0  0  0
   25.8989   17.5154   12.2970 H   0  0  0  0  0  0  0  0  0  0  0  0
   27.1728   17.1614   15.0710 H   0  0  0  0  0  0  0  0  0  0  0  0
   24.7977   18.2832   16.5991 H   0  0  0  0  0  0  0  0  0  0  0  0
   25.7058   16.7788   16.9687 H   0  0  0  0  0  0  0  0  0  0  0  0
   26.4642   18.7141   18.3492 H   0  0  0  0  0  0  0  0  0  0  0  0
   27.7677   18.0663   17.2743 H   0  0  0  0  0  0  0  0  0  0  0  0
   26.8386   21.0292   14.9573 H   0  0  0  0  0  0  0  0  0  0  0  0
   22.5334   15.6108    6.6707 H   0  0  0  0  0  0  0  0  0  0  0  0
  1  2  1  0
  2  3  1  0
  3  4  2  0
  4  5  1  0
  5  6  1  0
  6  7  2  0
  6  8  2  0
  6  9  1  0
  9 10  2  0
 10 11  1  0
 11 12  2  0
 12 13  1  0
 13 14  2  0
 14 15  1  0
 15 16  1  0
 16 17  1  0
 17 18  1  0
 18 19  1  0
 19 20  1  0
 13 21  1  0
 21 22  1  0
 22 23  1  0
 23 24  1  0
 24 25  1  0
 25 26  1  0
 26 27  2  0
 26 28  1  0
 28 29  1  0
 29 30  2  0
 22 31  1  0
 31 32  2  0
  5 33  1  0
 33 34  2  0
 34  3  1  0
 14  9  1  0
 20 15  1  0
 29 23  1  0
 31 12  1  0
  1 35  1  0
  1 36  1  0
  1 37  1  0
  2 38  1  0
  2 39  1  0
  4 40  1  0
 10 41  1  0
 11 42  1  0
 16 43  1  0
 16 44  1  0
 17 45  1  0
 17 46  1  0
 18 47  1  0
 19 48  1  0
 19 49  1  0
 20 50  1  0
 20 51  1  0
 21 52  1  0
 21 53  1  0
 23 54  1  1
 24 55  1  0
 24 56  1  0
 25 57  1  0
 25 58  1  0
 28 59  1  0
 33 60  1  0
M  END
>  <meeko>  (1397) 
{"is_sidechain": [true], "free_energy": -10.06, "intermolecular_energy": 0.0, "internal_energy": -10.06, "cluster_size": 9, "cluster_id": 1, "rank_in_cluster": 1}

>  <_RMSD_MCS_to_ref>  (1397) 
1.111942468220177

$$$$
ligand
     RDKit          3D

 44 47  0  0  0  0  0  0  0  0999 V2000
   18.8250   19.0170    7.5350 C   0  0  0  0  0  0  0  0  0  0  0  0
   18.5200   17.5420    7.7330 C   0  0  0  0  0  0  0  0  0  0  0  0
   19.7200   16.7700    8.1560 C   0  0  0  0  0  0  0  0  0  0  0  0
   19.8910   15.9740    9.2710 C   0  0  0  0  0  0  0  0  0  0  0  0
   21.1680   15.5070    9.1550 N   0  0  0  0  0  0  0  0  0  0  0  0
   22.0090   14.5900   10.2770 S   0  0  0  0  0  6  0  0  0  0  0  0
   23.0300   13.9000    9.5090 O   0  0  0  0  0  0  0  0  0  0  0  0
   21.0150   13.8890   11.0700 O   0  0  0  0  0  0  0  0  0  0  0  0
   22.8390   15.6340   11.3780 C   0  0  0  0  0  0  0  0  0  0  0  0
   23.9290   16.3660   11.0720 N   0  0  0  0  0  0  0  0  0  0  0  0
   24.2200   16.9970   12.2270 N   0  0  0  0  0  0  0  0  0  0  0  0
   23.3760   16.6900   13.2560 C   0  0  0  0  0  0  0  0  0  0  0  0
   23.2850   17.0860   14.5810 C   0  0  0  0  0  0  0  0  0  0  0  0
   24.1150   17.9870   15.2490 N   0  0  0  0  0  0  0  0  0  0  0  0
   25.5470   17.8820   14.9170 C   0  0  2  0  0  0  0  0  0  0  0  0
   26.3690   17.5470   16.1630 C   0  0  0  0  0  0  0  0  0  0  0  0
   26.3640   18.7030   17.1530 C   0  0  0  0  0  0  0  0  0  0  0  0
   26.8300   19.9840   16.5090 C   0  0  0  0  0  0  0  0  0  0  0  0
   27.2820   20.9190   17.1630 O   0  0  0  0  0  0  0  0  0  0  0  0
   26.6750   20.0840   15.1500 N   0  0  0  0  0  0  0  0  0  0  0  0
   26.0260   19.2100   14.3140 C   0  0  0  0  0  0  0  0  0  0  0  0
   25.7770   19.5270   13.1500 O   0  0  0  0  0  0  0  0  0  0  0  0
   22.2570   16.5920   15.2960 N   0  0  0  0  0  0  0  0  0  0  0  0
   21.4000   15.7370   14.7040 C   0  0  0  0  0  0  0  0  0  0  0  0
   21.4330   15.2910   13.4410 N   0  0  0  0  0  0  0  0  0  0  0  0
   22.4530   15.8060   12.7230 C   0  0  0  0  0  0  0  0  0  0  0  0
   21.7330   16.0220    8.0320 C   0  0  0  0  0  0  0  0  0  0  0  0
   20.8760   16.7950    7.3980 N   0  0  0  0  0  0  0  0  0  0  0  0
   18.9260   19.5054    8.5155 H   0  0  0  0  0  0  0  0  0  0  0  0
   19.7645   19.1250    6.9731 H   0  0  0  0  0  0  0  0  0  0  0  0
   18.0054   19.4887    6.9731 H   0  0  0  0  0  0  0  0  0  0  0  0
   17.7440   17.4417    8.5061 H   0  0  0  0  0  0  0  0  0  0  0  0
   18.1806   17.1357    6.7688 H   0  0  0  0  0  0  0  0  0  0  0  0
   19.1644   15.7643   10.0698 H   0  0  0  0  0  0  0  0  0  0  0  0
   25.0086   17.6523   12.3249 H   0  0  0  0  0  0  0  0  0  0  0  0
   23.7533   18.6751   15.9247 H   0  0  0  0  0  0  0  0  0  0  0  0
   25.6852   17.0716   14.1861 H   0  0  0  0  0  0  0  0  0  0  0  0
   25.9397   16.6577   16.6476 H   0  0  0  0  0  0  0  0  0  0  0  0
   27.4076   17.3572   15.8544 H   0  0  0  0  0  0  0  0  0  0  0  0
   25.3410   18.8449   17.5317 H   0  0  0  0  0  0  0  0  0  0  0  0
   27.0547   18.4579   17.9732 H   0  0  0  0  0  0  0  0  0  0  0  0
   27.0949   20.9122   14.7044 H   0  0  0  0  0  0  0  0  0  0  0  0
   20.5776   15.3615   15.3306 H   0  0  0  0  0  0  0  0  0  0  0  0
   22.7620   15.8214    7.6990 H   0  0  0  0  0  0  0  0  0  0  0  0
  1  2  1  0
  2  3  1  0
  3  4  2  0
  4  5  1  0
  5  6  1  0
  6  7  2  0
  6  8  2  0
  6  9  1  0
  9 10  2  0
 10 11  1  0
 11 12  1  0
 12 13  2  0
 13 14  1  0
 14 15  1  0
 15 16  1  0
 16 17  1  0
 17 18  1  0
 18 19  2  0
 18 20  1  0
 20 21  1  0
 21 22  2  0
 13 23  1  0
 23 24  2  0
 24 25  1  0
 25 26  2  0
  5 27  1  0
 27 28  2  0
 28  3  1  0
 26  9  1  0
 26 12  1  0
 21 15  1  0
  1 29  1  0
  1 30  1  0
  1 31  1  0
  2 32  1  0
  2 33  1  0
  4 34  1  0
 11 35  1  0
 14 36  1  0
 15 37  1  6
 16 38  1  0
 16 39  1  0
 17 40  1  0
 17 41  1  0
 20 42  1  0
 24 43  1  0
 27 44  1  0
M  END
>  <meeko>  (1398) 
{"is_sidechain": [true], "free_energy": -10.06, "intermolecular_energy": 0.0, "internal_energy": -10.06, "cluster_size": 16, "cluster_id": 1, "rank_in_cluster": 1}

>  <_RMSD_MCS_to_ref>  (1398) 
0.8794266440256531

$$$$
ligand
     RDKit          3D

 56 60  0  0  0  0  0  0  0  0999 V2000
   18.7970   18.8170    7.7190 C   0  0  0  0  0  0  0  0  0  0  0  0
   18.5280   17.3290    7.8810 C   0  0  0  0  0  0  0  0  0  0  0  0
   19.7850   16.5360    7.9550 C   0  0  0  0  0  0  0  0  0  0  0  0
   20.6370   16.3560    9.0260 C   0  0  0  0  0  0  0  0  0  0  0  0
   21.6320   15.5580    8.5330 N   0  0  0  0  0  0  0  0  0  0  0  0
   22.8740   14.8640    9.4340 S   0  0  0  0  0  6  0  0  0  0  0  0
   22.9000   15.6740   10.6380 O   0  0  0  0  0  0  0  0  0  0  0  0
   23.9930   14.7640    8.5170 O   0  0  0  0  0  0  0  0  0  0  0  0
   22.3470   13.2170    9.8570 C   0  0  0  0  0  0  0  0  0  0  0  0
   21.7950   12.4140    8.8390 C   0  0  0  0  0  0  0  0  0  0  0  0
   21.2040   11.1870    9.1360 C   0  0  0  0  0  0  0  0  0  0  0  0
   21.1280   10.7580   10.4530 C   0  0  0  0  0  0  0  0  0  0  0  0
   21.6840   11.5340   11.4790 C   0  0  0  0  0  0  0  0  0  0  0  0
   22.3760   12.7500   11.1860 C   0  0  0  0  0  0  0  0  0  0  0  0
   23.0360   13.3770   12.3560 C   0  0  0  0  0  0  0  0  0  0  0  0
   24.4710   14.2920   12.3220 S   0  0  0  0  0  0  0  0  0  0  0  0
   24.4700   14.5330   14.0160 C   0  0  0  0  0  0  0  0  0  0  0  0
   25.4630   15.3580   14.6890 C   0  0  0  0  0  0  0  0  0  0  0  0
   26.4460   14.8880   15.2620 O   0  0  0  0  0  0  0  0  0  0  0  0
   25.2520   16.7180   14.6490 N   0  0  0  0  0  0  0  0  0  0  0  0
   26.2130   17.6690   15.1790 C   0  0  2  0  0  0  0  0  0  0  0  0
   26.2760   17.6280   16.7030 C   0  0  0  0  0  0  0  0  0  0  0  0
   27.2800   18.6570   17.1970 C   0  0  0  0  0  0  0  0  0  0  0  0
   26.9480   20.0390   16.6850 C   0  0  0  0  0  0  0  0  0  0  0  0
   27.1810   21.0560   17.3330 O   0  0  0  0  0  0  0  0  0  0  0  0
   26.3970   20.1140   15.4300 N   0  0  0  0  0  0  0  0  0  0  0  0
   25.8220   19.0810   14.7320 C   0  0  0  0  0  0  0  0  0  0  0  0
   25.0570   19.3000   13.7950 O   0  0  0  0  0  0  0  0  0  0  0  0
   23.4460   13.8240   14.6140 C   0  0  0  0  0  0  0  0  0  0  0  0
   22.6530   13.1200   13.6630 C   0  0  0  0  0  0  0  0  0  0  0  0
   21.5370   12.1680   13.9430 C   0  0  0  0  0  0  0  0  0  0  0  0
   21.5740   11.0240   12.9130 C   0  0  0  0  0  0  0  0  0  0  0  0
   21.3690   15.2710    7.2320 C   0  0  0  0  0  0  0  0  0  0  0  0
   20.2440   15.8410    6.8530 N   0  0  0  0  0  0  0  0  0  0  0  0
   18.8815   19.2845    8.7111 H   0  0  0  0  0  0  0  0  0  0  0  0
   19.7359   18.9616    7.1643 H   0  0  0  0  0  0  0  0  0  0  0  0
   17.9682   19.2812    7.1643 H   0  0  0  0  0  0  0  0  0  0  0  0
   17.9545   17.1712    8.8063 H   0  0  0  0  0  0  0  0  0  0  0  0
   17.9655   16.9892    6.9989 H   0  0  0  0  0  0  0  0  0  0  0  0
   20.5381   16.7618   10.0436 H   0  0  0  0  0  0  0  0  0  0  0  0
   21.8310   12.7603    7.7955 H   0  0  0  0  0  0  0  0  0  0  0  0
   20.7988   10.5603    8.3279 H   0  0  0  0  0  0  0  0  0  0  0  0
   20.6303    9.8067   10.6925 H   0  0  0  0  0  0  0  0  0  0  0  0
   24.3817   17.0735   14.2282 H   0  0  0  0  0  0  0  0  0  0  0  0
   27.2058   17.3969   14.7913 H   0  0  0  0  0  0  0  0  0  0  0  0
   25.2829   17.8565   17.1172 H   0  0  0  0  0  0  0  0  0  0  0  0
   26.5880   16.6252   17.0300 H   0  0  0  0  0  0  0  0  0  0  0  0
   27.2678   18.6700   18.2969 H   0  0  0  0  0  0  0  0  0  0  0  0
   28.2757   18.3780   16.8217 H   0  0  0  0  0  0  0  0  0  0  0  0
   26.4168   21.0340   14.9673 H   0  0  0  0  0  0  0  0  0  0  0  0
   23.2642   13.8054   15.6987 H   0  0  0  0  0  0  0  0  0  0  0  0
   21.6520   11.7545   14.9558 H   0  0  0  0  0  0  0  0  0  0  0  0
   20.5750   12.6967   13.8723 H   0  0  0  0  0  0  0  0  0  0  0  0
   22.4423   10.3837   13.1276 H   0  0  0  0  0  0  0  0  0  0  0  0
   20.6300   10.4659   12.9984 H   0  0  0  0  0  0  0  0  0  0  0  0
   22.0062   14.6497    6.5855 H   0  0  0  0  0  0  0  0  0  0  0  0
  1  2  1  0
  2  3  1  0
  3  4  2  0
  4  5  1  0
  5  6  1  0
  6  7  2  0
  6  8  2  0
  6  9  1  0
  9 10  2  0
 10 11  1  0
 11 12  2  0
 12 13  1  0
 13 14  2  0
 14 15  1  0
 15 16  1  0
 16 17  1  0
 17 18  1  0
 18 19  2  0
 18 20  1  0
 20 21  1  0
 21 22  1  0
 22 23  1  0
 23 24  1  0
 24 25  2  0
 24 26  1  0
 26 27  1  0
 27 28  2  0
 17 29  2  0
 29 30  1  0
 30 31  1  0
 31 32  1  0
  5 33  1  0
 33 34  2  0
 34  3  1  0
 14  9  1  0
 30 15  2  0
 32 13  1  0
 27 21  1  0
  1 35  1  0
  1 36  1  0
  1 37  1  0
  2 38  1  0
  2 39  1  0
  4 40  1  0
 10 41  1  0
 11 42  1  0
 12 43  1  0
 20 44  1  0
 21 45  1  6
 22 46  1  0
 22 47  1  0
 23 48  1  0
 23 49  1  0
 26 50  1  0
 29 51  1  0
 31 52  1  0
 31 53  1  0
 32 54  1  0
 32 55  1  0
 33 56  1  0
M  END
>  <meeko>  (1399) 
{"is_sidechain": [true], "free_energy": -10.06, "intermolecular_energy": 0.0, "internal_energy": -10.06, "cluster_size": 5, "cluster_id": 1, "rank_in_cluster": 1}

>  <_RMSD_MCS_to_ref>  (1399) 
0.8301861906290122

$$$$
ligand
     RDKit          3D

 48 51  0  0  0  0  0  0  0  0999 V2000
   18.7970   18.8170    7.7190 C   0  0  0  0  0  0  0  0  0  0  0  0
   18.5280   17.3290    7.8810 C   0  0  0  0  0  0  0  0  0  0  0  0
   19.7440   16.5070    7.6370 C   0  0  0  0  0  0  0  0  0  0  0  0
   20.2820   15.5010    8.4150 C   0  0  0  0  0  0  0  0  0  0  0  0
   21.3760   15.0830    7.7110 N   0  0  0  0  0  0  0  0  0  0  0  0
   22.4450   13.8780    8.1860 S   0  0  0  0  0  6  0  0  0  0  0  0
   22.9920   13.3020    6.9740 O   0  0  0  0  0  0  0  0  0  0  0  0
   21.6930   13.0790    9.1380 O   0  0  0  0  0  0  0  0  0  0  0  0
   23.7350   14.6580    9.0600 C   0  0  0  0  0  0  0  0  0  0  0  0
   24.8940   15.1170    8.3890 C   0  0  0  0  0  0  0  0  0  0  0  0
   25.9700   15.7680    9.0600 C   0  0  0  0  0  0  0  0  0  0  0  0
   25.9980   16.0120   10.4490 C   0  0  0  0  0  0  0  0  0  0  0  0
   24.8520   15.5360   11.0910 C   0  0  0  0  0  0  0  0  0  0  0  0
   24.5570   15.6060   12.4360 C   0  0  0  0  0  0  0  0  0  0  0  0
   25.2160   16.0780   13.6220 C   0  0  0  0  0  0  0  0  0  0  0  0
   25.5230   15.3210   14.5380 O   0  0  0  0  0  0  0  0  0  0  0  0
   25.5430   17.4110   13.6450 N   0  0  0  0  0  0  0  0  0  0  0  0
   26.3610   17.9750   14.7100 C   0  0  2  0  0  0  0  0  0  0  0  0
   25.6910   17.8660   16.0750 C   0  0  0  0  0  0  0  0  0  0  0  0
   26.5730   18.5190   17.1270 C   0  0  0  0  0  0  0  0  0  0  0  0
   26.8860   19.9530   16.7670 C   0  0  0  0  0  0  0  0  0  0  0  0
   27.0220   20.8310   17.6130 O   0  0  0  0  0  0  0  0  0  0  0  0
   27.0450   20.2300   15.4330 N   0  0  0  0  0  0  0  0  0  0  0  0
   26.6050   19.4530   14.3920 C   0  0  0  0  0  0  0  0  0  0  0  0
   26.4340   19.9240   13.2670 O   0  0  0  0  0  0  0  0  0  0  0  0
   23.2880   15.0890   12.5170 N   0  0  0  0  0  0  0  0  0  0  0  0
   22.7890   14.6160   11.3630 N   0  0  0  0  0  0  0  0  0  0  0  0
   23.7230   14.8890   10.4420 C   0  0  0  0  0  0  0  0  0  0  0  0
   21.4920   15.8300    6.5830 C   0  0  0  0  0  0  0  0  0  0  0  0
   20.5040   16.7000    6.5000 N   0  0  0  0  0  0  0  0  0  0  0  0
   18.8815   19.2845    8.7111 H   0  0  0  0  0  0  0  0  0  0  0  0
   19.7359   18.9616    7.1643 H   0  0  0  0  0  0  0  0  0  0  0  0
   17.9682   19.2812    7.1643 H   0  0  0  0  0  0  0  0  0  0  0  0
   18.1745   17.1427    8.9058 H   0  0  0  0  0  0  0  0  0  0  0  0
   17.7710   17.0403    7.1370 H   0  0  0  0  0  0  0  0  0  0  0  0
   19.9142   15.1228    9.3802 H   0  0  0  0  0  0  0  0  0  0  0  0
   24.9674   14.9646    7.3021 H   0  0  0  0  0  0  0  0  0  0  0  0
   26.8295   16.0998    8.4590 H   0  0  0  0  0  0  0  0  0  0  0  0
   26.8260   16.5183   10.9667 H   0  0  0  0  0  0  0  0  0  0  0  0
   25.2023   18.0261   12.8923 H   0  0  0  0  0  0  0  0  0  0  0  0
   27.3027   17.4085   14.7586 H   0  0  0  0  0  0  0  0  0  0  0  0
   24.7163   18.3751   16.0466 H   0  0  0  0  0  0  0  0  0  0  0  0
   25.5440   16.8055   16.3272 H   0  0  0  0  0  0  0  0  0  0  0  0
   26.0514   18.4982   18.0952 H   0  0  0  0  0  0  0  0  0  0  0  0
   27.5189   17.9603   17.1828 H   0  0  0  0  0  0  0  0  0  0  0  0
   27.5397   21.1005   15.1912 H   0  0  0  0  0  0  0  0  0  0  0  0
   22.7567   15.0654   13.3991 H   0  0  0  0  0  0  0  0  0  0  0  0
   22.2977   15.7243    5.8416 H   0  0  0  0  0  0  0  0  0  0  0  0
  1  2  1  0
  2  3  1  0
  3  4  2  0
  4  5  1  0
  5  6  1  0
  6  7  2  0
  6  8  2  0
  6  9  1  0
  9 10  2  0
 10 11  1  0
 11 12  2  0
 12 13  1  0
 13 14  2  0
 14 15  1  0
 15 16  2  0
 15 17  1  0
 17 18  1  0
 18 19  1  0
 19 20  1  0
 20 21  1  0
 21 22  2  0
 21 23  1  0
 23 24  1  0
 24 25  2  0
 14 26  1  0
 26 27  1  0
 27 28  2  0
  5 29  1  0
 29 30  2  0
 30  3  1  0
 28  9  1  0
 28 13  1  0
 24 18  1  0
  1 31  1  0
  1 32  1  0
  1 33  1  0
  2 34  1  0
  2 35  1  0
  4 36  1  0
 10 37  1  0
 11 38  1  0
 12 39  1  0
 17 40  1  0
 18 41  1  1
 19 42  1  0
 19 43  1  0
 20 44  1  0
 20 45  1  0
 23 46  1  0
 26 47  1  0
 29 48  1  0
M  END
>  <meeko>  (1400) 
{"is_sidechain": [true], "free_energy": -10.06, "intermolecular_energy": 0.0, "internal_energy": -10.06, "cluster_size": 17, "cluster_id": 1, "rank_in_cluster": 1}

>  <_RMSD_MCS_to_ref>  (1400) 
0.9515156330822949

$$$$
ligand
     RDKit          3D

 48 51  0  0  0  0  0  0  0  0999 V2000
   18.7970   18.8170    7.7190 C   0  0  0  0  0  0  0  0  0  0  0  0
   18.5280   17.3290    7.8810 C   0  0  0  0  0  0  0  0  0  0  0  0
   19.7490   16.5660    8.2560 C   0  0  0  0  0  0  0  0  0  0  0  0
   19.9680   15.7880    9.3760 C   0  0  0  0  0  0  0  0  0  0  0  0
   21.2430   15.3210    9.2200 N   0  0  0  0  0  0  0  0  0  0  0  0
   22.0050   14.1860   10.2010 S   0  0  0  0  0  6  0  0  0  0  0  0
   21.8860   14.6930   11.5550 O   0  0  0  0  0  0  0  0  0  0  0  0
   21.4340   12.9090    9.8080 O   0  0  0  0  0  0  0  0  0  0  0  0
   23.7130   14.1530    9.7840 C   0  0  0  0  0  0  0  0  0  0  0  0
   24.1590   13.1920    8.8610 C   0  0  0  0  0  0  0  0  0  0  0  0
   25.5120   13.1140    8.5140 C   0  0  0  0  0  0  0  0  0  0  0  0
   26.4590   13.9800    9.0740 C   0  0  0  0  0  0  0  0  0  0  0  0
   25.9860   14.9260    9.9860 C   0  0  0  0  0  0  0  0  0  0  0  0
   26.6170   15.8990   10.7220 N   0  0  0  0  0  0  0  0  0  0  0  0
   25.6690   16.5520   11.4670 C   0  0  0  0  0  0  0  0  0  0  0  0
   25.9250   17.6300   12.4000 C   0  0  0  0  0  0  0  0  0  0  0  0
   26.9340   18.3280   12.3610 O   0  0  0  0  0  0  0  0  0  0  0  0
   24.9230   17.7870   13.3370 N   0  0  0  0  0  0  0  0  0  0  0  0
   25.1690   18.4820   14.5840 C   0  0  1  0  0  0  0  0  0  0  0  0
   26.2760   17.7970   15.3760 C   0  0  0  0  0  0  0  0  0  0  0  0
   26.5210   18.5530   16.6710 C   0  0  0  0  0  0  0  0  0  0  0  0
   26.8450   20.0040   16.4060 C   0  0  0  0  0  0  0  0  0  0  0  0
   27.5750   20.6580   17.1460 O   0  0  0  0  0  0  0  0  0  0  0  0
   26.2460   20.5790   15.3140 N   0  0  0  0  0  0  0  0  0  0  0  0
   25.5790   19.9360   14.2970 C   0  0  0  0  0  0  0  0  0  0  0  0
   25.3140   20.5310   13.2540 O   0  0  0  0  0  0  0  0  0  0  0  0
   24.4710   16.0450   11.2430 N   0  0  0  0  0  0  0  0  0  0  0  0
   24.6440   15.0320   10.3420 C   0  0  0  0  0  0  0  0  0  0  0  0
   21.7530   15.8090    8.0560 C   0  0  0  0  0  0  0  0  0  0  0  0
   20.8580   16.5490    7.4280 N   0  0  0  0  0  0  0  0  0  0  0  0
   18.8815   19.2845    8.7111 H   0  0  0  0  0  0  0  0  0  0  0  0
   19.7359   18.9616    7.1643 H   0  0  0  0  0  0  0  0  0  0  0  0
   17.9682   19.2812    7.1643 H   0  0  0  0  0  0  0  0  0  0  0  0
   17.7708   17.1911    8.6669 H   0  0  0  0  0  0  0  0  0  0  0  0
   18.1792   16.9452    6.9109 H   0  0  0  0  0  0  0  0  0  0  0  0
   19.2736   15.5893   10.2056 H   0  0  0  0  0  0  0  0  0  0  0  0
   23.4385   12.4954    8.4076 H   0  0  0  0  0  0  0  0  0  0  0  0
   25.8386   12.3567    7.7862 H   0  0  0  0  0  0  0  0  0  0  0  0
   27.5246   13.9182    8.8083 H   0  0  0  0  0  0  0  0  0  0  0  0
   27.6266   16.1027   10.7154 H   0  0  0  0  0  0  0  0  0  0  0  0
   23.9861   17.4040   13.1463 H   0  0  0  0  0  0  0  0  0  0  0  0
   24.2430   18.4637   15.1775 H   0  0  0  0  0  0  0  0  0  0  0  0
   25.9755   16.7643   15.6066 H   0  0  0  0  0  0  0  0  0  0  0  0
   27.1997   17.7879   14.7787 H   0  0  0  0  0  0  0  0  0  0  0  0
   25.6175   18.4959   17.2958 H   0  0  0  0  0  0  0  0  0  0  0  0
   27.3786   18.0937   17.1844 H   0  0  0  0  0  0  0  0  0  0  0  0
   26.3018   21.6054   15.2483 H   0  0  0  0  0  0  0  0  0  0  0  0
   22.7714   15.6135    7.6889 H   0  0  0  0  0  0  0  0  0  0  0  0
  1  2  1  0
  2  3  1  0
  3  4  2  0
  4  5  1  0
  5  6  1  0
  6  7  2  0
  6  8  2  0
  6  9  1  0
  9 10  2  0
 10 11  1  0
 11 12  2  0
 12 13  1  0
 13 14  1  0
 14 15  1  0
 15 16  1  0
 16 17  2  0
 16 18  1  0
 18 19  1  0
 19 20  1  0
 20 21  1  0
 21 22  1  0
 22 23  2  0
 22 24  1  0
 24 25  1  0
 25 26  2  0
 15 27  2  0
 27 28  1  0
  5 29  1  0
 29 30  2  0
 30  3  1  0
 28  9  1  0
 28 13  2  0
 25 19  1  0
  1 31  1  0
  1 32  1  0
  1 33  1  0
  2 34  1  0
  2 35  1  0
  4 36  1  0
 10 37  1  0
 11 38  1  0
 12 39  1  0
 14 40  1  0
 18 41  1  0
 19 42  1  1
 20 43  1  0
 20 44  1  0
 21 45  1  0
 21 46  1  0
 24 47  1  0
 29 48  1  0
M  END
>  <meeko>  (1401) 
{"is_sidechain": [true], "free_energy": -10.06, "intermolecular_energy": 0.0, "internal_energy": -10.06, "cluster_size": 4, "cluster_id": 1, "rank_in_cluster": 1}

>  <_RMSD_MCS_to_ref>  (1401) 
0.47738651938328613

$$$$
ligand
     RDKit          3D

 47 50  0  0  0  0  0  0  0  0999 V2000
   18.7970   18.8170    7.7190 C   0  0  0  0  0  0  0  0  0  0  0  0
   18.5280   17.3290    7.8810 C   0  0  0  0  0  0  0  0  0  0  0  0
   19.6120   16.4950    7.2970 C   0  0  0  0  0  0  0  0  0  0  0  0
   20.7770   16.0440    7.8880 C   0  0  0  0  0  0  0  0  0  0  0  0
   21.3880   15.3140    6.9090 N   0  0  0  0  0  0  0  0  0  0  0  0
   22.9550   14.7100    6.9690 S   0  0  0  0  0  6  0  0  0  0  0  0
   23.8020   15.7610    6.4430 O   0  0  0  0  0  0  0  0  0  0  0  0
   22.8960   13.3890    6.3750 O   0  0  0  0  0  0  0  0  0  0  0  0
   23.2690   14.5330    8.6890 C   0  0  0  0  0  0  0  0  0  0  0  0
   22.7330   13.4450    9.3690 C   0  0  0  0  0  0  0  0  0  0  0  0
   22.9070   13.1950   10.6900 N   0  0  0  0  0  0  0  0  0  0  0  0
   23.6550   14.1200   11.3430 C   0  0  0  0  0  0  0  0  0  0  0  0
   24.0420   14.1980   12.6960 C   0  0  0  0  0  0  0  0  0  0  0  0
   24.7970   15.3510   12.8240 C   0  0  0  0  0  0  0  0  0  0  0  0
   25.4510   15.9280   13.9780 C   0  0  0  0  0  0  0  0  0  0  0  0
   25.7430   15.2910   14.9850 O   0  0  0  0  0  0  0  0  0  0  0  0
   25.7380   17.2680   13.8540 N   0  0  0  0  0  0  0  0  0  0  0  0
   26.5370   17.9860   14.8320 C   0  0  2  0  0  0  0  0  0  0  0  0
   26.0080   17.8060   16.2500 C   0  0  0  0  0  0  0  0  0  0  0  0
   26.8660   18.6080   17.2170 C   0  0  0  0  0  0  0  0  0  0  0  0
   26.9270   20.0630   16.8190 C   0  0  0  0  0  0  0  0  0  0  0  0
   27.0020   20.9690   17.6440 O   0  0  0  0  0  0  0  0  0  0  0  0
   26.9270   20.3330   15.4740 N   0  0  0  0  0  0  0  0  0  0  0  0
   26.5240   19.4760   14.4790 C   0  0  0  0  0  0  0  0  0  0  0  0
   26.1890   19.8990   13.3720 O   0  0  0  0  0  0  0  0  0  0  0  0
   24.8930   15.9860   11.6080 O   0  0  0  0  0  0  0  0  0  0  0  0
   24.1980   15.2330   10.7150 C   0  0  0  0  0  0  0  0  0  0  0  0
   24.0280   15.4930    9.3640 C   0  0  0  0  0  0  0  0  0  0  0  0
   20.6400   15.3690    5.7780 C   0  0  0  0  0  0  0  0  0  0  0  0
   19.5470   16.0740    5.9840 N   0  0  0  0  0  0  0  0  0  0  0  0
   18.8815   19.2845    8.7111 H   0  0  0  0  0  0  0  0  0  0  0  0
   19.7359   18.9616    7.1643 H   0  0  0  0  0  0  0  0  0  0  0  0
   17.9682   19.2812    7.1643 H   0  0  0  0  0  0  0  0  0  0  0  0
   18.4430   17.0991    8.9533 H   0  0  0  0  0  0  0  0  0  0  0  0
   17.5960   17.0942    7.3459 H   0  0  0  0  0  0  0  0  0  0  0  0
   21.1311   16.2304    8.9126 H   0  0  0  0  0  0  0  0  0  0  0  0
   22.1226   12.7345    8.7923 H   0  0  0  0  0  0  0  0  0  0  0  0
   23.7929   13.4828   13.4938 H   0  0  0  0  0  0  0  0  0  0  0  0
   25.3732   17.7804   13.0384 H   0  0  0  0  0  0  0  0  0  0  0  0
   27.5585   17.5791   14.8020 H   0  0  0  0  0  0  0  0  0  0  0  0
   24.9682   18.1611   16.3013 H   0  0  0  0  0  0  0  0  0  0  0  0
   26.0457   16.7411   16.5230 H   0  0  0  0  0  0  0  0  0  0  0  0
   26.4361   18.5304   18.2265 H   0  0  0  0  0  0  0  0  0  0  0  0
   27.8870   18.1993   17.1963 H   0  0  0  0  0  0  0  0  0  0  0  0
   27.2596   21.2636   15.1836 H   0  0  0  0  0  0  0  0  0  0  0  0
   24.4532   16.3773    8.8668 H   0  0  0  0  0  0  0  0  0  0  0  0
   20.9088   14.8920    4.8239 H   0  0  0  0  0  0  0  0  0  0  0  0
  1  2  1  0
  2  3  1  0
  3  4  2  0
  4  5  1  0
  5  6  1  0
  6  7  2  0
  6  8  2  0
  6  9  1  0
  9 10  2  0
 10 11  1  0
 11 12  2  0
 12 13  1  0
 13 14  2  0
 14 15  1  0
 15 16  2  0
 15 17  1  0
 17 18  1  0
 18 19  1  0
 19 20  1  0
 20 21  1  0
 21 22  2  0
 21 23  1  0
 23 24  1  0
 24 25  2  0
 14 26  1  0
 26 27  1  0
 27 28  2  0
  5 29  1  0
 29 30  2  0
 30  3  1  0
 28  9  1  0
 27 12  1  0
 24 18  1  0
  1 31  1  0
  1 32  1  0
  1 33  1  0
  2 34  1  0
  2 35  1  0
  4 36  1  0
 10 37  1  0
 13 38  1  0
 17 39  1  0
 18 40  1  1
 19 41  1  0
 19 42  1  0
 20 43  1  0
 20 44  1  0
 23 45  1  0
 28 46  1  0
 29 47  1  0
M  END
>  <meeko>  (1402) 
{"is_sidechain": [true], "free_energy": -10.06, "intermolecular_energy": 0.0, "internal_energy": -10.06, "cluster_size": 16, "cluster_id": 1, "rank_in_cluster": 1}

>  <_RMSD_MCS_to_ref>  (1402) 
0.939079691329051

$$$$
ligand
     RDKit          3D

 50 53  0  0  0  0  0  0  0  0999 V2000
   18.7970   18.8170    7.7190 C   0  0  0  0  0  0  0  0  0  0  0  0
   18.5280   17.3290    7.8810 C   0  0  0  0  0  0  0  0  0  0  0  0
   19.7550   16.5110    7.6870 C   0  0  0  0  0  0  0  0  0  0  0  0
   20.3110   15.5680    8.5300 C   0  0  0  0  0  0  0  0  0  0  0  0
   21.4130   15.1260    7.8540 N   0  0  0  0  0  0  0  0  0  0  0  0
   22.4890   13.9540    8.3950 S   0  0  0  0  0  6  0  0  0  0  0  0
   23.8220   14.5190    8.3060 O   0  0  0  0  0  0  0  0  0  0  0  0
   22.1190   12.7670    7.6420 O   0  0  0  0  0  0  0  0  0  0  0  0
   22.1200   13.6410   10.0930 C   0  0  0  0  0  0  0  0  0  0  0  0
   21.0290   12.8050   10.3820 C   0  0  0  0  0  0  0  0  0  0  0  0
   20.7000   12.5320   11.7040 C   0  0  0  0  0  0  0  0  0  0  0  0
   21.4600   13.0910   12.7260 C   0  0  0  0  0  0  0  0  0  0  0  0
   22.5560   13.9230   12.4330 C   0  0  0  0  0  0  0  0  0  0  0  0
   23.3230   14.4830   13.4680 C   0  0  0  0  0  0  0  0  0  0  0  0
   24.4050   15.3070   13.1660 C   0  0  0  0  0  0  0  0  0  0  0  0
   25.2730   15.9370   14.1890 C   0  0  0  0  0  0  0  0  0  0  0  0
   25.8700   15.2430   15.0020 O   0  0  0  0  0  0  0  0  0  0  0  0
   25.3870   17.3090   14.1510 N   0  0  0  0  0  0  0  0  0  0  0  0
   26.3340   18.0060   15.0130 C   0  0  2  0  0  0  0  0  0  0  0  0
   25.9650   17.9010   16.4880 C   0  0  0  0  0  0  0  0  0  0  0  0
   26.9650   18.6890   17.3190 C   0  0  0  0  0  0  0  0  0  0  0  0
   27.0470   20.1260   16.8590 C   0  0  0  0  0  0  0  0  0  0  0  0
   27.2440   21.0570   17.6350 O   0  0  0  0  0  0  0  0  0  0  0  0
   26.9170   20.3490   15.5130 N   0  0  0  0  0  0  0  0  0  0  0  0
   26.3530   19.4840   14.6090 C   0  0  0  0  0  0  0  0  0  0  0  0
   25.8990   19.8830   13.5370 O   0  0  0  0  0  0  0  0  0  0  0  0
   24.6890   15.5180   11.8290 C   0  0  0  0  0  0  0  0  0  0  0  0
   23.9630   14.9920   10.8100 N   0  0  0  0  0  0  0  0  0  0  0  0
   22.9070   14.2070   11.0910 C   0  0  0  0  0  0  0  0  0  0  0  0
   21.5020   15.7800    6.6670 C   0  0  0  0  0  0  0  0  0  0  0  0
   20.5050   16.6340    6.5350 N   0  0  0  0  0  0  0  0  0  0  0  0
   18.8815   19.2845    8.7111 H   0  0  0  0  0  0  0  0  0  0  0  0
   19.7359   18.9616    7.1643 H   0  0  0  0  0  0  0  0  0  0  0  0
   17.9682   19.2812    7.1643 H   0  0  0  0  0  0  0  0  0  0  0  0
   18.1381   17.1478    8.8935 H   0  0  0  0  0  0  0  0  0  0  0  0
   17.7996   17.0322    7.1120 H   0  0  0  0  0  0  0  0  0  0  0  0
   19.9496   15.2470    9.5181 H   0  0  0  0  0  0  0  0  0  0  0  0
   20.4370   12.3679    9.5644 H   0  0  0  0  0  0  0  0  0  0  0  0
   19.8463   11.8798   11.9402 H   0  0  0  0  0  0  0  0  0  0  0  0
   21.2014   12.8804   13.7742 H   0  0  0  0  0  0  0  0  0  0  0  0
   23.0693   14.2709   14.5171 H   0  0  0  0  0  0  0  0  0  0  0  0
   24.7951   17.8501   13.5047 H   0  0  0  0  0  0  0  0  0  0  0  0
   27.3210   17.5372   14.8862 H   0  0  0  0  0  0  0  0  0  0  0  0
   24.9560   18.3105   16.6434 H   0  0  0  0  0  0  0  0  0  0  0  0
   25.9842   16.8452   16.7961 H   0  0  0  0  0  0  0  0  0  0  0  0
   26.6514   18.6672   18.3731 H   0  0  0  0  0  0  0  0  0  0  0  0
   27.9566   18.2282   17.1992 H   0  0  0  0  0  0  0  0  0  0  0  0
   27.2737   21.2437   15.1481 H   0  0  0  0  0  0  0  0  0  0  0  0
   25.5539   16.1491   11.5767 H   0  0  0  0  0  0  0  0  0  0  0  0
   22.2940   15.6201    5.9206 H   0  0  0  0  0  0  0  0  0  0  0  0
  1  2  1  0
  2  3  1  0
  3  4  2  0
  4  5  1  0
  5  6  1  0
  6  7  2  0
  6  8  2  0
  6  9  1  0
  9 10  2  0
 10 11  1  0
 11 12  2  0
 12 13  1  0
 13 14  2  0
 14 15  1  0
 15 16  1  0
 16 17  2  0
 16 18  1  0
 18 19  1  0
 19 20  1  0
 20 21  1  0
 21 22  1  0
 22 23  2  0
 22 24  1  0
 24 25  1  0
 25 26  2  0
 15 27  2  0
 27 28  1  0
 28 29  2  0
  5 30  1  0
 30 31  2  0
 31  3  1  0
 29  9  1  0
 29 13  1  0
 25 19  1  0
  1 32  1  0
  1 33  1  0
  1 34  1  0
  2 35  1  0
  2 36  1  0
  4 37  1  0
 10 38  1  0
 11 39  1  0
 12 40  1  0
 14 41  1  0
 18 42  1  0
 19 43  1  1
 20 44  1  0
 20 45  1  0
 21 46  1  0
 21 47  1  0
 24 48  1  0
 27 49  1  0
 30 50  1  0
M  END
>  <meeko>  (1403) 
{"is_sidechain": [true], "free_energy": -10.06, "intermolecular_energy": 0.0, "internal_energy": -10.06, "cluster_size": 17, "cluster_id": 1, "rank_in_cluster": 1}

>  <_RMSD_MCS_to_ref>  (1403) 
0.8221165097208277

$$$$
ligand
     RDKit          3D

 50 53  0  0  0  0  0  0  0  0999 V2000
   18.7970   18.8170    7.7190 C   0  0  0  0  0  0  0  0  0  0  0  0
   18.5280   17.3290    7.8810 C   0  0  0  0  0  0  0  0  0  0  0  0
   19.7640   16.5150    7.7340 C   0  0  0  0  0  0  0  0  0  0  0  0
   20.2150   15.4670    8.5130 C   0  0  0  0  0  0  0  0  0  0  0  0
   21.3950   15.1010    7.9320 N   0  0  0  0  0  0  0  0  0  0  0  0
   22.3030   13.7430    8.3210 S   0  0  0  0  0  6  0  0  0  0  0  0
   23.6790   14.1310    8.0740 O   0  0  0  0  0  0  0  0  0  0  0  0
   21.6680   12.6500    7.6100 O   0  0  0  0  0  0  0  0  0  0  0  0
   22.1330   13.4340   10.0470 C   0  0  0  0  0  0  0  0  0  0  0  0
   21.1860   12.5300   10.5060 C   0  0  0  0  0  0  0  0  0  0  0  0
   20.9980   12.2480   11.8120 N   0  0  0  0  0  0  0  0  0  0  0  0
   21.7900   12.8920   12.6970 C   0  0  0  0  0  0  0  0  0  0  0  0
   22.7760   13.8160   12.3500 C   0  0  0  0  0  0  0  0  0  0  0  0
   23.5620   14.4420   13.3350 C   0  0  0  0  0  0  0  0  0  0  0  0
   24.5550   15.3620   12.9860 C   0  0  0  0  0  0  0  0  0  0  0  0
   25.3470   15.9930   14.0790 C   0  0  0  0  0  0  0  0  0  0  0  0
   25.8060   15.3080   14.9840 O   0  0  0  0  0  0  0  0  0  0  0  0
   25.5550   17.3510   13.9890 N   0  0  0  0  0  0  0  0  0  0  0  0
   26.4420   18.0370   14.9200 C   0  0  2  0  0  0  0  0  0  0  0  0
   25.9650   17.9230   16.3640 C   0  0  0  0  0  0  0  0  0  0  0  0
   26.9100   18.6920   17.2730 C   0  0  0  0  0  0  0  0  0  0  0  0
   27.0420   20.1330   16.8350 C   0  0  0  0  0  0  0  0  0  0  0  0
   27.2060   21.0510   17.6320 O   0  0  0  0  0  0  0  0  0  0  0  0
   26.9990   20.3710   15.4850 N   0  0  0  0  0  0  0  0  0  0  0  0
   26.5040   19.5170   14.5310 C   0  0  0  0  0  0  0  0  0  0  0  0
   26.1480   19.9300   13.4280 O   0  0  0  0  0  0  0  0  0  0  0  0
   24.7490   15.6760   11.6410 C   0  0  0  0  0  0  0  0  0  0  0  0
   23.9700   15.0570   10.6560 C   0  0  0  0  0  0  0  0  0  0  0  0
   22.9650   14.1080   10.9790 C   0  0  0  0  0  0  0  0  0  0  0  0
   21.6210   15.8840    6.8460 C   0  0  0  0  0  0  0  0  0  0  0  0
   20.6430   16.7520    6.6940 N   0  0  0  0  0  0  0  0  0  0  0  0
   18.8815   19.2845    8.7111 H   0  0  0  0  0  0  0  0  0  0  0  0
   19.7359   18.9616    7.1643 H   0  0  0  0  0  0  0  0  0  0  0  0
   17.9682   19.2812    7.1643 H   0  0  0  0  0  0  0  0  0  0  0  0
   18.1045   17.1524    8.8807 H   0  0  0  0  0  0  0  0  0  0  0  0
   17.8273   17.0246    7.0896 H   0  0  0  0  0  0  0  0  0  0  0  0
   19.7334   15.0277    9.3990 H   0  0  0  0  0  0  0  0  0  0  0  0
   20.5550   12.0159    9.7660 H   0  0  0  0  0  0  0  0  0  0  0  0
   21.6475   12.6726   13.7654 H   0  0  0  0  0  0  0  0  0  0  0  0
   23.3926   14.2039   14.3955 H   0  0  0  0  0  0  0  0  0  0  0  0
   25.0768   17.8900   13.2530 H   0  0  0  0  0  0  0  0  0  0  0  0
   27.4330   17.5635   14.8591 H   0  0  0  0  0  0  0  0  0  0  0  0
   24.9518   18.3426   16.4495 H   0  0  0  0  0  0  0  0  0  0  0  0
   25.9503   16.8643   16.6624 H   0  0  0  0  0  0  0  0  0  0  0  0
   26.5200   18.6643   18.3012 H   0  0  0  0  0  0  0  0  0  0  0  0
   27.9026   18.2208   17.2205 H   0  0  0  0  0  0  0  0  0  0  0  0
   27.3723   21.2732   15.1569 H   0  0  0  0  0  0  0  0  0  0  0  0
   25.5152   16.4111   11.3537 H   0  0  0  0  0  0  0  0  0  0  0  0
   24.1419   15.3137    9.6003 H   0  0  0  0  0  0  0  0  0  0  0  0
   22.4976   15.8043    6.1863 H   0  0  0  0  0  0  0  0  0  0  0  0
  1  2  1  0
  2  3  1  0
  3  4  2  0
  4  5  1  0
  5  6  1  0
  6  7  2  0
  6  8  2  0
  6  9  1  0
  9 10  2  0
 10 11  1  0
 11 12  2  0
 12 13  1  0
 13 14  2  0
 14 15  1  0
 15 16  1  0
 16 17  2  0
 16 18  1  0
 18 19  1  0
 19 20  1  0
 20 21  1  0
 21 22  1  0
 22 23  2  0
 22 24  1  0
 24 25  1  0
 25 26  2  0
 15 27  2  0
 27 28  1  0
 28 29  2  0
  5 30  1  0
 30 31  2  0
 31  3  1  0
 29  9  1  0
 29 13  1  0
 25 19  1  0
  1 32  1  0
  1 33  1  0
  1 34  1  0
  2 35  1  0
  2 36  1  0
  4 37  1  0
 10 38  1  0
 12 39  1  0
 14 40  1  0
 18 41  1  0
 19 42  1  1
 20 43  1  0
 20 44  1  0
 21 45  1  0
 21 46  1  0
 24 47  1  0
 27 48  1  0
 28 49  1  0
 30 50  1  0
M  END
>  <meeko>  (1404) 
{"is_sidechain": [true], "free_energy": -10.06, "intermolecular_energy": 0.0, "internal_energy": -10.06, "cluster_size": 13, "cluster_id": 1, "rank_in_cluster": 1}

>  <_RMSD_MCS_to_ref>  (1404) 
0.9028562085588895

$$$$
ligand
     RDKit          3D

 51 54  0  0  0  0  0  0  0  0999 V2000
   18.7970   18.8170    7.7190 C   0  0  0  0  0  0  0  0  0  0  0  0
   18.5280   17.3290    7.8810 C   0  0  0  0  0  0  0  0  0  0  0  0
   19.7550   16.5120    7.6790 C   0  0  0  0  0  0  0  0  0  0  0  0
   20.1150   15.3260    8.2860 C   0  0  0  0  0  0  0  0  0  0  0  0
   21.2960   14.9880    7.6870 N   0  0  0  0  0  0  0  0  0  0  0  0
   22.3110   13.7290    8.1360 S   0  0  0  0  0  6  0  0  0  0  0  0
   21.7550   12.5830    7.4370 O   0  0  0  0  0  0  0  0  0  0  0  0
   23.6820   14.1350    7.9020 O   0  0  0  0  0  0  0  0  0  0  0  0
   22.0900   13.4490    9.8790 C   0  0  0  0  0  0  0  0  0  0  0  0
   21.2400   12.3860   10.2390 C   0  0  0  0  0  0  0  0  0  0  0  0
   21.0640   12.0350   11.5750 C   0  0  0  0  0  0  0  0  0  0  0  0
   21.7570   12.7210   12.5660 C   0  0  0  0  0  0  0  0  0  0  0  0
   22.6380   13.7570   12.2290 C   0  0  0  0  0  0  0  0  0  0  0  0
   23.2950   14.4550   13.2620 N   0  0  0  0  0  0  0  0  0  0  0  0
   24.2600   15.3960   12.9640 C   0  0  0  0  0  0  0  0  0  0  0  0
   25.1030   15.9700   14.0710 C   0  0  0  0  0  0  0  0  0  0  0  0
   25.5850   15.2890   14.9660 O   0  0  0  0  0  0  0  0  0  0  0  0
   25.2940   17.3290   13.9600 N   0  0  0  0  0  0  0  0  0  0  0  0
   26.2420   18.0240   14.8190 C   0  0  2  0  0  0  0  0  0  0  0  0
   25.9070   17.8760   16.3000 C   0  0  0  0  0  0  0  0  0  0  0  0
   26.9050   18.6690   17.1280 C   0  0  0  0  0  0  0  0  0  0  0  0
   26.9430   20.1180   16.7010 C   0  0  0  0  0  0  0  0  0  0  0  0
   27.1290   21.0350   17.4950 O   0  0  0  0  0  0  0  0  0  0  0  0
   26.7810   20.3680   15.3620 N   0  0  0  0  0  0  0  0  0  0  0  0
   26.2170   19.5110   14.4510 C   0  0  0  0  0  0  0  0  0  0  0  0
   25.7280   19.9240   13.3990 O   0  0  0  0  0  0  0  0  0  0  0  0
   24.4940   15.8480   11.7280 C   0  0  0  0  0  0  0  0  0  0  0  0
   23.6650   15.3230   10.6230 C   0  0  0  0  0  0  0  0  0  0  0  0
   23.6940   15.8890    9.5420 O   0  0  0  0  0  0  0  0  0  0  0  0
   22.7790   14.1550   10.8780 C   0  0  0  0  0  0  0  0  0  0  0  0
   21.6720   15.9970    6.8570 C   0  0  0  0  0  0  0  0  0  0  0  0
   20.7360   16.9210    6.7930 N   0  0  0  0  0  0  0  0  0  0  0  0
   18.8815   19.2845    8.7111 H   0  0  0  0  0  0  0  0  0  0  0  0
   19.7359   18.9616    7.1643 H   0  0  0  0  0  0  0  0  0  0  0  0
   17.9682   19.2812    7.1643 H   0  0  0  0  0  0  0  0  0  0  0  0
   18.1437   17.1466    8.8954 H   0  0  0  0  0  0  0  0  0  0  0  0
   17.7947   17.0327    7.1165 H   0  0  0  0  0  0  0  0  0  0  0  0
   19.5749   14.7780    9.0722 H   0  0  0  0  0  0  0  0  0  0  0  0
   20.7085   11.8260    9.4555 H   0  0  0  0  0  0  0  0  0  0  0  0
   20.3791   11.2178   11.8453 H   0  0  0  0  0  0  0  0  0  0  0  0
   21.6126   12.4485   13.6219 H   0  0  0  0  0  0  0  0  0  0  0  0
   23.0539   14.2620   14.2446 H   0  0  0  0  0  0  0  0  0  0  0  0
   24.7587   17.8614   13.2594 H   0  0  0  0  0  0  0  0  0  0  0  0
   27.2360   17.5800   14.6615 H   0  0  0  0  0  0  0  0  0  0  0  0
   24.8919   18.2568   16.4860 H   0  0  0  0  0  0  0  0  0  0  0  0
   25.9583   16.8142   16.5828 H   0  0  0  0  0  0  0  0  0  0  0  0
   26.6147   18.6151   18.1876 H   0  0  0  0  0  0  0  0  0  0  0  0
   27.9046   18.2356   16.9762 H   0  0  0  0  0  0  0  0  0  0  0  0
   27.1114   21.2779   15.0100 H   0  0  0  0  0  0  0  0  0  0  0  0
   25.2827   16.5910   11.5384 H   0  0  0  0  0  0  0  0  0  0  0  0
   22.6274   16.0362    6.3133 H   0  0  0  0  0  0  0  0  0  0  0  0
  1  2  1  0
  2  3  1  0
  3  4  2  0
  4  5  1  0
  5  6  1  0
  6  7  2  0
  6  8  2  0
  6  9  1  0
  9 10  2  0
 10 11  1  0
 11 12  2  0
 12 13  1  0
 13 14  1  0
 14 15  1  0
 15 16  1  0
 16 17  2  0
 16 18  1  0
 18 19  1  0
 19 20  1  0
 20 21  1  0
 21 22  1  0
 22 23  2  0
 22 24  1  0
 24 25  1  0
 25 26  2  0
 15 27  2  0
 27 28  1  0
 28 29  2  0
 28 30  1  0
  5 31  1  0
 31 32  2  0
 32  3  1  0
 30  9  1  0
 30 13  2  0
 25 19  1  0
  1 33  1  0
  1 34  1  0
  1 35  1  0
  2 36  1  0
  2 37  1  0
  4 38  1  0
 10 39  1  0
 11 40  1  0
 12 41  1  0
 14 42  1  0
 18 43  1  0
 19 44  1  1
 20 45  1  0
 20 46  1  0
 21 47  1  0
 21 48  1  0
 24 49  1  0
 27 50  1  0
 31 51  1  0
M  END
>  <meeko>  (1405) 
{"is_sidechain": [true], "free_energy": -10.06, "intermolecular_energy": 0.0, "internal_energy": -10.06, "cluster_size": 18, "cluster_id": 1, "rank_in_cluster": 1}

>  <_RMSD_MCS_to_ref>  (1405) 
0.7122529201219341

$$$$
ligand
     RDKit          3D

 50 53  0  0  0  0  0  0  0  0999 V2000
   18.7970   18.8170    7.7190 C   0  0  0  0  0  0  0  0  0  0  0  0
   18.5280   17.3290    7.8810 C   0  0  0  0  0  0  0  0  0  0  0  0
   19.7670   16.5170    7.7390 C   0  0  0  0  0  0  0  0  0  0  0  0
   20.1640   15.4030    8.4530 C   0  0  0  0  0  0  0  0  0  0  0  0
   21.3620   15.0550    7.8910 N   0  0  0  0  0  0  0  0  0  0  0  0
   22.4160   13.8960    8.4940 S   0  0  0  0  0  6  0  0  0  0  0  0
   21.7000   12.6480    8.6530 O   0  0  0  0  0  0  0  0  0  0  0  0
   23.5560   13.9850    7.5950 O   0  0  0  0  0  0  0  0  0  0  0  0
   22.9720   14.4440   10.0990 C   0  0  0  0  0  0  0  0  0  0  0  0
   22.4400   15.6680   10.5470 C   0  0  0  0  0  0  0  0  0  0  0  0
   22.8400   16.2190   11.7620 C   0  0  0  0  0  0  0  0  0  0  0  0
   23.7880   15.5580   12.5490 C   0  0  0  0  0  0  0  0  0  0  0  0
   24.2260   16.2130   13.8020 C   0  0  0  0  0  0  0  0  0  0  0  0
   24.1820   15.6090   14.8640 O   0  0  0  0  0  0  0  0  0  0  0  0
   24.6640   17.5090   13.6730 N   0  0  0  0  0  0  0  0  0  0  0  0
   24.9880   18.3200   14.8420 C   0  0  1  0  0  0  0  0  0  0  0  0
   26.0170   17.6500   15.7450 C   0  0  0  0  0  0  0  0  0  0  0  0
   26.3410   18.5710   16.9110 C   0  0  0  0  0  0  0  0  0  0  0  0
   26.8090   19.9250   16.4290 C   0  0  0  0  0  0  0  0  0  0  0  0
   27.6600   20.5790   17.0230 O   0  0  0  0  0  0  0  0  0  0  0  0
   26.2140   20.4100   15.2910 N   0  0  0  0  0  0  0  0  0  0  0  0
   25.5500   19.6600   14.3560 C   0  0  0  0  0  0  0  0  0  0  0  0
   25.4120   20.0520   13.1960 O   0  0  0  0  0  0  0  0  0  0  0  0
   24.3300   14.3400   12.1060 C   0  0  0  0  0  0  0  0  0  0  0  0
   25.3060   13.6010   12.9200 C   0  0  0  0  0  0  0  0  0  0  0  0
   25.8390   12.4720   12.5700 N   0  0  0  0  0  0  0  0  0  0  0  0
   25.4700   11.9530   11.3780 N   0  0  0  0  0  0  0  0  0  0  0  0
   24.5450   12.4800   10.5140 C   0  0  0  0  0  0  0  0  0  0  0  0
   24.2280   11.8840    9.4970 O   0  0  0  0  0  0  0  0  0  0  0  0
   23.9260   13.7710   10.8850 C   0  0  0  0  0  0  0  0  0  0  0  0
   21.6910   15.9730    6.9460 C   0  0  0  0  0  0  0  0  0  0  0  0
   20.7270   16.8620    6.8090 N   0  0  0  0  0  0  0  0  0  0  0  0
   18.8815   19.2845    8.7111 H   0  0  0  0  0  0  0  0  0  0  0  0
   19.7359   18.9616    7.1643 H   0  0  0  0  0  0  0  0  0  0  0  0
   17.9682   19.2812    7.1643 H   0  0  0  0  0  0  0  0  0  0  0  0
   18.1008   17.1525    8.8792 H   0  0  0  0  0  0  0  0  0  0  0  0
   17.8299   17.0229    7.0880 H   0  0  0  0  0  0  0  0  0  0  0  0
   19.6377   14.9090    9.2830 H   0  0  0  0  0  0  0  0  0  0  0  0
   21.6987   16.1961    9.9293 H   0  0  0  0  0  0  0  0  0  0  0  0
   22.4107   17.1730   12.1020 H   0  0  0  0  0  0  0  0  0  0  0  0
   24.7656   17.9161   12.7324 H   0  0  0  0  0  0  0  0  0  0  0  0
   24.0691   18.4554   15.4314 H   0  0  0  0  0  0  0  0  0  0  0  0
   25.6084   16.7031   16.1277 H   0  0  0  0  0  0  0  0  0  0  0  0
   26.9332   17.4473   15.1710 H   0  0  0  0  0  0  0  0  0  0  0  0
   25.4381   18.7020   17.5255 H   0  0  0  0  0  0  0  0  0  0  0  0
   27.1500   18.1138   17.4996 H   0  0  0  0  0  0  0  0  0  0  0  0
   26.2716   21.4250   15.1257 H   0  0  0  0  0  0  0  0  0  0  0  0
   25.6028   14.0331   13.8870 H   0  0  0  0  0  0  0  0  0  0  0  0
   25.9282   11.0764   11.0907 H   0  0  0  0  0  0  0  0  0  0  0  0
   22.6308   15.9747    6.3744 H   0  0  0  0  0  0  0  0  0  0  0  0
  1  2  1  0
  2  3  1  0
  3  4  2  0
  4  5  1  0
  5  6  1  0
  6  7  2  0
  6  8  2  0
  6  9  1  0
  9 10  2  0
 10 11  1  0
 11 12  2  0
 12 13  1  0
 13 14  2  0
 13 15  1  0
 15 16  1  0
 16 17  1  0
 17 18  1  0
 18 19  1  0
 19 20  2  0
 19 21  1  0
 21 22  1  0
 22 23  2  0
 12 24  1  0
 24 25  1  0
 25 26  2  0
 26 27  1  0
 27 28  1  0
 28 29  2  0
 28 30  1  0
  5 31  1  0
 31 32  2  0
 32  3  1  0
 30  9  1  0
 22 16  1  0
 30 24  2  0
  1 33  1  0
  1 34  1  0
  1 35  1  0
  2 36  1  0
  2 37  1  0
  4 38  1  0
 10 39  1  0
 11 40  1  0
 15 41  1  0
 16 42  1  1
 17 43  1  0
 17 44  1  0
 18 45  1  0
 18 46  1  0
 21 47  1  0
 25 48  1  0
 27 49  1  0
 31 50  1  0
M  END
>  <meeko>  (1406) 
{"is_sidechain": [true], "free_energy": -10.06, "intermolecular_energy": 0.0, "internal_energy": -10.06, "cluster_size": 14, "cluster_id": 1, "rank_in_cluster": 1}

>  <_RMSD_MCS_to_ref>  (1406) 
0.2987923842551696

$$$$
ligand
     RDKit          3D

 45 48  0  0  0  0  0  0  0  0999 V2000
   18.9090   19.1540    7.5370 C   0  0  0  0  0  0  0  0  0  0  0  0
   18.7730   17.6460    7.6780 C   0  0  0  0  0  0  0  0  0  0  0  0
   20.0590   16.9400    7.4300 C   0  0  0  0  0  0  0  0  0  0  0  0
   21.1620   16.8300    8.2540 C   0  0  0  0  0  0  0  0  0  0  0  0
   22.0490   16.0890    7.5280 N   0  0  0  0  0  0  0  0  0  0  0  0
   23.4850   15.4300    8.1010 S   0  0  0  0  0  6  0  0  0  0  0  0
   23.3970   14.0080    7.8390 O   0  0  0  0  0  0  0  0  0  0  0  0
   24.5500   16.2560    7.5680 O   0  0  0  0  0  0  0  0  0  0  0  0
   23.3990   15.6930    9.8520 C   0  0  0  0  0  0  0  0  0  0  0  0
   22.3170   15.1950   10.5820 C   0  0  0  0  0  0  0  0  0  0  0  0
   22.2660   15.4040   11.9660 C   0  0  0  0  0  0  0  0  0  0  0  0
   23.2870   16.0970   12.6280 C   0  0  0  0  0  0  0  0  0  0  0  0
   23.1890   16.2870   14.0100 N   0  0  0  0  0  0  0  0  0  0  0  0
   24.0790   16.9180   14.6170 N   0  0  0  0  0  0  0  0  0  0  0  0
   25.1980   17.3800   13.9800 N   0  0  0  0  0  0  0  0  0  0  0  0
   26.1120   18.2040   14.7690 C   0  0  2  0  0  0  0  0  0  0  0  0
   26.0100   17.9540   16.2740 C   0  0  0  0  0  0  0  0  0  0  0  0
   27.0170   18.8320   17.0010 C   0  0  0  0  0  0  0  0  0  0  0  0
   26.8110   20.2910   16.6680 C   0  0  0  0  0  0  0  0  0  0  0  0
   27.0820   21.1900   17.4580 O   0  0  0  0  0  0  0  0  0  0  0  0
   26.3430   20.5730   15.4080 N   0  0  0  0  0  0  0  0  0  0  0  0
   25.8530   19.6860   14.4750 C   0  0  0  0  0  0  0  0  0  0  0  0
   25.2920   20.1040   13.4630 O   0  0  0  0  0  0  0  0  0  0  0  0
   25.3950   17.2810   12.6150 C   0  0  0  0  0  0  0  0  0  0  0  0
   26.3650   17.7320   12.0130 O   0  0  0  0  0  0  0  0  0  0  0  0
   24.3540   16.5680   11.8800 C   0  0  0  0  0  0  0  0  0  0  0  0
   24.4340   16.3730   10.4960 C   0  0  0  0  0  0  0  0  0  0  0  0
   21.4780   15.7420    6.3460 C   0  0  0  0  0  0  0  0  0  0  0  0
   20.2690   16.2530    6.2490 N   0  0  0  0  0  0  0  0  0  0  0  0
   18.9504   19.6134    8.5356 H   0  0  0  0  0  0  0  0  0  0  0  0
   19.8320   19.3891    6.9867 H   0  0  0  0  0  0  0  0  0  0  0  0
   18.0430   19.5504    6.9867 H   0  0  0  0  0  0  0  0  0  0  0  0
   18.4330   17.4149    8.6983 H   0  0  0  0  0  0  0  0  0  0  0  0
   18.0478   17.3006    6.9265 H   0  0  0  0  0  0  0  0  0  0  0  0
   21.2951   17.2447    9.2641 H   0  0  0  0  0  0  0  0  0  0  0  0
   21.5120   14.6435   10.0742 H   0  0  0  0  0  0  0  0  0  0  0  0
   21.4115   15.0182   12.5413 H   0  0  0  0  0  0  0  0  0  0  0  0
   27.1317   17.9202   14.4696 H   0  0  0  0  0  0  0  0  0  0  0  0
   24.9942   18.1978   16.6186 H   0  0  0  0  0  0  0  0  0  0  0  0
   26.2240   16.8961   16.4862 H   0  0  0  0  0  0  0  0  0  0  0  0
   26.8985   18.6914   18.0855 H   0  0  0  0  0  0  0  0  0  0  0  0
   28.0282   18.5411   16.6802 H   0  0  0  0  0  0  0  0  0  0  0  0
   26.3605   21.5640   15.1278 H   0  0  0  0  0  0  0  0  0  0  0  0
   25.2968   16.7488    9.9264 H   0  0  0  0  0  0  0  0  0  0  0  0
   21.9590   15.1203    5.5765 H   0  0  0  0  0  0  0  0  0  0  0  0
  1  2  1  0
  2  3  1  0
  3  4  2  0
  4  5  1  0
  5  6  1  0
  6  7  2  0
  6  8  2  0
  6  9  1  0
  9 10  2  0
 10 11  1  0
 11 12  2  0
 12 13  1  0
 13 14  2  0
 14 15  1  0
 15 16  1  0
 16 17  1  0
 17 18  1  0
 18 19  1  0
 19 20  2  0
 19 21  1  0
 21 22  1  0
 22 23  2  0
 15 24  1  0
 24 25  2  0
 24 26  1  0
 26 27  2  0
  5 28  1  0
 28 29  2  0
 29  3  1  0
 27  9  1  0
 26 12  1  0
 22 16  1  0
  1 30  1  0
  1 31  1  0
  1 32  1  0
  2 33  1  0
  2 34  1  0
  4 35  1  0
 10 36  1  0
 11 37  1  0
 16 38  1  6
 17 39  1  0
 17 40  1  0
 18 41  1  0
 18 42  1  0
 21 43  1  0
 27 44  1  0
 28 45  1  0
M  END
>  <meeko>  (1407) 
{"is_sidechain": [true], "free_energy": -10.06, "intermolecular_energy": 0.0, "internal_energy": -10.06, "cluster_size": 19, "cluster_id": 1, "rank_in_cluster": 1}

>  <_RMSD_MCS_to_ref>  (1407) 
0.7399697441262191

$$$$
ligand
     RDKit          3D

 48 51  0  0  0  0  0  0  0  0999 V2000
   18.9090   19.1540    7.5370 C   0  0  0  0  0  0  0  0  0  0  0  0
   18.7730   17.6460    7.6780 C   0  0  0  0  0  0  0  0  0  0  0  0
   19.8720   16.9160    6.9890 C   0  0  0  0  0  0  0  0  0  0  0  0
   21.0160   16.3620    7.5270 C   0  0  0  0  0  0  0  0  0  0  0  0
   21.6570   15.8110    6.4560 N   0  0  0  0  0  0  0  0  0  0  0  0
   23.1770   15.1120    6.4640 S   0  0  0  0  0  6  0  0  0  0  0  0
   23.0110   13.7370    6.0330 O   0  0  0  0  0  0  0  0  0  0  0  0
   24.0700   16.0450    5.8040 O   0  0  0  0  0  0  0  0  0  0  0  0
   23.7590   15.0080    8.0900 C   0  0  0  0  0  0  0  0  0  0  0  0
   24.3780   13.9110    8.6560 C   0  0  0  0  0  0  0  0  0  0  0  0
   24.6660   14.2810    9.9430 N   0  0  0  0  0  0  0  0  0  0  0  0
   25.2870   13.5550   10.9550 C   0  0  0  0  0  0  0  0  0  0  0  0
   25.4710   14.1300   12.1560 C   0  0  0  0  0  0  0  0  0  0  0  0
   25.0190   15.5070   12.3640 C   0  0  0  0  0  0  0  0  0  0  0  0
   25.1760   16.2100   13.6760 C   0  0  0  0  0  0  0  0  0  0  0  0
   25.0120   15.6370   14.7470 O   0  0  0  0  0  0  0  0  0  0  0  0
   25.4660   17.5460   13.5740 N   0  0  0  0  0  0  0  0  0  0  0  0
   25.4680   18.4110   14.7480 C   0  0  1  0  0  0  0  0  0  0  0  0
   26.3340   17.8590   15.8740 C   0  0  0  0  0  0  0  0  0  0  0  0
   26.3240   18.8310   17.0450 C   0  0  0  0  0  0  0  0  0  0  0  0
   26.7690   20.2100   16.6150 C   0  0  0  0  0  0  0  0  0  0  0  0
   27.4140   20.9530   17.3470 O   0  0  0  0  0  0  0  0  0  0  0  0
   26.3920   20.6120   15.3580 N   0  0  0  0  0  0  0  0  0  0  0  0
   26.0050   19.7840   14.3350 C   0  0  0  0  0  0  0  0  0  0  0  0
   26.0840   20.1390   13.1590 O   0  0  0  0  0  0  0  0  0  0  0  0
   24.3970   16.1920   11.3790 C   0  0  0  0  0  0  0  0  0  0  0  0
   24.2080   15.5860   10.1040 C   0  0  0  0  0  0  0  0  0  0  0  0
   23.6610   16.0450    8.9970 N   0  0  0  0  0  0  0  0  0  0  0  0
   20.9520   16.0830    5.3280 C   0  0  0  0  0  0  0  0  0  0  0  0
   19.8430   16.7300    5.6200 N   0  0  0  0  0  0  0  0  0  0  0  0
   18.9504   19.6134    8.5356 H   0  0  0  0  0  0  0  0  0  0  0  0
   19.8320   19.3891    6.9867 H   0  0  0  0  0  0  0  0  0  0  0  0
   18.0430   19.5504    6.9867 H   0  0  0  0  0  0  0  0  0  0  0  0
   18.7912   17.3870    8.7469 H   0  0  0  0  0  0  0  0  0  0  0  0
   17.8234   17.3471    7.2100 H   0  0  0  0  0  0  0  0  0  0  0  0
   21.3375   16.3642    8.5790 H   0  0  0  0  0  0  0  0  0  0  0  0
   24.5939   12.9453    8.1755 H   0  0  0  0  0  0  0  0  0  0  0  0
   25.6231   12.5233   10.7743 H   0  0  0  0  0  0  0  0  0  0  0  0
   25.9549   13.5732   12.9720 H   0  0  0  0  0  0  0  0  0  0  0  0
   25.6866   17.9463   12.6509 H   0  0  0  0  0  0  0  0  0  0  0  0
   24.4369   18.4769   15.1255 H   0  0  0  0  0  0  0  0  0  0  0  0
   25.9351   16.8873   16.2007 H   0  0  0  0  0  0  0  0  0  0  0  0
   27.3652   17.7297   15.5137 H   0  0  0  0  0  0  0  0  0  0  0  0
   25.3034   18.8936   17.4505 H   0  0  0  0  0  0  0  0  0  0  0  0
   27.0235   18.4621   17.8096 H   0  0  0  0  0  0  0  0  0  0  0  0
   26.4004   21.6239   15.1660 H   0  0  0  0  0  0  0  0  0  0  0  0
   24.0374   17.2154   11.5616 H   0  0  0  0  0  0  0  0  0  0  0  0
   21.2640   15.8019    4.3113 H   0  0  0  0  0  0  0  0  0  0  0  0
  1  2  1  0
  2  3  1  0
  3  4  2  0
  4  5  1  0
  5  6  1  0
  6  7  2  0
  6  8  2  0
  6  9  1  0
  9 10  2  0
 10 11  1  0
 11 12  1  0
 12 13  2  0
 13 14  1  0
 14 15  1  0
 15 16  2  0
 15 17  1  0
 17 18  1  0
 18 19  1  0
 19 20  1  0
 20 21  1  0
 21 22  2  0
 21 23  1  0
 23 24  1  0
 24 25  2  0
 14 26  2  0
 26 27  1  0
 27 28  2  0
  5 29  1  0
 29 30  2  0
 30  3  1  0
 28  9  1  0
 27 11  1  0
 24 18  1  0
  1 31  1  0
  1 32  1  0
  1 33  1  0
  2 34  1  0
  2 35  1  0
  4 36  1  0
 10 37  1  0
 12 38  1  0
 13 39  1  0
 17 40  1  0
 18 41  1  1
 19 42  1  0
 19 43  1  0
 20 44  1  0
 20 45  1  0
 23 46  1  0
 26 47  1  0
 29 48  1  0
M  END
>  <meeko>  (1408) 
{"is_sidechain": [true], "free_energy": -10.06, "intermolecular_energy": 0.0, "internal_energy": -10.06, "cluster_size": 14, "cluster_id": 1, "rank_in_cluster": 1}

>  <_RMSD_MCS_to_ref>  (1408) 
0.7178778138064689

$$$$
ligand
     RDKit          3D

 47 50  0  0  0  0  0  0  0  0999 V2000
   18.9090   19.1540    7.5370 C   0  0  0  0  0  0  0  0  0  0  0  0
   18.7730   17.6460    7.6780 C   0  0  0  0  0  0  0  0  0  0  0  0
   19.8870   16.9170    7.0130 C   0  0  0  0  0  0  0  0  0  0  0  0
   20.8030   16.0420    7.5630 C   0  0  0  0  0  0  0  0  0  0  0  0
   21.5780   15.6590    6.5050 N   0  0  0  0  0  0  0  0  0  0  0  0
   22.9750   14.7400    6.5870 S   0  0  0  0  0  6  0  0  0  0  0  0
   22.5590   13.3610    6.4100 O   0  0  0  0  0  0  0  0  0  0  0  0
   23.9340   15.3910    5.7140 O   0  0  0  0  0  0  0  0  0  0  0  0
   23.6180   14.8730    8.2390 C   0  0  0  0  0  0  0  0  0  0  0  0
   23.4380   15.9270    9.0280 N   0  0  0  0  0  0  0  0  0  0  0  0
   24.0960   15.6030   10.1850 C   0  0  0  0  0  0  0  0  0  0  0  0
   24.2590   16.3220   11.3770 C   0  0  0  0  0  0  0  0  0  0  0  0
   24.9990   15.7210   12.4120 C   0  0  0  0  0  0  0  0  0  0  0  0
   25.2270   16.4190   13.7090 C   0  0  0  0  0  0  0  0  0  0  0  0
   25.2770   15.7800   14.7540 O   0  0  0  0  0  0  0  0  0  0  0  0
   25.3400   17.7900   13.6640 N   0  0  0  0  0  0  0  0  0  0  0  0
   25.4130   18.5760   14.8890 C   0  0  1  0  0  0  0  0  0  0  0  0
   26.3500   17.9550   15.9190 C   0  0  0  0  0  0  0  0  0  0  0  0
   26.4110   18.8440   17.1510 C   0  0  0  0  0  0  0  0  0  0  0  0
   26.8240   20.2530   16.7910 C   0  0  0  0  0  0  0  0  0  0  0  0
   27.4960   20.9550   17.5410 O   0  0  0  0  0  0  0  0  0  0  0  0
   26.3850   20.7330   15.5830 N   0  0  0  0  0  0  0  0  0  0  0  0
   25.9190   19.9780   14.5360 C   0  0  0  0  0  0  0  0  0  0  0  0
   25.9020   20.4200   13.3870 O   0  0  0  0  0  0  0  0  0  0  0  0
   25.5720   14.4460   12.2390 C   0  0  0  0  0  0  0  0  0  0  0  0
   25.4140   13.7220   11.0490 C   0  0  0  0  0  0  0  0  0  0  0  0
   24.6670   14.3500   10.0640 C   0  0  0  0  0  0  0  0  0  0  0  0
   24.3680   13.8710    8.8260 O   0  0  0  0  0  0  0  0  0  0  0  0
   21.1720   16.3250    5.3930 C   0  0  0  0  0  0  0  0  0  0  0  0
   20.1290   17.0830    5.6640 N   0  0  0  0  0  0  0  0  0  0  0  0
   18.9504   19.6134    8.5356 H   0  0  0  0  0  0  0  0  0  0  0  0
   19.8320   19.3891    6.9867 H   0  0  0  0  0  0  0  0  0  0  0  0
   18.0430   19.5504    6.9867 H   0  0  0  0  0  0  0  0  0  0  0  0
   18.7699   17.3890    8.7475 H   0  0  0  0  0  0  0  0  0  0  0  0
   17.8337   17.3444    7.1913 H   0  0  0  0  0  0  0  0  0  0  0  0
   20.8890   15.7257    8.6130 H   0  0  0  0  0  0  0  0  0  0  0  0
   23.8224   17.3242   11.4995 H   0  0  0  0  0  0  0  0  0  0  0  0
   25.3734   18.2671   12.7518 H   0  0  0  0  0  0  0  0  0  0  0  0
   24.4074   18.6112   15.3334 H   0  0  0  0  0  0  0  0  0  0  0  0
   25.9753   16.9605   16.2028 H   0  0  0  0  0  0  0  0  0  0  0  0
   27.3569   17.8583   15.4869 H   0  0  0  0  0  0  0  0  0  0  0  0
   25.4178   18.8711   17.6230 H   0  0  0  0  0  0  0  0  0  0  0  0
   27.1589   18.4287   17.8425 H   0  0  0  0  0  0  0  0  0  0  0  0
   26.4072   21.7541   15.4496 H   0  0  0  0  0  0  0  0  0  0  0  0
   26.1589   14.0068   13.0592 H   0  0  0  0  0  0  0  0  0  0  0  0
   25.8528   12.7235   10.9063 H   0  0  0  0  0  0  0  0  0  0  0  0
   21.6475   16.2430    4.4045 H   0  0  0  0  0  0  0  0  0  0  0  0
  1  2  1  0
  2  3  1  0
  3  4  2  0
  4  5  1  0
  5  6  1  0
  6  7  2  0
  6  8  2  0
  6  9  1  0
  9 10  2  0
 10 11  1  0
 11 12  2  0
 12 13  1  0
 13 14  1  0
 14 15  2  0
 14 16  1  0
 16 17  1  0
 17 18  1  0
 18 19  1  0
 19 20  1  0
 20 21  2  0
 20 22  1  0
 22 23  1  0
 23 24  2  0
 13 25  2  0
 25 26  1  0
 26 27  2  0
 27 28  1  0
  5 29  1  0
 29 30  2  0
 30  3  1  0
 28  9  1  0
 27 11  1  0
 23 17  1  0
  1 31  1  0
  1 32  1  0
  1 33  1  0
  2 34  1  0
  2 35  1  0
  4 36  1  0
 12 37  1  0
 16 38  1  0
 17 39  1  1
 18 40  1  0
 18 41  1  0
 19 42  1  0
 19 43  1  0
 22 44  1  0
 25 45  1  0
 26 46  1  0
 29 47  1  0
M  END
>  <meeko>  (1409) 
{"is_sidechain": [true], "free_energy": -10.06, "intermolecular_energy": 0.0, "internal_energy": -10.06, "cluster_size": 5, "cluster_id": 1, "rank_in_cluster": 1}

>  <_RMSD_MCS_to_ref>  (1409) 
0.7113019362018109

$$$$
ligand
     RDKit          3D

 43 45  0  0  0  0  0  0  0  0999 V2000
   18.9090   19.1540    7.5370 C   0  0  0  0  0  0  0  0  0  0  0  0
   18.7730   17.6460    7.6780 C   0  0  0  0  0  0  0  0  0  0  0  0
   20.0830   16.9500    7.5630 C   0  0  0  0  0  0  0  0  0  0  0  0
   21.0880   16.8290    8.5010 C   0  0  0  0  0  0  0  0  0  0  0  0
   22.0650   16.1240    7.8580 N   0  0  0  0  0  0  0  0  0  0  0  0
   23.4420   15.4850    8.5680 S   0  0  0  0  0  6  0  0  0  0  0  0
   23.4470   14.0690    8.2610 O   0  0  0  0  0  0  0  0  0  0  0  0
   24.5300   16.3800    8.2300 O   0  0  0  0  0  0  0  0  0  0  0  0
   23.2740   15.5850   10.2830 C   0  0  0  0  0  0  0  0  0  0  0  0
   22.4040   14.8580   11.0680 C   0  0  0  0  0  0  0  0  0  0  0  0
   22.5940   15.2490   12.3660 N   0  0  0  0  0  0  0  0  0  0  0  0
   23.5660   16.2280   12.4390 C   0  0  0  0  0  0  0  0  0  0  0  0
   23.9490   16.8050   13.7100 C   0  0  0  0  0  0  0  0  0  0  0  0
   23.6520   16.2840   14.7800 O   0  0  0  0  0  0  0  0  0  0  0  0
   24.6520   17.9800   13.6380 N   0  0  0  0  0  0  0  0  0  0  0  0
   24.9820   18.7490   14.8280 C   0  0  1  0  0  0  0  0  0  0  0  0
   25.9430   18.0050   15.7480 C   0  0  0  0  0  0  0  0  0  0  0  0
   26.2750   18.8790   16.9470 C   0  0  0  0  0  0  0  0  0  0  0  0
   26.8280   20.2170   16.5170 C   0  0  0  0  0  0  0  0  0  0  0  0
   27.6750   20.8200   17.1690 O   0  0  0  0  0  0  0  0  0  0  0  0
   26.3130   20.7530   15.3630 N   0  0  0  0  0  0  0  0  0  0  0  0
   25.6300   20.0670   14.3900 C   0  0  0  0  0  0  0  0  0  0  0  0
   25.5410   20.5040   13.2430 O   0  0  0  0  0  0  0  0  0  0  0  0
   24.0060   16.4470   11.1420 C   0  0  0  0  0  0  0  0  0  0  0  0
   21.6240   15.7850    6.6200 C   0  0  0  0  0  0  0  0  0  0  0  0
   20.4280   16.2890    6.4000 N   0  0  0  0  0  0  0  0  0  0  0  0
   18.9504   19.6134    8.5356 H   0  0  0  0  0  0  0  0  0  0  0  0
   19.8320   19.3891    6.9867 H   0  0  0  0  0  0  0  0  0  0  0  0
   18.0430   19.5504    6.9867 H   0  0  0  0  0  0  0  0  0  0  0  0
   18.3372   17.4202    8.6624 H   0  0  0  0  0  0  0  0  0  0  0  0
   18.1276   17.2876    6.8625 H   0  0  0  0  0  0  0  0  0  0  0  0
   21.0995   17.2129    9.5318 H   0  0  0  0  0  0  0  0  0  0  0  0
   21.6876   14.1015   10.7153 H   0  0  0  0  0  0  0  0  0  0  0  0
   22.0837   14.8668   13.1750 H   0  0  0  0  0  0  0  0  0  0  0  0
   24.9545   18.3275   12.7168 H   0  0  0  0  0  0  0  0  0  0  0  0
   24.0531   18.9252   15.3902 H   0  0  0  0  0  0  0  0  0  0  0  0
   25.4725   17.0725   16.0930 H   0  0  0  0  0  0  0  0  0  0  0  0
   26.8667   17.7683   15.1996 H   0  0  0  0  0  0  0  0  0  0  0  0
   25.3600   19.0422   17.5353 H   0  0  0  0  0  0  0  0  0  0  0  0
   27.0394   18.3656   17.5487 H   0  0  0  0  0  0  0  0  0  0  0  0
   26.4519   21.7626   15.2136 H   0  0  0  0  0  0  0  0  0  0  0  0
   24.7836   17.1613   10.8336 H   0  0  0  0  0  0  0  0  0  0  0  0
   22.1879   15.1737    5.9001 H   0  0  0  0  0  0  0  0  0  0  0  0
  1  2  1  0
  2  3  1  0
  3  4  2  0
  4  5  1  0
  5  6  1  0
  6  7  2  0
  6  8  2  0
  6  9  1  0
  9 10  2  0
 10 11  1  0
 11 12  1  0
 12 13  1  0
 13 14  2  0
 13 15  1  0
 15 16  1  0
 16 17  1  0
 17 18  1  0
 18 19  1  0
 19 20  2  0
 19 21  1  0
 21 22  1  0
 22 23  2  0
 12 24  2  0
  5 25  1  0
 25 26  2  0
 26  3  1  0
 24  9  1  0
 22 16  1  0
  1 27  1  0
  1 28  1  0
  1 29  1  0
  2 30  1  0
  2 31  1  0
  4 32  1  0
 10 33  1  0
 11 34  1  0
 15 35  1  0
 16 36  1  1
 17 37  1  0
 17 38  1  0
 18 39  1  0
 18 40  1  0
 21 41  1  0
 24 42  1  0
 25 43  1  0
M  END
>  <meeko>  (1410) 
{"is_sidechain": [true], "free_energy": -10.06, "intermolecular_energy": 0.0, "internal_energy": -10.06, "cluster_size": 20, "cluster_id": 1, "rank_in_cluster": 1}

>  <_RMSD_MCS_to_ref>  (1410) 
0.5109884756256466

$$$$
ligand
     RDKit          3D

 45 48  0  0  0  0  0  0  0  0999 V2000
   18.9090   19.1540    7.5370 C   0  0  0  0  0  0  0  0  0  0  0  0
   18.7730   17.6460    7.6780 C   0  0  0  0  0  0  0  0  0  0  0  0
   20.0180   16.9300    7.2900 C   0  0  0  0  0  0  0  0  0  0  0  0
   21.1340   16.6490    8.0530 C   0  0  0  0  0  0  0  0  0  0  0  0
   21.9740   16.0020    7.1940 N   0  0  0  0  0  0  0  0  0  0  0  0
   23.4040   15.2420    7.6210 S   0  0  0  0  0  6  0  0  0  0  0  0
   23.6010   14.1540    6.6870 O   0  0  0  0  0  0  0  0  0  0  0  0
   24.3720   16.3010    7.8260 O   0  0  0  0  0  0  0  0  0  0  0  0
   23.2300   14.4990    9.1370 C   0  0  0  0  0  0  0  0  0  0  0  0
   22.7470   13.2440    9.4000 C   0  0  0  0  0  0  0  0  0  0  0  0
   22.7530   12.9590   10.7300 O   0  0  0  0  0  0  0  0  0  0  0  0
   23.2440   14.0810   11.3300 C   0  0  0  0  0  0  0  0  0  0  0  0
   23.4910   14.4170   12.6730 C   0  0  0  0  0  0  0  0  0  0  0  0
   24.0030   15.7050   12.7360 C   0  0  0  0  0  0  0  0  0  0  0  0
   24.3860   16.4060   13.9580 C   0  0  0  0  0  0  0  0  0  0  0  0
   24.3170   15.8890   15.0700 O   0  0  0  0  0  0  0  0  0  0  0  0
   24.8300   17.7000   13.8040 N   0  0  0  0  0  0  0  0  0  0  0  0
   25.1010   18.5670   14.9380 C   0  0  1  0  0  0  0  0  0  0  0  0
   26.0970   17.9480   15.9120 C   0  0  0  0  0  0  0  0  0  0  0  0
   26.3620   18.9190   17.0520 C   0  0  0  0  0  0  0  0  0  0  0  0
   26.8370   20.2570   16.5350 C   0  0  0  0  0  0  0  0  0  0  0  0
   27.6390   20.9540   17.1500 O   0  0  0  0  0  0  0  0  0  0  0  0
   26.3020   20.6810   15.3450 N   0  0  0  0  0  0  0  0  0  0  0  0
   25.6680   19.8920   14.4180 C   0  0  0  0  0  0  0  0  0  0  0  0
   25.5590   20.2480   13.2450 O   0  0  0  0  0  0  0  0  0  0  0  0
   24.1600   16.4500   11.1780 S   0  0  0  0  0  0  0  0  0  0  0  0
   23.5400   15.0300   10.4090 C   0  0  0  0  0  0  0  0  0  0  0  0
   21.3630   15.8680    5.9890 C   0  0  0  0  0  0  0  0  0  0  0  0
   20.1720   16.4280    6.0130 N   0  0  0  0  0  0  0  0  0  0  0  0
   18.9504   19.6134    8.5356 H   0  0  0  0  0  0  0  0  0  0  0  0
   19.8320   19.3891    6.9867 H   0  0  0  0  0  0  0  0  0  0  0  0
   18.0430   19.5504    6.9867 H   0  0  0  0  0  0  0  0  0  0  0  0
   18.5397   17.4080    8.7263 H   0  0  0  0  0  0  0  0  0  0  0  0
   17.9695   17.3152    7.0035 H   0  0  0  0  0  0  0  0  0  0  0  0
   21.3066   16.8914    9.1120 H   0  0  0  0  0  0  0  0  0  0  0  0
   22.3950   12.5473    8.6249 H   0  0  0  0  0  0  0  0  0  0  0  0
   23.3072   13.7619   13.5374 H   0  0  0  0  0  0  0  0  0  0  0  0
   24.9751   18.0661   12.8522 H   0  0  0  0  0  0  0  0  0  0  0  0
   24.1569   18.7227   15.4806 H   0  0  0  0  0  0  0  0  0  0  0  0
   25.6819   17.0129   16.3160 H   0  0  0  0  0  0  0  0  0  0  0  0
   27.0392   17.7341   15.3862 H   0  0  0  0  0  0  0  0  0  0  0  0
   25.4325   19.0646   17.6219 H   0  0  0  0  0  0  0  0  0  0  0  0
   27.1493   18.4953   17.6928 H   0  0  0  0  0  0  0  0  0  0  0  0
   26.3837   21.6844   15.1270 H   0  0  0  0  0  0  0  0  0  0  0  0
   21.8014   15.3627    5.1158 H   0  0  0  0  0  0  0  0  0  0  0  0
  1  2  1  0
  2  3  1  0
  3  4  2  0
  4  5  1  0
  5  6  1  0
  6  7  2  0
  6  8  2  0
  6  9  1  0
  9 10  2  0
 10 11  1  0
 11 12  1  0
 12 13  1  0
 13 14  2  0
 14 15  1  0
 15 16  2  0
 15 17  1  0
 17 18  1  0
 18 19  1  0
 19 20  1  0
 20 21  1  0
 21 22  2  0
 21 23  1  0
 23 24  1  0
 24 25  2  0
 14 26  1  0
 26 27  1  0
  5 28  1  0
 28 29  2  0
 29  3  1  0
 27  9  1  0
 27 12  2  0
 24 18  1  0
  1 30  1  0
  1 31  1  0
  1 32  1  0
  2 33  1  0
  2 34  1  0
  4 35  1  0
 10 36  1  0
 13 37  1  0
 17 38  1  0
 18 39  1  1
 19 40  1  0
 19 41  1  0
 20 42  1  0
 20 43  1  0
 23 44  1  0
 28 45  1  0
M  END
>  <meeko>  (1411) 
{"is_sidechain": [true], "free_energy": -10.06, "intermolecular_energy": 0.0, "internal_energy": -10.06, "cluster_size": 20, "cluster_id": 1, "rank_in_cluster": 1}

>  <_RMSD_MCS_to_ref>  (1411) 
0.49659473752078104

$$$$
ligand
     RDKit          3D

 45 48  0  0  0  0  0  0  0  0999 V2000
   18.9090   19.1540    7.5370 C   0  0  0  0  0  0  0  0  0  0  0  0
   18.7730   17.6460    7.6780 C   0  0  0  0  0  0  0  0  0  0  0  0
   20.0700   16.9440    7.4840 C   0  0  0  0  0  0  0  0  0  0  0  0
   20.9440   16.4560    8.4360 C   0  0  0  0  0  0  0  0  0  0  0  0
   21.9530   15.8930    7.7080 N   0  0  0  0  0  0  0  0  0  0  0  0
   23.4130   15.3240    8.3030 S   0  0  0  0  0  6  0  0  0  0  0  0
   24.1910   16.5000    8.6360 O   0  0  0  0  0  0  0  0  0  0  0  0
   23.8720   14.3030    7.3860 O   0  0  0  0  0  0  0  0  0  0  0  0
   23.1360   14.5170    9.7990 C   0  0  0  0  0  0  0  0  0  0  0  0
   22.4690   13.3020    9.9110 C   0  0  0  0  0  0  0  0  0  0  0  0
   22.3970   12.7400   11.5510 S   0  0  0  0  0  0  0  0  0  0  0  0
   23.2240   14.0990   12.0660 C   0  0  0  0  0  0  0  0  0  0  0  0
   23.7290   14.6150   13.5700 S   0  0  0  0  0  0  0  0  0  0  0  0
   24.4130   16.0530   12.8760 C   0  0  0  0  0  0  0  0  0  0  0  0
   25.0880   17.0600   13.6840 C   0  0  0  0  0  0  0  0  0  0  0  0
   26.3010   17.2470   13.6330 O   0  0  0  0  0  0  0  0  0  0  0  0
   24.2900   17.7940   14.5300 N   0  0  0  0  0  0  0  0  0  0  0  0
   24.8400   18.7280   15.5000 C   0  0  1  0  0  0  0  0  0  0  0  0
   25.8990   18.0790   16.3860 C   0  0  0  0  0  0  0  0  0  0  0  0
   26.4580   19.1150   17.3500 C   0  0  0  0  0  0  0  0  0  0  0  0
   26.9980   20.3170   16.6110 C   0  0  0  0  0  0  0  0  0  0  0  0
   27.9680   20.9540   17.0110 O   0  0  0  0  0  0  0  0  0  0  0  0
   26.3300   20.6900   15.4720 N   0  0  0  0  0  0  0  0  0  0  0  0
   25.4730   19.9010   14.7460 C   0  0  0  0  0  0  0  0  0  0  0  0
   25.2290   20.1450   13.5660 O   0  0  0  0  0  0  0  0  0  0  0  0
   24.2260   16.0910   11.4940 C   0  0  0  0  0  0  0  0  0  0  0  0
   23.5450   14.9420   11.0720 C   0  0  0  0  0  0  0  0  0  0  0  0
   21.7040   16.0780    6.3850 C   0  0  0  0  0  0  0  0  0  0  0  0
   20.5610   16.7080    6.2140 N   0  0  0  0  0  0  0  0  0  0  0  0
   18.9504   19.6134    8.5356 H   0  0  0  0  0  0  0  0  0  0  0  0
   19.8320   19.3891    6.9867 H   0  0  0  0  0  0  0  0  0  0  0  0
   18.0430   19.5504    6.9867 H   0  0  0  0  0  0  0  0  0  0  0  0
   18.3935   17.4172    8.6848 H   0  0  0  0  0  0  0  0  0  0  0  0
   18.0796   17.2953    6.8994 H   0  0  0  0  0  0  0  0  0  0  0  0
   20.8489   16.5088    9.5306 H   0  0  0  0  0  0  0  0  0  0  0  0
   22.0365   12.7593    9.0575 H   0  0  0  0  0  0  0  0  0  0  0  0
   23.2680   17.6784   14.4749 H   0  0  0  0  0  0  0  0  0  0  0  0
   24.0201   19.0670   16.1503 H   0  0  0  0  0  0  0  0  0  0  0  0
   25.4453   17.2549   16.9560 H   0  0  0  0  0  0  0  0  0  0  0  0
   26.7121   17.6862   15.7578 H   0  0  0  0  0  0  0  0  0  0  0  0
   25.6567   19.4420   18.0289 H   0  0  0  0  0  0  0  0  0  0  0  0
   27.2825   18.6550   17.9144 H   0  0  0  0  0  0  0  0  0  0  0  0
   26.4858   21.6493   15.1308 H   0  0  0  0  0  0  0  0  0  0  0  0
   24.5635   16.9032   10.8334 H   0  0  0  0  0  0  0  0  0  0  0  0
   22.3654   15.7474    5.5706 H   0  0  0  0  0  0  0  0  0  0  0  0
  1  2  1  0
  2  3  1  0
  3  4  2  0
  4  5  1  0
  5  6  1  0
  6  7  2  0
  6  8  2  0
  6  9  1  0
  9 10  2  0
 10 11  1  0
 11 12  1  0
 12 13  1  0
 13 14  1  0
 14 15  1  0
 15 16  2  0
 15 17  1  0
 17 18  1  0
 18 19  1  0
 19 20  1  0
 20 21  1  0
 21 22  2  0
 21 23  1  0
 23 24  1  0
 24 25  2  0
 14 26  2  0
 26 27  1  0
  5 28  1  0
 28 29  2  0
 29  3  1  0
 27  9  1  0
 27 12  2  0
 24 18  1  0
  1 30  1  0
  1 31  1  0
  1 32  1  0
  2 33  1  0
  2 34  1  0
  4 35  1  0
 10 36  1  0
 17 37  1  0
 18 38  1  1
 19 39  1  0
 19 40  1  0
 20 41  1  0
 20 42  1  0
 23 43  1  0
 26 44  1  0
 28 45  1  0
M  END
>  <meeko>  (1412) 
{"is_sidechain": [true], "free_energy": -10.06, "intermolecular_energy": 0.0, "internal_energy": -10.06, "cluster_size": 19, "cluster_id": 1, "rank_in_cluster": 1}

>  <_RMSD_MCS_to_ref>  (1412) 
0.7278752182437134

$$$$
ligand
     RDKit          3D

 50 53  0  0  0  0  0  0  0  0999 V2000
   18.9090   19.1540    7.5370 C   0  0  0  0  0  0  0  0  0  0  0  0
   18.7730   17.6460    7.6780 C   0  0  0  0  0  0  0  0  0  0  0  0
   20.0330   16.9350    7.3330 C   0  0  0  0  0  0  0  0  0  0  0  0
   20.4030   15.6340    7.6150 C   0  0  0  0  0  0  0  0  0  0  0  0
   21.6410   15.5080    7.0490 N   0  0  0  0  0  0  0  0  0  0  0  0
   22.6760   14.2030    7.2620 S   0  0  0  0  0  6  0  0  0  0  0  0
   22.0560   13.2630    8.1730 O   0  0  0  0  0  0  0  0  0  0  0  0
   23.0060   13.8050    5.9030 O   0  0  0  0  0  0  0  0  0  0  0  0
   24.1660   14.8230    8.0120 C   0  0  0  0  0  0  0  0  0  0  0  0
   25.3580   14.6470    7.2830 C   0  0  0  0  0  0  0  0  0  0  0  0
   26.5870   15.0210    7.8240 C   0  0  0  0  0  0  0  0  0  0  0  0
   26.6400   15.5500    9.1070 C   0  0  0  0  0  0  0  0  0  0  0  0
   25.4650   15.7170    9.8430 C   0  0  0  0  0  0  0  0  0  0  0  0
   25.6340   16.2210   11.1100 O   0  0  0  0  0  0  0  0  0  0  0  0
   24.5250   16.3280   11.9270 C   0  0  0  0  0  0  0  0  0  0  0  0
   24.7340   16.7850   13.3370 C   0  0  0  0  0  0  0  0  0  0  0  0
   24.4710   16.0890   14.3090 O   0  0  0  0  0  0  0  0  0  0  0  0
   25.2360   18.0580   13.4330 N   0  0  0  0  0  0  0  0  0  0  0  0
   25.3610   18.7450   14.7090 C   0  0  1  0  0  0  0  0  0  0  0  0
   26.3360   18.0460   15.6500 C   0  0  0  0  0  0  0  0  0  0  0  0
   26.4480   18.8380   16.9440 C   0  0  0  0  0  0  0  0  0  0  0  0
   26.8480   20.2700   16.6770 C   0  0  0  0  0  0  0  0  0  0  0  0
   27.5650   20.9090   17.4410 O   0  0  0  0  0  0  0  0  0  0  0  0
   26.3460   20.8460   15.5370 N   0  0  0  0  0  0  0  0  0  0  0  0
   25.8600   20.1700   14.4470 C   0  0  0  0  0  0  0  0  0  0  0  0
   25.8250   20.6940   13.3340 O   0  0  0  0  0  0  0  0  0  0  0  0
   23.2730   16.0700   11.5340 C   0  0  0  0  0  0  0  0  0  0  0  0
   23.0400   15.6530   10.1460 C   0  0  0  0  0  0  0  0  0  0  0  0
   21.9000   15.5950    9.7170 O   0  0  0  0  0  0  0  0  0  0  0  0
   24.2170   15.3750    9.3010 C   0  0  0  0  0  0  0  0  0  0  0  0
   22.0140   16.7060    6.5300 C   0  0  0  0  0  0  0  0  0  0  0  0
   21.0460   17.5900    6.6630 N   0  0  0  0  0  0  0  0  0  0  0  0
   18.9504   19.6134    8.5356 H   0  0  0  0  0  0  0  0  0  0  0  0
   19.8320   19.3891    6.9867 H   0  0  0  0  0  0  0  0  0  0  0  0
   18.0430   19.5504    6.9867 H   0  0  0  0  0  0  0  0  0  0  0  0
   18.5062   17.4099    8.7187 H   0  0  0  0  0  0  0  0  0  0  0  0
   17.9927   17.3099    6.9794 H   0  0  0  0  0  0  0  0  0  0  0  0
   19.8321   14.8737    8.1682 H   0  0  0  0  0  0  0  0  0  0  0  0
   25.3187   14.2092    6.2747 H   0  0  0  0  0  0  0  0  0  0  0  0
   27.5097   14.8978    7.2380 H   0  0  0  0  0  0  0  0  0  0  0  0
   27.6078   15.8375    9.5436 H   0  0  0  0  0  0  0  0  0  0  0  0
   25.5338   18.5427   12.5744 H   0  0  0  0  0  0  0  0  0  0  0  0
   24.3733   18.7460   15.1932 H   0  0  0  0  0  0  0  0  0  0  0  0
   25.9696   17.0326   15.8709 H   0  0  0  0  0  0  0  0  0  0  0  0
   27.3248   17.9824   15.1723 H   0  0  0  0  0  0  0  0  0  0  0  0
   25.4746   18.8272   17.4563 H   0  0  0  0  0  0  0  0  0  0  0  0
   27.2224   18.3719   17.5709 H   0  0  0  0  0  0  0  0  0  0  0  0
   26.3331   21.8751   15.4964 H   0  0  0  0  0  0  0  0  0  0  0  0
   22.4334   16.1685   12.2378 H   0  0  0  0  0  0  0  0  0  0  0  0
   22.9889   16.9102    6.0633 H   0  0  0  0  0  0  0  0  0  0  0  0
  1  2  1  0
  2  3  1  0
  3  4  2  0
  4  5  1  0
  5  6  1  0
  6  7  2  0
  6  8  2  0
  6  9  1  0
  9 10  2  0
 10 11  1  0
 11 12  2  0
 12 13  1  0
 13 14  1  0
 14 15  1  0
 15 16  1  0
 16 17  2  0
 16 18  1  0
 18 19  1  0
 19 20  1  0
 20 21  1  0
 21 22  1  0
 22 23  2  0
 22 24  1  0
 24 25  1  0
 25 26  2  0
 15 27  2  0
 27 28  1  0
 28 29  2  0
 28 30  1  0
  5 31  1  0
 31 32  2  0
 32  3  1  0
 30  9  1  0
 30 13  2  0
 25 19  1  0
  1 33  1  0
  1 34  1  0
  1 35  1  0
  2 36  1  0
  2 37  1  0
  4 38  1  0
 10 39  1  0
 11 40  1  0
 12 41  1  0
 18 42  1  0
 19 43  1  1
 20 44  1  0
 20 45  1  0
 21 46  1  0
 21 47  1  0
 24 48  1  0
 27 49  1  0
 31 50  1  0
M  END
>  <meeko>  (1413) 
{"is_sidechain": [true], "free_energy": -10.06, "intermolecular_energy": 0.0, "internal_energy": -10.06, "cluster_size": 20, "cluster_id": 1, "rank_in_cluster": 1}

>  <_RMSD_MCS_to_ref>  (1413) 
0.710230791910473

$$$$
ligand
     RDKit          3D

 41 43  0  0  0  0  0  0  0  0999 V2000
   18.9090   19.1540    7.5370 C   0  0  0  0  0  0  0  0  0  0  0  0
   18.7730   17.6460    7.6780 C   0  0  0  0  0  0  0  0  0  0  0  0
   20.0870   16.9530    7.5880 C   0  0  0  0  0  0  0  0  0  0  0  0
   20.9220   16.5370    8.6050 C   0  0  0  0  0  0  0  0  0  0  0  0
   21.9910   15.9880    7.9590 N   0  0  0  0  0  0  0  0  0  0  0  0
   23.2660   15.1670    8.6740 S   0  0  0  0  0  6  0  0  0  0  0  0
   23.0050   13.7570    8.4510 O   0  0  0  0  0  0  0  0  0  0  0  0
   24.4740   15.8240    8.2090 O   0  0  0  0  0  0  0  0  0  0  0  0
   23.1790   15.4300   10.4150 C   0  0  0  0  0  0  0  0  0  0  0  0
   22.2870   14.9090   11.2330 N   0  0  0  0  0  0  0  0  0  0  0  0
   22.5560   15.3470   12.5180 C   0  0  0  0  0  0  0  0  0  0  0  0
   23.6430   16.1880   12.6590 C   0  0  0  0  0  0  0  0  0  0  0  0
   24.1370   16.7810   13.8840 C   0  0  0  0  0  0  0  0  0  0  0  0
   24.1200   16.1890   14.9610 O   0  0  0  0  0  0  0  0  0  0  0  0
   24.6250   18.0640   13.7860 N   0  0  0  0  0  0  0  0  0  0  0  0
   25.0120   18.8370   14.9570 C   0  0  1  0  0  0  0  0  0  0  0  0
   26.0180   18.0950   15.8310 C   0  0  0  0  0  0  0  0  0  0  0  0
   26.4080   18.9720   17.0110 C   0  0  0  0  0  0  0  0  0  0  0  0
   26.9400   20.3090   16.5490 C   0  0  0  0  0  0  0  0  0  0  0  0
   27.8230   20.9110   17.1520 O   0  0  0  0  0  0  0  0  0  0  0  0
   26.3640   20.8430   15.4250 N   0  0  0  0  0  0  0  0  0  0  0  0
   25.6380   20.1520   14.4870 C   0  0  0  0  0  0  0  0  0  0  0  0
   25.4990   20.5830   13.3420 O   0  0  0  0  0  0  0  0  0  0  0  0
   24.3590   16.4440   11.1190 S   0  0  0  0  0  0  0  0  0  0  0  0
   21.7650   16.0190    6.6200 C   0  0  0  0  0  0  0  0  0  0  0  0
   20.6250   16.6230    6.3590 N   0  0  0  0  0  0  0  0  0  0  0  0
   18.9504   19.6134    8.5356 H   0  0  0  0  0  0  0  0  0  0  0  0
   19.8320   19.3891    6.9867 H   0  0  0  0  0  0  0  0  0  0  0  0
   18.0430   19.5504    6.9867 H   0  0  0  0  0  0  0  0  0  0  0  0
   18.3197   17.4208    8.6546 H   0  0  0  0  0  0  0  0  0  0  0  0
   18.1430   17.2847    6.8519 H   0  0  0  0  0  0  0  0  0  0  0  0
   20.7621   16.6275    9.6895 H   0  0  0  0  0  0  0  0  0  0  0  0
   21.9401   15.0431   13.3772 H   0  0  0  0  0  0  0  0  0  0  0  0
   24.7195   18.4912   12.8535 H   0  0  0  0  0  0  0  0  0  0  0  0
   24.1106   19.0147   15.5619 H   0  0  0  0  0  0  0  0  0  0  0  0
   25.5655   17.1630   16.2005 H   0  0  0  0  0  0  0  0  0  0  0  0
   26.9139   17.8577   15.2385 H   0  0  0  0  0  0  0  0  0  0  0  0
   25.5227   19.1374   17.6426 H   0  0  0  0  0  0  0  0  0  0  0  0
   27.1999   18.4601   17.5774 H   0  0  0  0  0  0  0  0  0  0  0  0
   26.4872   21.8539   15.2706 H   0  0  0  0  0  0  0  0  0  0  0  0
   22.4401   15.5983    5.8602 H   0  0  0  0  0  0  0  0  0  0  0  0
  1  2  1  0
  2  3  1  0
  3  4  2  0
  4  5  1  0
  5  6  1  0
  6  7  2  0
  6  8  2  0
  6  9  1  0
  9 10  2  0
 10 11  1  0
 11 12  2  0
 12 13  1  0
 13 14  2  0
 13 15  1  0
 15 16  1  0
 16 17  1  0
 17 18  1  0
 18 19  1  0
 19 20  2  0
 19 21  1  0
 21 22  1  0
 22 23  2  0
 12 24  1  0
  5 25  1  0
 25 26  2  0
 26  3  1  0
 24  9  1  0
 22 16  1  0
  1 27  1  0
  1 28  1  0
  1 29  1  0
  2 30  1  0
  2 31  1  0
  4 32  1  0
 11 33  1  0
 15 34  1  0
 16 35  1  1
 17 36  1  0
 17 37  1  0
 18 38  1  0
 18 39  1  0
 21 40  1  0
 25 41  1  0
M  END
>  <meeko>  (1414) 
{"is_sidechain": [true], "free_energy": -10.06, "intermolecular_energy": 0.0, "internal_energy": -10.06, "cluster_size": 20, "cluster_id": 1, "rank_in_cluster": 1}

>  <_RMSD_MCS_to_ref>  (1414) 
0.5987431280051019

$$$$
ligand
     RDKit          3D

 45 48  0  0  0  0  0  0  0  0999 V2000
   18.9090   19.1540    7.5370 C   0  0  0  0  0  0  0  0  0  0  0  0
   18.7730   17.6460    7.6780 C   0  0  0  0  0  0  0  0  0  0  0  0
   20.0500   17.0030    8.0900 C   0  0  0  0  0  0  0  0  0  0  0  0
   20.3310   16.2860    9.2360 C   0  0  0  0  0  0  0  0  0  0  0  0
   21.6470   15.9400    9.1010 N   0  0  0  0  0  0  0  0  0  0  0  0
   22.5210   14.9440   10.1340 S   0  0  0  0  0  6  0  0  0  0  0  0
   21.6050   14.6160   11.2150 O   0  0  0  0  0  0  0  0  0  0  0  0
   23.0890   13.9240    9.2660 O   0  0  0  0  0  0  0  0  0  0  0  0
   23.8200   15.9860   10.7530 C   0  0  0  0  0  0  0  0  0  0  0  0
   23.5310   16.6080   11.9190 N   0  0  0  0  0  0  0  0  0  0  0  0
   24.4740   17.3990   12.4610 C   0  0  0  0  0  0  0  0  0  0  0  0
   24.2460   18.0700   13.6550 N   0  0  0  0  0  0  0  0  0  0  0  0
   25.4300   18.3830   14.4700 C   0  0  2  0  0  0  0  0  0  0  0  0
   25.1350   18.1410   15.9470 C   0  0  0  0  0  0  0  0  0  0  0  0
   26.3390   18.5470   16.7830 C   0  0  0  0  0  0  0  0  0  0  0  0
   26.7120   19.9900   16.5370 C   0  0  0  0  0  0  0  0  0  0  0  0
   27.2130   20.6990   17.4030 O   0  0  0  0  0  0  0  0  0  0  0  0
   26.5010   20.4690   15.2690 N   0  0  0  0  0  0  0  0  0  0  0  0
   25.7830   19.8660   14.2670 C   0  0  0  0  0  0  0  0  0  0  0  0
   25.4560   20.4880   13.2550 O   0  0  0  0  0  0  0  0  0  0  0  0
   25.6700   17.5190   11.7590 C   0  0  0  0  0  0  0  0  0  0  0  0
   26.8090   18.2540   11.9960 N   0  0  0  0  0  0  0  0  0  0  0  0
   27.7290   18.0290   11.0020 C   0  0  0  0  0  0  0  0  0  0  0  0
   27.1710   17.1480   10.1000 C   0  0  0  0  0  0  0  0  0  0  0  0
   25.8740   16.8330   10.5690 C   0  0  0  0  0  0  0  0  0  0  0  0
   24.9460   16.0250   10.0180 N   0  0  0  0  0  0  0  0  0  0  0  0
   22.1070   16.4020    7.9090 C   0  0  0  0  0  0  0  0  0  0  0  0
   21.1640   17.0680    7.2760 N   0  0  0  0  0  0  0  0  0  0  0  0
   18.9504   19.6134    8.5356 H   0  0  0  0  0  0  0  0  0  0  0  0
   19.8320   19.3891    6.9867 H   0  0  0  0  0  0  0  0  0  0  0  0
   18.0430   19.5504    6.9867 H   0  0  0  0  0  0  0  0  0  0  0  0
   18.0062   17.4287    8.4361 H   0  0  0  0  0  0  0  0  0  0  0  0
   18.4912   17.2389    6.6957 H   0  0  0  0  0  0  0  0  0  0  0  0
   19.6515   16.0476   10.0675 H   0  0  0  0  0  0  0  0  0  0  0  0
   23.2968   18.3349   13.9546 H   0  0  0  0  0  0  0  0  0  0  0  0
   26.2664   17.7379   14.1630 H   0  0  0  0  0  0  0  0  0  0  0  0
   24.2622   18.7388   16.2483 H   0  0  0  0  0  0  0  0  0  0  0  0
   24.9240   17.0733   16.1063 H   0  0  0  0  0  0  0  0  0  0  0  0
   26.0974   18.4152   17.8480 H   0  0  0  0  0  0  0  0  0  0  0  0
   27.1914   17.9129   16.4978 H   0  0  0  0  0  0  0  0  0  0  0  0
   26.9275   21.3794   15.0448 H   0  0  0  0  0  0  0  0  0  0  0  0
   26.9506   18.8809   12.8009 H   0  0  0  0  0  0  0  0  0  0  0  0
   28.7333   18.4729   10.9368 H   0  0  0  0  0  0  0  0  0  0  0  0
   27.6459   16.7620    9.1860 H   0  0  0  0  0  0  0  0  0  0  0  0
   23.1257   16.2419    7.5260 H   0  0  0  0  0  0  0  0  0  0  0  0
  1  2  1  0
  2  3  1  0
  3  4  2  0
  4  5  1  0
  5  6  1  0
  6  7  2  0
  6  8  2  0
  6  9  1  0
  9 10  2  0
 10 11  1  0
 11 12  1  0
 12 13  1  0
 13 14  1  0
 14 15  1  0
 15 16  1  0
 16 17  2  0
 16 18  1  0
 18 19  1  0
 19 20  2  0
 11 21  2  0
 21 22  1  0
 22 23  1  0
 23 24  2  0
 24 25  1  0
 25 26  2  0
  5 27  1  0
 27 28  2  0
 28  3  1  0
 26  9  1  0
 19 13  1  0
 25 21  1  0
  1 29  1  0
  1 30  1  0
  1 31  1  0
  2 32  1  0
  2 33  1  0
  4 34  1  0
 12 35  1  0
 13 36  1  6
 14 37  1  0
 14 38  1  0
 15 39  1  0
 15 40  1  0
 18 41  1  0
 22 42  1  0
 23 43  1  0
 24 44  1  0
 27 45  1  0
M  END
>  <meeko>  (1415) 
{"is_sidechain": [true], "free_energy": -10.06, "intermolecular_energy": 0.0, "internal_energy": -10.06, "cluster_size": 8, "cluster_id": 1, "rank_in_cluster": 1}

>  <_RMSD_MCS_to_ref>  (1415) 
0.6203593044894761

$$$$
ligand
     RDKit          3D

 44 47  0  0  0  0  0  0  0  0999 V2000
   18.9090   19.1540    7.5370 C   0  0  0  0  0  0  0  0  0  0  0  0
   18.7730   17.6460    7.6780 C   0  0  0  0  0  0  0  0  0  0  0  0
   20.0040   16.9290    7.2480 C   0  0  0  0  0  0  0  0  0  0  0  0
   20.9090   16.2210    8.0150 C   0  0  0  0  0  0  0  0  0  0  0  0
   21.8270   15.7640    7.1120 N   0  0  0  0  0  0  0  0  0  0  0  0
   23.2490   14.9550    7.4700 S   0  0  0  0  0  6  0  0  0  0  0  0
   24.1620   15.2470    6.3800 O   0  0  0  0  0  0  0  0  0  0  0  0
   22.8620   13.6070    7.8450 O   0  0  0  0  0  0  0  0  0  0  0  0
   23.9620   15.6690    8.8980 C   0  0  0  0  0  0  0  0  0  0  0  0
   25.2960   16.0450    8.9450 N   0  0  0  0  0  0  0  0  0  0  0  0
   25.4140   16.5320   10.1580 C   0  0  0  0  0  0  0  0  0  0  0  0
   26.4920   17.0890   10.8700 C   0  0  0  0  0  0  0  0  0  0  0  0
   26.2830   17.5040   12.1260 C   0  0  0  0  0  0  0  0  0  0  0  0
   24.9100   17.3580   12.7220 C   0  0  0  0  0  0  0  0  0  0  0  0
   24.7220   17.7960   14.0120 N   0  0  0  0  0  0  0  0  0  0  0  0
   25.8070   18.3540   14.8230 C   0  0  2  0  0  0  0  0  0  0  0  0
   25.5780   18.0520   16.3000 C   0  0  0  0  0  0  0  0  0  0  0  0
   26.6810   18.6930   17.1300 C   0  0  0  0  0  0  0  0  0  0  0  0
   26.7570   20.1810   16.8800 C   0  0  0  0  0  0  0  0  0  0  0  0
   27.0870   20.9800   17.7500 O   0  0  0  0  0  0  0  0  0  0  0  0
   26.4690   20.6040   15.6070 N   0  0  0  0  0  0  0  0  0  0  0  0
   25.8420   19.8750   14.6280 C   0  0  0  0  0  0  0  0  0  0  0  0
   25.3370   20.4240   13.6470 O   0  0  0  0  0  0  0  0  0  0  0  0
   23.9040   16.8420   12.0680 N   0  0  0  0  0  0  0  0  0  0  0  0
   24.2060   16.4550   10.8140 N   0  0  0  0  0  0  0  0  0  0  0  0
   23.2690   15.9060   10.0270 N   0  0  0  0  0  0  0  0  0  0  0  0
   21.5070   16.2300    5.8770 C   0  0  0  0  0  0  0  0  0  0  0  0
   20.3870   16.9240    5.9210 N   0  0  0  0  0  0  0  0  0  0  0  0
   18.9504   19.6134    8.5356 H   0  0  0  0  0  0  0  0  0  0  0  0
   19.8320   19.3891    6.9867 H   0  0  0  0  0  0  0  0  0  0  0  0
   18.0430   19.5504    6.9867 H   0  0  0  0  0  0  0  0  0  0  0  0
   18.5726   17.4052    8.7325 H   0  0  0  0  0  0  0  0  0  0  0  0
   17.9471   17.3188    7.0293 H   0  0  0  0  0  0  0  0  0  0  0  0
   20.8940   16.0617    9.1033 H   0  0  0  0  0  0  0  0  0  0  0  0
   27.4847   17.1816   10.4053 H   0  0  0  0  0  0  0  0  0  0  0  0
   27.1027   17.9447   12.7125 H   0  0  0  0  0  0  0  0  0  0  0  0
   23.7806   17.7291   14.4245 H   0  0  0  0  0  0  0  0  0  0  0  0
   26.7586   17.9015   14.5073 H   0  0  0  0  0  0  0  0  0  0  0  0
   24.6038   18.4582   16.6098 H   0  0  0  0  0  0  0  0  0  0  0  0
   25.5898   16.9632   16.4560 H   0  0  0  0  0  0  0  0  0  0  0  0
   26.4755   18.5182   18.1964 H   0  0  0  0  0  0  0  0  0  0  0  0
   27.6417   18.2414   16.8415 H   0  0  0  0  0  0  0  0  0  0  0  0
   26.7514   21.5637   15.3619 H   0  0  0  0  0  0  0  0  0  0  0  0
   22.0995   16.0531    4.9673 H   0  0  0  0  0  0  0  0  0  0  0  0
  1  2  1  0
  2  3  1  0
  3  4  2  0
  4  5  1  0
  5  6  1  0
  6  7  2  0
  6  8  2  0
  6  9  1  0
  9 10  1  0
 10 11  2  0
 11 12  1  0
 12 13  2  0
 13 14  1  0
 14 15  1  0
 15 16  1  0
 16 17  1  0
 17 18  1  0
 18 19  1  0
 19 20  2  0
 19 21  1  0
 21 22  1  0
 22 23  2  0
 14 24  2  0
 24 25  1  0
 25 26  1  0
  5 27  1  0
 27 28  2  0
 28  3  1  0
 26  9  2  0
 25 11  1  0
 22 16  1  0
  1 29  1  0
  1 30  1  0
  1 31  1  0
  2 32  1  0
  2 33  1  0
  4 34  1  0
 12 35  1  0
 13 36  1  0
 15 37  1  0
 16 38  1  6
 17 39  1  0
 17 40  1  0
 18 41  1  0
 18 42  1  0
 21 43  1  0
 27 44  1  0
M  END
>  <meeko>  (1416) 
{"is_sidechain": [true], "free_energy": -10.06, "intermolecular_energy": 0.0, "internal_energy": -10.06, "cluster_size": 20, "cluster_id": 1, "rank_in_cluster": 1}

>  <_RMSD_MCS_to_ref>  (1416) 
0.7045677161683372

$$$$
ligand
     RDKit          3D

 45 48  0  0  0  0  0  0  0  0999 V2000
   18.8250   19.0180    7.5350 C   0  0  0  0  0  0  0  0  0  0  0  0
   18.5200   17.5410    7.7330 C   0  0  0  0  0  0  0  0  0  0  0  0
   19.7340   16.7600    8.0910 C   0  0  0  0  0  0  0  0  0  0  0  0
   20.2280   16.4490    9.3430 C   0  0  0  0  0  0  0  0  0  0  0  0
   21.3510   15.7130    9.0870 N   0  0  0  0  0  0  0  0  0  0  0  0
   22.4580   15.1540   10.2220 S   0  0  0  0  0  6  0  0  0  0  0  0
   22.3230   13.7100   10.1880 O   0  0  0  0  0  0  0  0  0  0  0  0
   22.2080   15.9400   11.4190 O   0  0  0  0  0  0  0  0  0  0  0  0
   24.0540   15.5920    9.5940 C   0  0  0  0  0  0  0  0  0  0  0  0
   24.2200   15.2590    8.2840 N   0  0  0  0  0  0  0  0  0  0  0  0
   25.4320   15.4990    7.7770 C   0  0  0  0  0  0  0  0  0  0  0  0
   26.4600   16.0230    8.4530 N   0  0  0  0  0  0  0  0  0  0  0  0
   26.2330   16.3300    9.7510 C   0  0  0  0  0  0  0  0  0  0  0  0
   25.0240   16.1540   10.3990 C   0  0  0  0  0  0  0  0  0  0  0  0
   24.9060   16.5300   11.7830 C   0  0  0  0  0  0  0  0  0  0  0  0
   25.2760   17.7160   12.3730 C   0  0  0  0  0  0  0  0  0  0  0  0
   24.9650   17.5400   13.6930 N   0  0  0  0  0  0  0  0  0  0  0  0
   25.1990   18.4280   14.8220 C   0  0  1  0  0  0  0  0  0  0  0  0
   26.2520   17.8430   15.7630 C   0  0  0  0  0  0  0  0  0  0  0  0
   26.4500   18.7670   16.9540 C   0  0  0  0  0  0  0  0  0  0  0  0
   26.8300   20.1570   16.5060 C   0  0  0  0  0  0  0  0  0  0  0  0
   27.4800   20.9210   17.2120 O   0  0  0  0  0  0  0  0  0  0  0  0
   26.3560   20.5500   15.2790 N   0  0  0  0  0  0  0  0  0  0  0  0
   25.5900   19.8300   14.3880 C   0  0  0  0  0  0  0  0  0  0  0  0
   25.2270   20.3520   13.3390 O   0  0  0  0  0  0  0  0  0  0  0  0
   24.5320   16.2850   13.9210 N   0  0  0  0  0  0  0  0  0  0  0  0
   24.4810   15.6620   12.7530 N   0  0  0  0  0  0  0  0  0  0  0  0
   21.5260   15.6240    7.7420 C   0  0  0  0  0  0  0  0  0  0  0  0
   20.5520   16.2410    7.1060 N   0  0  0  0  0  0  0  0  0  0  0  0
   18.9258   19.5062    8.5155 H   0  0  0  0  0  0  0  0  0  0  0  0
   19.7645   19.1263    6.9731 H   0  0  0  0  0  0  0  0  0  0  0  0
   18.0053   19.4896    6.9731 H   0  0  0  0  0  0  0  0  0  0  0  0
   17.7808   17.4371    8.5410 H   0  0  0  0  0  0  0  0  0  0  0  0
   18.1322   17.1458    6.7825 H   0  0  0  0  0  0  0  0  0  0  0  0
   19.8126   16.7295   10.3222 H   0  0  0  0  0  0  0  0  0  0  0  0
   25.5978   15.2456    6.7195 H   0  0  0  0  0  0  0  0  0  0  0  0
   27.0683   16.7488   10.3314 H   0  0  0  0  0  0  0  0  0  0  0  0
   25.7195   18.6013   11.8939 H   0  0  0  0  0  0  0  0  0  0  0  0
   24.2452   18.5128   15.3634 H   0  0  0  0  0  0  0  0  0  0  0  0
   25.9172   16.8570   16.1177 H   0  0  0  0  0  0  0  0  0  0  0  0
   27.2042   17.7391   15.2222 H   0  0  0  0  0  0  0  0  0  0  0  0
   25.5134   18.8182   17.5286 H   0  0  0  0  0  0  0  0  0  0  0  0
   27.2637   18.3657   17.5760 H   0  0  0  0  0  0  0  0  0  0  0  0
   26.6049   21.5058   14.9868 H   0  0  0  0  0  0  0  0  0  0  0  0
   22.3651   15.1080    7.2526 H   0  0  0  0  0  0  0  0  0  0  0  0
  1  2  1  0
  2  3  1  0
  3  4  2  0
  4  5  1  0
  5  6  1  0
  6  7  2  0
  6  8  2  0
  6  9  1  0
  9 10  2  0
 10 11  1  0
 11 12  2  0
 12 13  1  0
 13 14  2  0
 14 15  1  0
 15 16  2  0
 16 17  1  0
 17 18  1  0
 18 19  1  0
 19 20  1  0
 20 21  1  0
 21 22  2  0
 21 23  1  0
 23 24  1  0
 24 25  2  0
 17 26  1  0
 26 27  2  0
  5 28  1  0
 28 29  2  0
 29  3  1  0
 14  9  1  0
 27 15  1  0
 24 18  1  0
  1 30  1  0
  1 31  1  0
  1 32  1  0
  2 33  1  0
  2 34  1  0
  4 35  1  0
 11 36  1  0
 13 37  1  0
 16 38  1  0
 18 39  1  1
 19 40  1  0
 19 41  1  0
 20 42  1  0
 20 43  1  0
 23 44  1  0
 28 45  1  0
M  END
>  <meeko>  (1417) 
{"is_sidechain": [true], "free_energy": -10.05, "intermolecular_energy": 0.0, "internal_energy": -10.05, "cluster_size": 7, "cluster_id": 1, "rank_in_cluster": 1}

>  <_RMSD_MCS_to_ref>  (1417) 
0.4126938601702507

$$$$
ligand
     RDKit          3D

 53 57  0  0  0  0  0  0  0  0999 V2000
   18.8250   19.0170    7.5350 C   0  0  0  0  0  0  0  0  0  0  0  0
   18.5200   17.5420    7.7330 C   0  0  0  0  0  0  0  0  0  0  0  0
   19.6840   16.7950    8.2830 C   0  0  0  0  0  0  0  0  0  0  0  0
   20.8830   16.4850    7.6710 C   0  0  0  0  0  0  0  0  0  0  0  0
   21.5660   15.7770    8.6200 N   0  0  0  0  0  0  0  0  0  0  0  0
   23.1600   15.2450    8.4880 S   0  0  0  0  0  6  0  0  0  0  0  0
   23.9310   16.4210    8.1150 O   0  0  0  0  0  0  0  0  0  0  0  0
   23.0530   14.1220    7.5710 O   0  0  0  0  0  0  0  0  0  0  0  0
   23.6060   14.6620    9.9420 O   0  0  0  0  0  0  0  0  0  0  0  0
   24.2710   15.5000   10.7920 C   0  0  0  0  0  0  0  0  0  0  0  0
   25.4000   16.0360   10.2880 N   0  0  0  0  0  0  0  0  0  0  0  0
   26.0970   16.8390   11.1150 C   0  0  0  0  0  0  0  0  0  0  0  0
   25.7360   17.1250   12.4280 C   0  0  0  0  0  0  0  0  0  0  0  0
   24.5830   16.5530   12.9670 C   0  0  0  0  0  0  0  0  0  0  0  0
   23.8310   15.6930   12.1090 C   0  0  0  0  0  0  0  0  0  0  0  0
   22.6410   15.0040   12.5920 N   0  0  0  0  0  0  0  0  0  0  0  0
   23.1270   13.9530   13.5400 C   0  0  0  0  0  0  0  0  0  0  0  0
   23.1630   14.5990   14.9340 C   0  0  0  0  0  0  0  0  0  0  0  0
   22.8930   16.0810   14.6680 C   0  0  2  0  0  0  0  0  0  0  0  0
   21.9490   15.9940   13.4590 C   0  0  0  0  0  0  0  0  0  0  0  0
   24.1660   16.7600   14.2970 N   0  0  0  0  0  0  0  0  0  0  0  0
   24.6360   17.9070   15.1030 C   0  0  1  0  0  0  0  0  0  0  0  0
   25.9610   17.5560   15.7850 C   0  0  0  0  0  0  0  0  0  0  0  0
   26.4240   18.7220   16.6440 C   0  0  0  0  0  0  0  0  0  0  0  0
   26.5650   19.9810   15.8250 C   0  0  0  0  0  0  0  0  0  0  0  0
   27.3490   20.8750   16.1250 O   0  0  0  0  0  0  0  0  0  0  0  0
   25.7230   20.1090   14.7500 N   0  0  0  0  0  0  0  0  0  0  0  0
   24.8070   19.1980   14.2720 C   0  0  0  0  0  0  0  0  0  0  0  0
   24.1620   19.4650   13.2590 O   0  0  0  0  0  0  0  0  0  0  0  0
   20.8380   15.7480    9.7640 C   0  0  0  0  0  0  0  0  0  0  0  0
   19.6660   16.3240    9.5820 N   0  0  0  0  0  0  0  0  0  0  0  0
   18.9260   19.5054    8.5155 H   0  0  0  0  0  0  0  0  0  0  0  0
   19.7645   19.1250    6.9731 H   0  0  0  0  0  0  0  0  0  0  0  0
   18.0054   19.4887    6.9731 H   0  0  0  0  0  0  0  0  0  0  0  0
   17.6755   17.4457    8.4313 H   0  0  0  0  0  0  0  0  0  0  0  0
   18.2780   17.1127    6.7496 H   0  0  0  0  0  0  0  0  0  0  0  0
   21.2121   16.7473    6.6547 H   0  0  0  0  0  0  0  0  0  0  0  0
   27.0159   17.3010   10.7250 H   0  0  0  0  0  0  0  0  0  0  0  0
   26.3562   17.7984   13.0378 H   0  0  0  0  0  0  0  0  0  0  0  0
   22.4403   13.0937   13.5379 H   0  0  0  0  0  0  0  0  0  0  0  0
   24.1220   13.5860   13.2479 H   0  0  0  0  0  0  0  0  0  0  0  0
   22.3845   14.1709   15.5826 H   0  0  0  0  0  0  0  0  0  0  0  0
   24.1190   14.4312   15.4515 H   0  0  0  0  0  0  0  0  0  0  0  0
   22.4817   16.6434   15.5192 H   0  0  0  0  0  0  0  0  0  0  0  0
   20.9521   15.6362   13.7561 H   0  0  0  0  0  0  0  0  0  0  0  0
   21.7692   16.9619   12.9682 H   0  0  0  0  0  0  0  0  0  0  0  0
   23.8590   18.1069   15.8556 H   0  0  0  0  0  0  0  0  0  0  0  0
   25.8211   16.6683   16.4193 H   0  0  0  0  0  0  0  0  0  0  0  0
   26.7203   17.3473   15.0169 H   0  0  0  0  0  0  0  0  0  0  0  0
   25.6873   18.8941   17.4425 H   0  0  0  0  0  0  0  0  0  0  0  0
   27.4068   18.4719   17.0702 H   0  0  0  0  0  0  0  0  0  0  0  0
   25.7832   20.9989   14.2349 H   0  0  0  0  0  0  0  0  0  0  0  0
   21.1781   15.3055   10.7119 H   0  0  0  0  0  0  0  0  0  0  0  0
  1  2  1  0
  2  3  1  0
  3  4  2  0
  4  5  1  0
  5  6  1  0
  6  7  2  0
  6  8  2  0
  6  9  1  0
  9 10  1  0
 10 11  2  0
 11 12  1  0
 12 13  2  0
 13 14  1  0
 14 15  2  0
 15 16  1  0
 16 17  1  0
 17 18  1  0
 18 19  1  0
 19 20  1  0
 19 21  1  0
 21 22  1  0
 22 23  1  0
 23 24  1  0
 24 25  1  0
 25 26  2  0
 25 27  1  0
 27 28  1  0
 28 29  2  0
  5 30  1  0
 30 31  2  0
 31  3  1  0
 15 10  1  0
 20 16  1  0
 28 22  1  0
 21 14  1  0
  1 32  1  0
  1 33  1  0
  1 34  1  0
  2 35  1  0
  2 36  1  0
  4 37  1  0
 12 38  1  0
 13 39  1  0
 17 40  1  0
 17 41  1  0
 18 42  1  0
 18 43  1  0
 19 44  1  1
 20 45  1  0
 20 46  1  0
 22 47  1  1
 23 48  1  0
 23 49  1  0
 24 50  1  0
 24 51  1  0
 27 52  1  0
 30 53  1  0
M  END
>  <meeko>  (1418) 
{"is_sidechain": [true], "free_energy": -10.05, "intermolecular_energy": 0.0, "internal_energy": -10.05, "cluster_size": 19, "cluster_id": 1, "rank_in_cluster": 1}

>  <_RMSD_MCS_to_ref>  (1418) 
0.7183392111128439

$$$$
ligand
     RDKit          3D

 51 54  0  0  0  0  0  0  0  0999 V2000
   18.7970   18.8170    7.7190 C   0  0  0  0  0  0  0  0  0  0  0  0
   18.5280   17.3290    7.8810 C   0  0  0  0  0  0  0  0  0  0  0  0
   19.6530   16.4960    7.3760 C   0  0  0  0  0  0  0  0  0  0  0  0
   20.8290   16.1460    8.0110 C   0  0  0  0  0  0  0  0  0  0  0  0
   21.4810   15.3650    7.1000 N   0  0  0  0  0  0  0  0  0  0  0  0
   23.0690   14.8300    7.2210 S   0  0  0  0  0  6  0  0  0  0  0  0
   23.1770   13.6970    6.3220 O   0  0  0  0  0  0  0  0  0  0  0  0
   23.8970   16.0120    7.0870 O   0  0  0  0  0  0  0  0  0  0  0  0
   23.1820   14.2390    8.8900 C   0  0  0  0  0  0  0  0  0  0  0  0
   22.5050   13.0710    9.2560 C   0  0  0  0  0  0  0  0  0  0  0  0
   22.5930   12.6110   10.5710 C   0  0  0  0  0  0  0  0  0  0  0  0
   23.3460   13.3270   11.5070 C   0  0  0  0  0  0  0  0  0  0  0  0
   23.4530   12.8450   12.9090 C   0  0  0  0  0  0  0  0  0  0  0  0
   22.9170   11.8060   13.2770 O   0  0  0  0  0  0  0  0  0  0  0  0
   24.1930   13.6220   13.7690 N   0  0  0  0  0  0  0  0  0  0  0  0
   24.8420   14.7800   13.4070 C   0  0  0  0  0  0  0  0  0  0  0  0
   25.6390   15.5450   14.4240 C   0  0  0  0  0  0  0  0  0  0  0  0
   26.2630   14.9940   15.3230 O   0  0  0  0  0  0  0  0  0  0  0  0
   25.6270   16.9070   14.2330 N   0  0  0  0  0  0  0  0  0  0  0  0
   26.4830   17.7800   15.0270 C   0  0  2  0  0  0  0  0  0  0  0  0
   26.1770   17.6900   16.5180 C   0  0  0  0  0  0  0  0  0  0  0  0
   27.0710   18.6570   17.2780 C   0  0  0  0  0  0  0  0  0  0  0  0
   26.9210   20.0680   16.7570 C   0  0  0  0  0  0  0  0  0  0  0  0
   27.0170   21.0520   17.4830 O   0  0  0  0  0  0  0  0  0  0  0  0
   26.6990   20.2060   15.4100 N   0  0  0  0  0  0  0  0  0  0  0  0
   26.2650   19.2220   14.5580 C   0  0  0  0  0  0  0  0  0  0  0  0
   25.7460   19.4930   13.4760 O   0  0  0  0  0  0  0  0  0  0  0  0
   24.7900   15.2410   12.1480 C   0  0  0  0  0  0  0  0  0  0  0  0
   24.0150   14.5080   11.1440 C   0  0  0  0  0  0  0  0  0  0  0  0
   23.9280   14.9670    9.8270 C   0  0  0  0  0  0  0  0  0  0  0  0
   20.7430   15.2970    5.9620 C   0  0  0  0  0  0  0  0  0  0  0  0
   19.6190   15.9680    6.1010 N   0  0  0  0  0  0  0  0  0  0  0  0
   18.8815   19.2845    8.7111 H   0  0  0  0  0  0  0  0  0  0  0  0
   19.7359   18.9616    7.1643 H   0  0  0  0  0  0  0  0  0  0  0  0
   17.9682   19.2812    7.1643 H   0  0  0  0  0  0  0  0  0  0  0  0
   18.3768   17.1105    8.9484 H   0  0  0  0  0  0  0  0  0  0  0  0
   17.6332   17.0815    7.2910 H   0  0  0  0  0  0  0  0  0  0  0  0
   21.1635   16.4311    9.0194 H   0  0  0  0  0  0  0  0  0  0  0  0
   21.9085   12.5198    8.5141 H   0  0  0  0  0  0  0  0  0  0  0  0
   22.0723   11.6893   10.8697 H   0  0  0  0  0  0  0  0  0  0  0  0
   24.2664   13.3167   14.7500 H   0  0  0  0  0  0  0  0  0  0  0  0
   25.0056   17.3152   13.5202 H   0  0  0  0  0  0  0  0  0  0  0  0
   27.5264   17.4621   14.8844 H   0  0  0  0  0  0  0  0  0  0  0  0
   25.1227   17.9510   16.6924 H   0  0  0  0  0  0  0  0  0  0  0  0
   26.3637   16.6645   16.8694 H   0  0  0  0  0  0  0  0  0  0  0  0
   26.7966   18.6371   18.3431 H   0  0  0  0  0  0  0  0  0  0  0  0
   28.1167   18.3450   17.1399 H   0  0  0  0  0  0  0  0  0  0  0  0
   26.8745   21.1346   15.0004 H   0  0  0  0  0  0  0  0  0  0  0  0
   25.3249   16.1617   11.8720 H   0  0  0  0  0  0  0  0  0  0  0  0
   24.4412   15.8928    9.5279 H   0  0  0  0  0  0  0  0  0  0  0  0
   21.0425   14.7569    5.0517 H   0  0  0  0  0  0  0  0  0  0  0  0
  1  2  1  0
  2  3  1  0
  3  4  2  0
  4  5  1  0
  5  6  1  0
  6  7  2  0
  6  8  2  0
  6  9  1  0
  9 10  2  0
 10 11  1  0
 11 12  2  0
 12 13  1  0
 13 14  2  0
 13 15  1  0
 15 16  1  0
 16 17  1  0
 17 18  2  0
 17 19  1  0
 19 20  1  0
 20 21  1  0
 21 22  1  0
 22 23  1  0
 23 24  2  0
 23 25  1  0
 25 26  1  0
 26 27  2  0
 16 28  2  0
 28 29  1  0
 29 30  2  0
  5 31  1  0
 31 32  2  0
 32  3  1  0
 30  9  1  0
 29 12  1  0
 26 20  1  0
  1 33  1  0
  1 34  1  0
  1 35  1  0
  2 36  1  0
  2 37  1  0
  4 38  1  0
 10 39  1  0
 11 40  1  0
 15 41  1  0
 19 42  1  0
 20 43  1  1
 21 44  1  0
 21 45  1  0
 22 46  1  0
 22 47  1  0
 25 48  1  0
 28 49  1  0
 30 50  1  0
 31 51  1  0
M  END
>  <meeko>  (1419) 
{"is_sidechain": [true], "free_energy": -10.05, "intermolecular_energy": 0.0, "internal_energy": -10.05, "cluster_size": 10, "cluster_id": 1, "rank_in_cluster": 1}

>  <_RMSD_MCS_to_ref>  (1419) 
0.8912708778916641

$$$$
ligand
     RDKit          3D

 50 53  0  0  0  0  0  0  0  0999 V2000
   18.7970   18.8170    7.7190 C   0  0  0  0  0  0  0  0  0  0  0  0
   18.5280   17.3290    7.8810 C   0  0  0  0  0  0  0  0  0  0  0  0
   19.6050   16.4940    7.2830 C   0  0  0  0  0  0  0  0  0  0  0  0
   20.9690   16.5600    7.4840 C   0  0  0  0  0  0  0  0  0  0  0  0
   21.4750   15.5830    6.6760 N   0  0  0  0  0  0  0  0  0  0  0  0
   23.0650   15.0430    6.6670 S   0  0  0  0  0  6  0  0  0  0  0  0
   23.8840   16.2290    6.5060 O   0  0  0  0  0  0  0  0  0  0  0  0
   23.1090   13.9350    5.7360 O   0  0  0  0  0  0  0  0  0  0  0  0
   23.3020   14.4140    8.3090 C   0  0  0  0  0  0  0  0  0  0  0  0
   22.6530   13.2380    8.7010 C   0  0  0  0  0  0  0  0  0  0  0  0
   22.8400   12.7420    9.9980 C   0  0  0  0  0  0  0  0  0  0  0  0
   23.6440   13.4280   10.9150 C   0  0  0  0  0  0  0  0  0  0  0  0
   23.8940   12.8910   12.1890 N   0  0  0  0  0  0  0  0  0  0  0  0
   24.4750   13.6250   13.1800 N   0  0  0  0  0  0  0  0  0  0  0  0
   25.0830   14.7430   12.8790 C   0  0  0  0  0  0  0  0  0  0  0  0
   25.7010   15.5080   14.0290 C   0  0  0  0  0  0  0  0  0  0  0  0
   26.0460   14.9220   15.0420 O   0  0  0  0  0  0  0  0  0  0  0  0
   25.8650   16.8550   13.7900 N   0  0  0  0  0  0  0  0  0  0  0  0
   26.6220   17.6940   14.7040 C   0  0  2  0  0  0  0  0  0  0  0  0
   26.0970   17.6060   16.1340 C   0  0  0  0  0  0  0  0  0  0  0  0
   26.9060   18.5300   17.0310 C   0  0  0  0  0  0  0  0  0  0  0  0
   26.8930   19.9490   16.5140 C   0  0  0  0  0  0  0  0  0  0  0  0
   26.9300   20.9230   17.2600 O   0  0  0  0  0  0  0  0  0  0  0  0
   26.8700   20.1070   15.1520 N   0  0  0  0  0  0  0  0  0  0  0  0
   26.5350   19.1480   14.2280 C   0  0  0  0  0  0  0  0  0  0  0  0
   26.2060   19.4560   13.0830 O   0  0  0  0  0  0  0  0  0  0  0  0
   25.1600   15.2450   11.4650 C   0  0  0  0  0  0  0  0  0  0  0  0
   25.9370   16.1320   11.1500 O   0  0  0  0  0  0  0  0  0  0  0  0
   24.2820   14.5950   10.4920 C   0  0  0  0  0  0  0  0  0  0  0  0
   24.1190   15.1070    9.2010 C   0  0  0  0  0  0  0  0  0  0  0  0
   20.4490   14.9360    6.0630 C   0  0  0  0  0  0  0  0  0  0  0  0
   19.2980   15.4740    6.4050 N   0  0  0  0  0  0  0  0  0  0  0  0
   18.8815   19.2845    8.7111 H   0  0  0  0  0  0  0  0  0  0  0  0
   19.7359   18.9616    7.1643 H   0  0  0  0  0  0  0  0  0  0  0  0
   17.9682   19.2812    7.1643 H   0  0  0  0  0  0  0  0  0  0  0  0
   18.4546   17.0971    8.9538 H   0  0  0  0  0  0  0  0  0  0  0  0
   17.5899   17.0966    7.3557 H   0  0  0  0  0  0  0  0  0  0  0  0
   21.5221   17.2439    8.1446 H   0  0  0  0  0  0  0  0  0  0  0  0
   21.9993   12.7056    7.9945 H   0  0  0  0  0  0  0  0  0  0  0  0
   22.3499   11.8041   10.2983 H   0  0  0  0  0  0  0  0  0  0  0  0
   23.6305   11.9137   12.3799 H   0  0  0  0  0  0  0  0  0  0  0  0
   25.4438   17.2747   12.9490 H   0  0  0  0  0  0  0  0  0  0  0  0
   27.6633   17.3394   14.7066 H   0  0  0  0  0  0  0  0  0  0  0  0
   25.0396   17.9083   16.1552 H   0  0  0  0  0  0  0  0  0  0  0  0
   26.1909   16.5712   16.4951 H   0  0  0  0  0  0  0  0  0  0  0  0
   26.4754   18.5137   18.0431 H   0  0  0  0  0  0  0  0  0  0  0  0
   27.9473   18.1756   17.0445 H   0  0  0  0  0  0  0  0  0  0  0  0
   27.1290   21.0346   14.7868 H   0  0  0  0  0  0  0  0  0  0  0  0
   24.6240   16.0355    8.8962 H   0  0  0  0  0  0  0  0  0  0  0  0
   20.5645   14.0832    5.3779 H   0  0  0  0  0  0  0  0  0  0  0  0
  1  2  1  0
  2  3  1  0
  3  4  2  0
  4  5  1  0
  5  6  1  0
  6  7  2  0
  6  8  2  0
  6  9  1  0
  9 10  2  0
 10 11  1  0
 11 12  2  0
 12 13  1  0
 13 14  1  0
 14 15  2  0
 15 16  1  0
 16 17  2  0
 16 18  1  0
 18 19  1  0
 19 20  1  0
 20 21  1  0
 21 22  1  0
 22 23  2  0
 22 24  1  0
 24 25  1  0
 25 26  2  0
 15 27  1  0
 27 28  2  0
 27 29  1  0
 29 30  2  0
  5 31  1  0
 31 32  2  0
 32  3  1  0
 30  9  1  0
 29 12  1  0
 25 19  1  0
  1 33  1  0
  1 34  1  0
  1 35  1  0
  2 36  1  0
  2 37  1  0
  4 38  1  0
 10 39  1  0
 11 40  1  0
 13 41  1  0
 18 42  1  0
 19 43  1  1
 20 44  1  0
 20 45  1  0
 21 46  1  0
 21 47  1  0
 24 48  1  0
 30 49  1  0
 31 50  1  0
M  END
>  <meeko>  (1420) 
{"is_sidechain": [true], "free_energy": -10.05, "intermolecular_energy": 0.0, "internal_energy": -10.05, "cluster_size": 20, "cluster_id": 1, "rank_in_cluster": 1}

>  <_RMSD_MCS_to_ref>  (1420) 
1.0485935024275768

$$$$
ligand
     RDKit          3D

 44 47  0  0  0  0  0  0  0  0999 V2000
   18.9090   19.1540    7.5370 C   0  0  0  0  0  0  0  0  0  0  0  0
   18.7730   17.6460    7.6780 C   0  0  0  0  0  0  0  0  0  0  0  0
   20.0710   16.9940    8.0020 C   0  0  0  0  0  0  0  0  0  0  0  0
   20.4940   16.4450    9.1970 C   0  0  0  0  0  0  0  0  0  0  0  0
   21.7580   16.0020    8.9330 N   0  0  0  0  0  0  0  0  0  0  0  0
   22.7120   15.0860    9.9640 S   0  0  0  0  0  6  0  0  0  0  0  0
   22.3530   15.4880   11.3110 O   0  0  0  0  0  0  0  0  0  0  0  0
   22.5660   13.7170    9.5080 O   0  0  0  0  0  0  0  0  0  0  0  0
   24.4350   15.4620    9.8010 C   0  0  0  0  0  0  0  0  0  0  0  0
   25.1580   15.0760    8.2950 S   0  0  0  0  0  0  0  0  0  0  0  0
   26.6930   15.6120    8.8070 C   0  0  0  0  0  0  0  0  0  0  0  0
   26.6610   16.0960   10.0950 C   0  0  0  0  0  0  0  0  0  0  0  0
   25.3510   16.0290   10.6690 C   0  0  0  0  0  0  0  0  0  0  0  0
   25.1010   16.5150   12.0250 C   0  0  0  0  0  0  0  0  0  0  0  0
   24.8450   17.7840   12.4860 C   0  0  0  0  0  0  0  0  0  0  0  0
   24.6970   17.6220   13.8330 N   0  0  0  0  0  0  0  0  0  0  0  0
   24.3530   18.6320   14.8140 C   0  0  1  0  0  0  0  0  0  0  0  0
   24.8510   18.3180   16.2260 C   0  0  0  0  0  0  0  0  0  0  0  0
   26.3410   18.5820   16.3880 C   0  0  0  0  0  0  0  0  0  0  0  0
   26.7170   19.9670   15.9220 C   0  0  0  0  0  0  0  0  0  0  0  0
   27.6720   20.5810   16.3890 O   0  0  0  0  0  0  0  0  0  0  0  0
   25.9530   20.5090   14.9190 N   0  0  0  0  0  0  0  0  0  0  0  0
   24.8050   20.0030   14.3560 C   0  0  0  0  0  0  0  0  0  0  0  0
   24.1850   20.6530   13.5160 O   0  0  0  0  0  0  0  0  0  0  0  0
   24.8620   16.3360   14.1890 N   0  0  0  0  0  0  0  0  0  0  0  0
   25.1200   15.6480   13.0850 N   0  0  0  0  0  0  0  0  0  0  0  0
   22.0520   16.2410    7.6290 C   0  0  0  0  0  0  0  0  0  0  0  0
   21.0490   16.8560    7.0370 N   0  0  0  0  0  0  0  0  0  0  0  0
   18.9504   19.6134    8.5356 H   0  0  0  0  0  0  0  0  0  0  0  0
   19.8320   19.3891    6.9867 H   0  0  0  0  0  0  0  0  0  0  0  0
   18.0430   19.5504    6.9867 H   0  0  0  0  0  0  0  0  0  0  0  0
   18.0561   17.4284    8.4835 H   0  0  0  0  0  0  0  0  0  0  0  0
   18.4246   17.2460    6.7143 H   0  0  0  0  0  0  0  0  0  0  0  0
   19.9392   16.3797   10.1446 H   0  0  0  0  0  0  0  0  0  0  0  0
   27.5988   15.5755    8.1839 H   0  0  0  0  0  0  0  0  0  0  0  0
   27.5418   16.4896   10.6234 H   0  0  0  0  0  0  0  0  0  0  0  0
   24.7755   18.7149   11.9041 H   0  0  0  0  0  0  0  0  0  0  0  0
   23.2553   18.6280   14.8857 H   0  0  0  0  0  0  0  0  0  0  0  0
   24.3011   18.9461   16.9423 H   0  0  0  0  0  0  0  0  0  0  0  0
   24.6779   17.2478   16.4123 H   0  0  0  0  0  0  0  0  0  0  0  0
   26.6078   18.4787   17.4501 H   0  0  0  0  0  0  0  0  0  0  0  0
   26.8871   17.8530   15.7713 H   0  0  0  0  0  0  0  0  0  0  0  0
   26.2811   21.4088   14.5399 H   0  0  0  0  0  0  0  0  0  0  0  0
   22.9948   15.9605    7.1366 H   0  0  0  0  0  0  0  0  0  0  0  0
  1  2  1  0
  2  3  1  0
  3  4  2  0
  4  5  1  0
  5  6  1  0
  6  7  2  0
  6  8  2  0
  6  9  1  0
  9 10  1  0
 10 11  1  0
 11 12  2  0
 12 13  1  0
 13 14  1  0
 14 15  2  0
 15 16  1  0
 16 17  1  0
 17 18  1  0
 18 19  1  0
 19 20  1  0
 20 21  2  0
 20 22  1  0
 22 23  1  0
 23 24  2  0
 16 25  1  0
 25 26  2  0
  5 27  1  0
 27 28  2  0
 28  3  1  0
 13  9  2  0
 26 14  1  0
 23 17  1  0
  1 29  1  0
  1 30  1  0
  1 31  1  0
  2 32  1  0
  2 33  1  0
  4 34  1  0
 11 35  1  0
 12 36  1  0
 15 37  1  0
 17 38  1  1
 18 39  1  0
 18 40  1  0
 19 41  1  0
 19 42  1  0
 22 43  1  0
 27 44  1  0
M  END
>  <meeko>  (1421) 
{"is_sidechain": [true], "free_energy": -10.05, "intermolecular_energy": 0.0, "internal_energy": -10.05, "cluster_size": 16, "cluster_id": 1, "rank_in_cluster": 1}

>  <_RMSD_MCS_to_ref>  (1421) 
0.6731393284867231

$$$$
ligand
     RDKit          3D

 48 51  0  0  0  0  0  0  0  0999 V2000
   18.9090   19.1540    7.5370 C   0  0  0  0  0  0  0  0  0  0  0  0
   18.7730   17.6460    7.6780 C   0  0  0  0  0  0  0  0  0  0  0  0
   20.0840   16.9520    7.5630 C   0  0  0  0  0  0  0  0  0  0  0  0
   21.0860   16.8300    8.5050 C   0  0  0  0  0  0  0  0  0  0  0  0
   22.0490   16.0960    7.8800 N   0  0  0  0  0  0  0  0  0  0  0  0
   23.3910   15.4050    8.6080 S   0  0  0  0  0  6  0  0  0  0  0  0
   24.2740   16.4880    8.9800 O   0  0  0  0  0  0  0  0  0  0  0  0
   23.7980   14.3050    7.7540 O   0  0  0  0  0  0  0  0  0  0  0  0
   22.9110   14.6450   10.1030 C   0  0  0  0  0  0  0  0  0  0  0  0
   22.0930   13.5480   10.0660 N   0  0  0  0  0  0  0  0  0  0  0  0
   21.7300   13.0680   11.2690 N   0  0  0  0  0  0  0  0  0  0  0  0
   22.3670   13.8480   12.1540 C   0  0  0  0  0  0  0  0  0  0  0  0
   22.3640   13.8070   13.5570 C   0  0  0  0  0  0  0  0  0  0  0  0
   23.1600   14.8070   14.1640 C   0  0  0  0  0  0  0  0  0  0  0  0
   23.9230   15.7730   13.4220 C   0  0  0  0  0  0  0  0  0  0  0  0
   24.7360   16.8040   14.1320 C   0  0  0  0  0  0  0  0  0  0  0  0
   25.9600   16.7410   14.1190 O   0  0  0  0  0  0  0  0  0  0  0  0
   24.0400   17.7770   14.8130 N   0  0  0  0  0  0  0  0  0  0  0  0
   24.7320   18.7330   15.6690 C   0  0  1  0  0  0  0  0  0  0  0  0
   25.7870   18.0670   16.5460 C   0  0  0  0  0  0  0  0  0  0  0  0
   26.4950   19.1230   17.3790 C   0  0  0  0  0  0  0  0  0  0  0  0
   27.0900   20.2030   16.5050 C   0  0  0  0  0  0  0  0  0  0  0  0
   28.1370   20.7780   16.7880 O   0  0  0  0  0  0  0  0  0  0  0  0
   26.3840   20.5390   15.3780 N   0  0  0  0  0  0  0  0  0  0  0  0
   25.4130   19.7780   14.7790 C   0  0  0  0  0  0  0  0  0  0  0  0
   25.1070   19.9430   13.5980 O   0  0  0  0  0  0  0  0  0  0  0  0
   23.9320   15.8350   12.0070 C   0  0  0  0  0  0  0  0  0  0  0  0
   23.1320   14.8450   11.4430 C   0  0  0  0  0  0  0  0  0  0  0  0
   21.6200   15.7690    6.6330 C   0  0  0  0  0  0  0  0  0  0  0  0
   20.4330   16.2890    6.4030 N   0  0  0  0  0  0  0  0  0  0  0  0
   18.9504   19.6134    8.5356 H   0  0  0  0  0  0  0  0  0  0  0  0
   19.8320   19.3891    6.9867 H   0  0  0  0  0  0  0  0  0  0  0  0
   18.0430   19.5504    6.9867 H   0  0  0  0  0  0  0  0  0  0  0  0
   18.3372   17.4198    8.6623 H   0  0  0  0  0  0  0  0  0  0  0  0
   18.1273   17.2868    6.8632 H   0  0  0  0  0  0  0  0  0  0  0  0
   21.1030   17.2338    9.5281 H   0  0  0  0  0  0  0  0  0  0  0  0
   21.7788   13.1218    9.1825 H   0  0  0  0  0  0  0  0  0  0  0  0
   21.7936   13.0637   14.1333 H   0  0  0  0  0  0  0  0  0  0  0  0
   23.1969   14.8473   15.2626 H   0  0  0  0  0  0  0  0  0  0  0  0
   23.0159   17.8304   14.7164 H   0  0  0  0  0  0  0  0  0  0  0  0
   23.9884   19.1944   16.3354 H   0  0  0  0  0  0  0  0  0  0  0  0
   25.3026   17.3384   17.2127 H   0  0  0  0  0  0  0  0  0  0  0  0
   26.5202   17.5508   15.9088 H   0  0  0  0  0  0  0  0  0  0  0  0
   25.7709   19.5794   18.0699 H   0  0  0  0  0  0  0  0  0  0  0  0
   27.3105   18.6376   17.9353 H   0  0  0  0  0  0  0  0  0  0  0  0
   26.6032   21.4459   14.9416 H   0  0  0  0  0  0  0  0  0  0  0  0
   24.5013   16.5747   11.4250 H   0  0  0  0  0  0  0  0  0  0  0  0
   22.1855   15.1556    5.9161 H   0  0  0  0  0  0  0  0  0  0  0  0
  1  2  1  0
  2  3  1  0
  3  4  2  0
  4  5  1  0
  5  6  1  0
  6  7  2  0
  6  8  2  0
  6  9  1  0
  9 10  1  0
 10 11  1  0
 11 12  2  0
 12 13  1  0
 13 14  2  0
 14 15  1  0
 15 16  1  0
 16 17  2  0
 16 18  1  0
 18 19  1  0
 19 20  1  0
 20 21  1  0
 21 22  1  0
 22 23  2  0
 22 24  1  0
 24 25  1  0
 25 26  2  0
 15 27  2  0
 27 28  1  0
  5 29  1  0
 29 30  2  0
 30  3  1  0
 28  9  2  0
 28 12  1  0
 25 19  1  0
  1 31  1  0
  1 32  1  0
  1 33  1  0
  2 34  1  0
  2 35  1  0
  4 36  1  0
 10 37  1  0
 13 38  1  0
 14 39  1  0
 18 40  1  0
 19 41  1  1
 20 42  1  0
 20 43  1  0
 21 44  1  0
 21 45  1  0
 24 46  1  0
 27 47  1  0
 29 48  1  0
M  END
>  <meeko>  (1422) 
{"is_sidechain": [true], "free_energy": -10.05, "intermolecular_energy": 0.0, "internal_energy": -10.05, "cluster_size": 18, "cluster_id": 1, "rank_in_cluster": 1}

>  <_RMSD_MCS_to_ref>  (1422) 
0.844149144273557

$$$$
ligand
     RDKit          3D

 45 48  0  0  0  0  0  0  0  0999 V2000
   18.9090   19.1540    7.5370 C   0  0  0  0  0  0  0  0  0  0  0  0
   18.7730   17.6460    7.6780 C   0  0  0  0  0  0  0  0  0  0  0  0
   20.0630   16.9410    7.4450 C   0  0  0  0  0  0  0  0  0  0  0  0
   20.8360   16.2250    8.3390 C   0  0  0  0  0  0  0  0  0  0  0  0
   21.8840   15.7760    7.5900 N   0  0  0  0  0  0  0  0  0  0  0  0
   23.3060   15.0880    8.1920 S   0  0  0  0  0  6  0  0  0  0  0  0
   24.2690   16.1750    8.1370 O   0  0  0  0  0  0  0  0  0  0  0  0
   23.4970   13.8930    7.3930 O   0  0  0  0  0  0  0  0  0  0  0  0
   22.9990   14.6630    9.8120 C   0  0  0  0  0  0  0  0  0  0  0  0
   22.2470   13.6000   10.1500 C   0  0  0  0  0  0  0  0  0  0  0  0
   22.1240   13.3850   11.9040 S   0  0  0  0  0  0  0  0  0  0  0  0
   23.1240   14.7900   12.1100 C   0  0  0  0  0  0  0  0  0  0  0  0
   23.6060   15.4190   13.1430 N   0  0  0  0  0  0  0  0  0  0  0  0
   24.3290   16.4670   12.5720 C   0  0  0  0  0  0  0  0  0  0  0  0
   25.0550   17.4570   13.3660 C   0  0  0  0  0  0  0  0  0  0  0  0
   26.2010   17.8100   13.1130 O   0  0  0  0  0  0  0  0  0  0  0  0
   24.3260   17.9330   14.4270 N   0  0  0  0  0  0  0  0  0  0  0  0
   24.8960   18.8090   15.4330 C   0  0  1  0  0  0  0  0  0  0  0  0
   25.9780   18.1090   16.2490 C   0  0  0  0  0  0  0  0  0  0  0  0
   26.5510   19.0780   17.2710 C   0  0  0  0  0  0  0  0  0  0  0  0
   27.0730   20.3310   16.6060 C   0  0  0  0  0  0  0  0  0  0  0  0
   28.0370   20.9530   17.0410 O   0  0  0  0  0  0  0  0  0  0  0  0
   26.3900   20.7690   15.5010 N   0  0  0  0  0  0  0  0  0  0  0  0
   25.5000   20.0400   14.7490 C   0  0  0  0  0  0  0  0  0  0  0  0
   25.2060   20.3890   13.6080 O   0  0  0  0  0  0  0  0  0  0  0  0
   24.2510   16.4220   11.1840 C   0  0  0  0  0  0  0  0  0  0  0  0
   23.4820   15.3320   10.9100 N   0  0  0  0  0  0  0  0  0  0  0  0
   21.7630   16.2510    6.3230 C   0  0  0  0  0  0  0  0  0  0  0  0
   20.6600   16.9600    6.2010 N   0  0  0  0  0  0  0  0  0  0  0  0
   18.9504   19.6134    8.5356 H   0  0  0  0  0  0  0  0  0  0  0  0
   19.8320   19.3891    6.9867 H   0  0  0  0  0  0  0  0  0  0  0  0
   18.0430   19.5504    6.9867 H   0  0  0  0  0  0  0  0  0  0  0  0
   18.4219   17.4155    8.6947 H   0  0  0  0  0  0  0  0  0  0  0  0
   18.0566   17.2991    6.9188 H   0  0  0  0  0  0  0  0  0  0  0  0
   20.6490   16.0558    9.4097 H   0  0  0  0  0  0  0  0  0  0  0  0
   21.7620   12.9375    9.4180 H   0  0  0  0  0  0  0  0  0  0  0  0
   23.3371   17.6579   14.5121 H   0  0  0  0  0  0  0  0  0  0  0  0
   24.0890   19.1036   16.1200 H   0  0  0  0  0  0  0  0  0  0  0  0
   25.5421   17.2433   16.7692 H   0  0  0  0  0  0  0  0  0  0  0  0
   26.7801   17.7687   15.5776 H   0  0  0  0  0  0  0  0  0  0  0  0
   25.7615   19.3537   17.9856 H   0  0  0  0  0  0  0  0  0  0  0  0
   27.3874   18.5842   17.7873 H   0  0  0  0  0  0  0  0  0  0  0  0
   26.5607   21.7407   15.2050 H   0  0  0  0  0  0  0  0  0  0  0  0
   24.7104   17.1157   10.4644 H   0  0  0  0  0  0  0  0  0  0  0  0
   22.4847   16.0690    5.5131 H   0  0  0  0  0  0  0  0  0  0  0  0
  1  2  1  0
  2  3  1  0
  3  4  2  0
  4  5  1  0
  5  6  1  0
  6  7  2  0
  6  8  2  0
  6  9  1  0
  9 10  2  0
 10 11  1  0
 11 12  1  0
 12 13  2  0
 13 14  1  0
 14 15  1  0
 15 16  2  0
 15 17  1  0
 17 18  1  0
 18 19  1  0
 19 20  1  0
 20 21  1  0
 21 22  2  0
 21 23  1  0
 23 24  1  0
 24 25  2  0
 14 26  2  0
 26 27  1  0
  5 28  1  0
 28 29  2  0
 29  3  1  0
 27  9  1  0
 27 12  1  0
 24 18  1  0
  1 30  1  0
  1 31  1  0
  1 32  1  0
  2 33  1  0
  2 34  1  0
  4 35  1  0
 10 36  1  0
 17 37  1  0
 18 38  1  1
 19 39  1  0
 19 40  1  0
 20 41  1  0
 20 42  1  0
 23 43  1  0
 26 44  1  0
 28 45  1  0
M  END
>  <meeko>  (1423) 
{"is_sidechain": [true], "free_energy": -10.05, "intermolecular_energy": 0.0, "internal_energy": -10.05, "cluster_size": 20, "cluster_id": 1, "rank_in_cluster": 1}

>  <_RMSD_MCS_to_ref>  (1423) 
0.7274575207147453

$$$$
ligand
     RDKit          3D

 43 46  0  0  0  0  0  0  0  0999 V2000
   18.9090   19.1540    7.5370 C   0  0  0  0  0  0  0  0  0  0  0  0
   18.7730   17.6460    7.6780 C   0  0  0  0  0  0  0  0  0  0  0  0
   20.0250   17.0130    8.1760 C   0  0  0  0  0  0  0  0  0  0  0  0
   20.1820   16.0530    9.1570 C   0  0  0  0  0  0  0  0  0  0  0  0
   21.5290   15.8330    9.1940 N   0  0  0  0  0  0  0  0  0  0  0  0
   22.3380   14.9060   10.3380 S   0  0  0  0  0  6  0  0  0  0  0  0
   21.4590   14.8670   11.4950 O   0  0  0  0  0  0  0  0  0  0  0  0
   22.7900   13.7100    9.6570 O   0  0  0  0  0  0  0  0  0  0  0  0
   23.7470   15.8840   10.7720 C   0  0  0  0  0  0  0  0  0  0  0  0
   24.7950   16.0340    9.8550 C   0  0  0  0  0  0  0  0  0  0  0  0
   25.8920   16.8310   10.1660 C   0  0  0  0  0  0  0  0  0  0  0  0
   25.9800   17.4810   11.4070 C   0  0  0  0  0  0  0  0  0  0  0  0
   24.9660   17.3080   12.3740 C   0  0  0  0  0  0  0  0  0  0  0  0
   24.6740   17.7660   13.7080 C   0  0  0  0  0  0  0  0  0  0  0  0
   25.4260   18.5750   14.5770 N   0  0  0  0  0  0  0  0  0  0  0  0
   26.3300   17.9580   15.5470 C   0  0  0  0  0  0  0  0  0  0  0  0
   26.3470   18.7510   16.8350 C   0  0  0  0  0  0  0  0  0  0  0  0
   26.6880   20.1760   16.5250 C   0  0  0  0  0  0  0  0  0  0  0  0
   27.1760   20.9360   17.3560 O   0  0  0  0  0  0  0  0  0  0  0  0
   26.3440   20.6100   15.2730 N   0  0  0  0  0  0  0  0  0  0  0  0
   25.5890   19.9350   14.3380 C   0  0  0  0  0  0  0  0  0  0  0  0
   25.1490   20.5800   13.3910 O   0  0  0  0  0  0  0  0  0  0  0  0
   23.4510   17.3550   14.0840 N   0  0  0  0  0  0  0  0  0  0  0  0
   23.0320   16.5640   13.0930 N   0  0  0  0  0  0  0  0  0  0  0  0
   23.8700   16.5280   12.0140 C   0  0  0  0  0  0  0  0  0  0  0  0
   22.1410   16.6520    8.3020 C   0  0  0  0  0  0  0  0  0  0  0  0
   21.2520   17.3790    7.6580 N   0  0  0  0  0  0  0  0  0  0  0  0
   18.9504   19.6134    8.5356 H   0  0  0  0  0  0  0  0  0  0  0  0
   19.8320   19.3891    6.9867 H   0  0  0  0  0  0  0  0  0  0  0  0
   18.0430   19.5504    6.9867 H   0  0  0  0  0  0  0  0  0  0  0  0
   17.9599   17.4282    8.3862 H   0  0  0  0  0  0  0  0  0  0  0  0
   18.5579   17.2316    6.6820 H   0  0  0  0  0  0  0  0  0  0  0  0
   19.4015   15.5757    9.7677 H   0  0  0  0  0  0  0  0  0  0  0  0
   24.7504   15.5190    8.8840 H   0  0  0  0  0  0  0  0  0  0  0  0
   26.7005   16.9533    9.4302 H   0  0  0  0  0  0  0  0  0  0  0  0
   26.8423   18.1276   11.6269 H   0  0  0  0  0  0  0  0  0  0  0  0
   25.9902   16.9332   15.7574 H   0  0  0  0  0  0  0  0  0  0  0  0
   27.3461   17.9419   15.1259 H   0  0  0  0  0  0  0  0  0  0  0  0
   25.3562   18.7038   17.3104 H   0  0  0  0  0  0  0  0  0  0  0  0
   27.0967   18.3300   17.5211 H   0  0  0  0  0  0  0  0  0  0  0  0
   26.6866   21.5422   15.0001 H   0  0  0  0  0  0  0  0  0  0  0  0
   22.1538   16.0277   13.1379 H   0  0  0  0  0  0  0  0  0  0  0  0
   23.2278   16.7017    8.1396 H   0  0  0  0  0  0  0  0  0  0  0  0
  1  2  1  0
  2  3  1  0
  3  4  2  0
  4  5  1  0
  5  6  1  0
  6  7  2  0
  6  8  2  0
  6  9  1  0
  9 10  2  0
 10 11  1  0
 11 12  2  0
 12 13  1  0
 13 14  1  0
 14 15  1  0
 15 16  1  0
 16 17  1  0
 17 18  1  0
 18 19  2  0
 18 20  1  0
 20 21  1  0
 21 22  2  0
 14 23  2  0
 23 24  1  0
 24 25  1  0
  5 26  1  0
 26 27  2  0
 27  3  1  0
 25  9  1  0
 25 13  2  0
 21 15  1  0
  1 28  1  0
  1 29  1  0
  1 30  1  0
  2 31  1  0
  2 32  1  0
  4 33  1  0
 10 34  1  0
 11 35  1  0
 12 36  1  0
 16 37  1  0
 16 38  1  0
 17 39  1  0
 17 40  1  0
 20 41  1  0
 24 42  1  0
 26 43  1  0
M  END
>  <meeko>  (1424) 
{"is_sidechain": [true], "free_energy": -10.05, "intermolecular_energy": 0.0, "internal_energy": -10.05, "cluster_size": 17, "cluster_id": 1, "rank_in_cluster": 1}

>  <_RMSD_MCS_to_ref>  (1424) 
0.4578788049254947

$$$$
ligand
     RDKit          3D

 48 51  0  0  0  0  0  0  0  0999 V2000
   18.9090   19.1540    7.5370 C   0  0  0  0  0  0  0  0  0  0  0  0
   18.7730   17.6460    7.6780 C   0  0  0  0  0  0  0  0  0  0  0  0
   20.0670   16.9960    8.0200 C   0  0  0  0  0  0  0  0  0  0  0  0
   21.2470   16.9790    7.3030 C   0  0  0  0  0  0  0  0  0  0  0  0
   22.1040   16.2550    8.0840 N   0  0  0  0  0  0  0  0  0  0  0  0
   23.6350   15.7250    7.6380 S   0  0  0  0  0  6  0  0  0  0  0  0
   23.4700   15.2080    6.2940 O   0  0  0  0  0  0  0  0  0  0  0  0
   24.5180   16.8300    7.9560 O   0  0  0  0  0  0  0  0  0  0  0  0
   24.0630   14.3610    8.6980 C   0  0  0  0  0  0  0  0  0  0  0  0
   24.1130   13.0470    8.2040 C   0  0  0  0  0  0  0  0  0  0  0  0
   24.4500   11.9870    9.0350 C   0  0  0  0  0  0  0  0  0  0  0  0
   24.7440   12.2110   10.3790 C   0  0  0  0  0  0  0  0  0  0  0  0
   24.7040   13.5190   10.9140 C   0  0  0  0  0  0  0  0  0  0  0  0
   24.9660   13.9720   12.2500 C   0  0  0  0  0  0  0  0  0  0  0  0
   24.8270   15.3340   12.4080 C   0  0  0  0  0  0  0  0  0  0  0  0
   25.0290   16.0870   13.6370 C   0  0  0  0  0  0  0  0  0  0  0  0
   24.9700   15.5700   14.7510 O   0  0  0  0  0  0  0  0  0  0  0  0
   25.2850   17.4320   13.4940 N   0  0  0  0  0  0  0  0  0  0  0  0
   25.3660   18.3320   14.6330 C   0  0  1  0  0  0  0  0  0  0  0  0
   26.3160   17.8120   15.7070 C   0  0  0  0  0  0  0  0  0  0  0  0
   26.3780   18.8090   16.8550 C   0  0  0  0  0  0  0  0  0  0  0  0
   26.7760   20.1830   16.3670 C   0  0  0  0  0  0  0  0  0  0  0  0
   27.4440   20.9550   17.0470 O   0  0  0  0  0  0  0  0  0  0  0  0
   26.3240   20.5480   15.1240 N   0  0  0  0  0  0  0  0  0  0  0  0
   25.8580   19.6980   14.1510 C   0  0  0  0  0  0  0  0  0  0  0  0
   25.8320   20.0400   12.9680 O   0  0  0  0  0  0  0  0  0  0  0  0
   24.3740   16.0710   10.9410 S   0  0  0  0  0  0  0  0  0  0  0  0
   24.3610   14.5790   10.0670 C   0  0  0  0  0  0  0  0  0  0  0  0
   21.4490   15.8440    9.2000 C   0  0  0  0  0  0  0  0  0  0  0  0
   20.2040   16.2710    9.1880 N   0  0  0  0  0  0  0  0  0  0  0  0
   18.9504   19.6134    8.5356 H   0  0  0  0  0  0  0  0  0  0  0  0
   19.8320   19.3891    6.9867 H   0  0  0  0  0  0  0  0  0  0  0  0
   18.0430   19.5504    6.9867 H   0  0  0  0  0  0  0  0  0  0  0  0
   18.0457   17.4285    8.4741 H   0  0  0  0  0  0  0  0  0  0  0  0
   18.4381   17.2445    6.7102 H   0  0  0  0  0  0  0  0  0  0  0  0
   21.4508   17.4423    6.3264 H   0  0  0  0  0  0  0  0  0  0  0  0
   23.8823   12.8554    7.1457 H   0  0  0  0  0  0  0  0  0  0  0  0
   24.4852   10.9647    8.6305 H   0  0  0  0  0  0  0  0  0  0  0  0
   25.0092   11.3636   11.0283 H   0  0  0  0  0  0  0  0  0  0  0  0
   25.2507   13.2965   13.0701 H   0  0  0  0  0  0  0  0  0  0  0  0
   25.4239   17.8139   12.5476 H   0  0  0  0  0  0  0  0  0  0  0  0
   24.3629   18.4077   15.0781 H   0  0  0  0  0  0  0  0  0  0  0  0
   25.9517   16.8439   16.0813 H   0  0  0  0  0  0  0  0  0  0  0  0
   27.3206   17.6844   15.2774 H   0  0  0  0  0  0  0  0  0  0  0  0
   25.3879   18.8703   17.3304 H   0  0  0  0  0  0  0  0  0  0  0  0
   27.1343   18.4633   17.5751 H   0  0  0  0  0  0  0  0  0  0  0  0
   26.3352   21.5532   14.8996 H   0  0  0  0  0  0  0  0  0  0  0  0
   21.8963   15.2387   10.0022 H   0  0  0  0  0  0  0  0  0  0  0  0
  1  2  1  0
  2  3  1  0
  3  4  2  0
  4  5  1  0
  5  6  1  0
  6  7  2  0
  6  8  2  0
  6  9  1  0
  9 10  2  0
 10 11  1  0
 11 12  2  0
 12 13  1  0
 13 14  1  0
 14 15  2  0
 15 16  1  0
 16 17  2  0
 16 18  1  0
 18 19  1  0
 19 20  1  0
 20 21  1  0
 21 22  1  0
 22 23  2  0
 22 24  1  0
 24 25  1  0
 25 26  2  0
 15 27  1  0
 27 28  1  0
  5 29  1  0
 29 30  2  0
 30  3  1  0
 28  9  1  0
 28 13  2  0
 25 19  1  0
  1 31  1  0
  1 32  1  0
  1 33  1  0
  2 34  1  0
  2 35  1  0
  4 36  1  0
 10 37  1  0
 11 38  1  0
 12 39  1  0
 14 40  1  0
 18 41  1  0
 19 42  1  1
 20 43  1  0
 20 44  1  0
 21 45  1  0
 21 46  1  0
 24 47  1  0
 29 48  1  0
M  END
>  <meeko>  (1425) 
{"is_sidechain": [true], "free_energy": -10.05, "intermolecular_energy": 0.0, "internal_energy": -10.05, "cluster_size": 19, "cluster_id": 1, "rank_in_cluster": 1}

>  <_RMSD_MCS_to_ref>  (1425) 
0.6133618652783834

$$$$
ligand
     RDKit          3D

 45 48  0  0  0  0  0  0  0  0999 V2000
   18.9090   19.1540    7.5370 C   0  0  0  0  0  0  0  0  0  0  0  0
   18.7730   17.6460    7.6780 C   0  0  0  0  0  0  0  0  0  0  0  0
   20.0840   16.9500    7.5590 C   0  0  0  0  0  0  0  0  0  0  0  0
   20.7260   16.1440    8.4770 C   0  0  0  0  0  0  0  0  0  0  0  0
   21.8690   15.7560    7.8400 N   0  0  0  0  0  0  0  0  0  0  0  0
   23.1570   14.9510    8.5470 S   0  0  0  0  0  6  0  0  0  0  0  0
   22.8520   13.5360    8.4780 O   0  0  0  0  0  0  0  0  0  0  0  0
   24.3660   15.5360    8.0090 O   0  0  0  0  0  0  0  0  0  0  0  0
   23.1850   15.3200   10.2740 C   0  0  0  0  0  0  0  0  0  0  0  0
   23.5140   16.4540   11.0040 C   0  0  0  0  0  0  0  0  0  0  0  0
   23.3380   16.1620   12.3860 C   0  0  0  0  0  0  0  0  0  0  0  0
   23.4850   16.8520   13.6030 C   0  0  0  0  0  0  0  0  0  0  0  0
   23.9050   18.1800   13.6480 N   0  0  0  0  0  0  0  0  0  0  0  0
   25.1660   18.4390   14.3520 C   0  0  2  0  0  0  0  0  0  0  0  0
   25.0000   18.1590   15.8440 C   0  0  0  0  0  0  0  0  0  0  0  0
   26.2880   18.5020   16.5750 C   0  0  0  0  0  0  0  0  0  0  0  0
   26.6840   19.9390   16.3400 C   0  0  0  0  0  0  0  0  0  0  0  0
   27.3060   20.5950   17.1690 O   0  0  0  0  0  0  0  0  0  0  0  0
   26.3540   20.4740   15.1200 N   0  0  0  0  0  0  0  0  0  0  0  0
   25.5400   19.9180   14.1630 C   0  0  0  0  0  0  0  0  0  0  0  0
   25.1560   20.5810   13.1990 O   0  0  0  0  0  0  0  0  0  0  0  0
   23.1870   16.1860   14.7460 N   0  0  0  0  0  0  0  0  0  0  0  0
   22.7710   14.9050   14.6650 C   0  0  0  0  0  0  0  0  0  0  0  0
   22.6060   14.1560   13.5630 N   0  0  0  0  0  0  0  0  0  0  0  0
   22.9070   14.8480   12.4580 C   0  0  0  0  0  0  0  0  0  0  0  0
   22.8310   14.3510   11.1890 N   0  0  0  0  0  0  0  0  0  0  0  0
   21.9290   16.3600    6.6250 C   0  0  0  0  0  0  0  0  0  0  0  0
   20.8480   17.0810    6.4160 N   0  0  0  0  0  0  0  0  0  0  0  0
   18.9504   19.6134    8.5356 H   0  0  0  0  0  0  0  0  0  0  0  0
   19.8320   19.3891    6.9867 H   0  0  0  0  0  0  0  0  0  0  0  0
   18.0430   19.5504    6.9867 H   0  0  0  0  0  0  0  0  0  0  0  0
   18.3399   17.4199    8.6636 H   0  0  0  0  0  0  0  0  0  0  0  0
   18.1250   17.2876    6.8645 H   0  0  0  0  0  0  0  0  0  0  0  0
   20.3927   15.8756    9.4904 H   0  0  0  0  0  0  0  0  0  0  0  0
   23.8526   17.4136   10.5862 H   0  0  0  0  0  0  0  0  0  0  0  0
   23.3605   18.9375   13.2114 H   0  0  0  0  0  0  0  0  0  0  0  0
   25.9523   17.7857   13.9460 H   0  0  0  0  0  0  0  0  0  0  0  0
   24.1787   18.7729   16.2423 H   0  0  0  0  0  0  0  0  0  0  0  0
   24.7694   17.0936   15.9917 H   0  0  0  0  0  0  0  0  0  0  0  0
   26.1418   18.3421   17.6534 H   0  0  0  0  0  0  0  0  0  0  0  0
   27.0891   17.8532   16.1913 H   0  0  0  0  0  0  0  0  0  0  0  0
   26.7614   21.3934   14.8974 H   0  0  0  0  0  0  0  0  0  0  0  0
   22.5380   14.4131   15.6209 H   0  0  0  0  0  0  0  0  0  0  0  0
   22.5495   13.3897   10.9492 H   0  0  0  0  0  0  0  0  0  0  0  0
   22.7637   16.2606    5.9155 H   0  0  0  0  0  0  0  0  0  0  0  0
  1  2  1  0
  2  3  1  0
  3  4  2  0
  4  5  1  0
  5  6  1  0
  6  7  2  0
  6  8  2  0
  6  9  1  0
  9 10  2  0
 10 11  1  0
 11 12  2  0
 12 13  1  0
 13 14  1  0
 14 15  1  0
 15 16  1  0
 16 17  1  0
 17 18  2  0
 17 19  1  0
 19 20  1  0
 20 21  2  0
 12 22  1  0
 22 23  2  0
 23 24  1  0
 24 25  2  0
 25 26  1  0
  5 27  1  0
 27 28  2  0
 28  3  1  0
 26  9  1  0
 25 11  1  0
 20 14  1  0
  1 29  1  0
  1 30  1  0
  1 31  1  0
  2 32  1  0
  2 33  1  0
  4 34  1  0
 10 35  1  0
 13 36  1  0
 14 37  1  6
 15 38  1  0
 15 39  1  0
 16 40  1  0
 16 41  1  0
 19 42  1  0
 23 43  1  0
 26 44  1  0
 27 45  1  0
M  END
>  <meeko>  (1426) 
{"is_sidechain": [true], "free_energy": -10.05, "intermolecular_energy": 0.0, "internal_energy": -10.05, "cluster_size": 20, "cluster_id": 1, "rank_in_cluster": 1}

>  <_RMSD_MCS_to_ref>  (1426) 
0.6183746616916173

$$$$
ligand
     RDKit          3D

 52 56  0  0  0  0  0  0  0  0999 V2000
   18.8250   19.0170    7.5350 C   0  0  0  0  0  0  0  0  0  0  0  0
   18.5200   17.5420    7.7330 C   0  0  0  0  0  0  0  0  0  0  0  0
   19.7300   16.6900    7.5740 C   0  0  0  0  0  0  0  0  0  0  0  0
   20.7680   16.4850    8.4630 C   0  0  0  0  0  0  0  0  0  0  0  0
   21.6160   15.6400    7.8050 N   0  0  0  0  0  0  0  0  0  0  0  0
   22.8970   14.7960    8.5100 S   0  0  0  0  0  6  0  0  0  0  0  0
   23.2600   13.7620    7.5650 O   0  0  0  0  0  0  0  0  0  0  0  0
   23.8180   15.8260    8.9490 O   0  0  0  0  0  0  0  0  0  0  0  0
   22.1990   14.0170    9.9430 C   0  0  0  0  0  0  0  0  0  0  0  0
   21.3520   12.9230    9.7930 C   0  0  0  0  0  0  0  0  0  0  0  0
   20.8380   12.2970   10.9320 C   0  0  0  0  0  0  0  0  0  0  0  0
   21.1920   12.7390   12.2230 C   0  0  0  0  0  0  0  0  0  0  0  0
   20.6970   12.1330   13.3810 C   0  0  0  0  0  0  0  0  0  0  0  0
   21.0070   12.5110   14.6420 N   0  0  0  0  0  0  0  0  0  0  0  0
   21.8750   13.5400   14.7710 C   0  0  0  0  0  0  0  0  0  0  0  0
   22.4520   14.2110   13.6990 C   0  0  0  0  0  0  0  0  0  0  0  0
   23.4350   15.2370   13.9600 C   0  0  0  0  0  0  0  0  0  0  0  0
   23.2570   16.3350   14.7740 C   0  0  0  0  0  0  0  0  0  0  0  0
   24.4820   16.9360   14.7810 N   0  0  0  0  0  0  0  0  0  0  0  0
   24.9160   18.0340   15.6250 C   0  0  1  0  0  0  0  0  0  0  0  0
   26.0570   17.6300   16.5640 C   0  0  0  0  0  0  0  0  0  0  0  0
   26.4680   18.8260   17.4060 C   0  0  0  0  0  0  0  0  0  0  0  0
   26.8650   19.9920   16.5320 C   0  0  0  0  0  0  0  0  0  0  0  0
   27.5720   20.9090   16.9410 O   0  0  0  0  0  0  0  0  0  0  0  0
   26.3200   20.0260   15.2730 N   0  0  0  0  0  0  0  0  0  0  0  0
   25.2940   19.2440   14.7890 C   0  0  0  0  0  0  0  0  0  0  0  0
   24.6730   19.5970   13.7900 O   0  0  0  0  0  0  0  0  0  0  0  0
   25.3450   16.2870   13.9760 N   0  0  0  0  0  0  0  0  0  0  0  0
   24.7050   15.2470   13.4550 N   0  0  0  0  0  0  0  0  0  0  0  0
   22.0740   13.8290   12.3860 C   0  0  0  0  0  0  0  0  0  0  0  0
   22.5260   14.4830   11.2180 C   0  0  0  0  0  0  0  0  0  0  0  0
   21.0880   15.3460    6.5850 C   0  0  0  0  0  0  0  0  0  0  0  0
   19.9240   15.9450    6.4230 N   0  0  0  0  0  0  0  0  0  0  0  0
   18.9260   19.5054    8.5155 H   0  0  0  0  0  0  0  0  0  0  0  0
   19.7645   19.1250    6.9731 H   0  0  0  0  0  0  0  0  0  0  0  0
   18.0054   19.4887    6.9731 H   0  0  0  0  0  0  0  0  0  0  0  0
   18.1155   17.3970    8.7456 H   0  0  0  0  0  0  0  0  0  0  0  0
   17.7930   17.2419    6.9640 H   0  0  0  0  0  0  0  0  0  0  0  0
   20.8849   16.9068    9.4722 H   0  0  0  0  0  0  0  0  0  0  0  0
   21.0902   12.5553    8.7899 H   0  0  0  0  0  0  0  0  0  0  0  0
   20.1478   11.4479   10.8196 H   0  0  0  0  0  0  0  0  0  0  0  0
   20.0049   11.2870   13.2578 H   0  0  0  0  0  0  0  0  0  0  0  0
   22.1409   13.8662   15.7873 H   0  0  0  0  0  0  0  0  0  0  0  0
   22.3420   16.6523   15.2956 H   0  0  0  0  0  0  0  0  0  0  0  0
   24.0627   18.3085   16.2626 H   0  0  0  0  0  0  0  0  0  0  0  0
   25.7190   16.8166   17.2229 H   0  0  0  0  0  0  0  0  0  0  0  0
   26.9169   17.2873   15.9697 H   0  0  0  0  0  0  0  0  0  0  0  0
   25.6225   19.1252   18.0429 H   0  0  0  0  0  0  0  0  0  0  0  0
   27.3326   18.5399   18.0229 H   0  0  0  0  0  0  0  0  0  0  0  0
   26.7222   20.7115   14.6178 H   0  0  0  0  0  0  0  0  0  0  0  0
   23.1516   15.3825   11.3156 H   0  0  0  0  0  0  0  0  0  0  0  0
   21.5668   14.6975    5.8365 H   0  0  0  0  0  0  0  0  0  0  0  0
  1  2  1  0
  2  3  1  0
  3  4  2  0
  4  5  1  0
  5  6  1  0
  6  7  2  0
  6  8  2  0
  6  9  1  0
  9 10  2  0
 10 11  1  0
 11 12  2  0
 12 13  1  0
 13 14  2  0
 14 15  1  0
 15 16  2  0
 16 17  1  0
 17 18  2  0
 18 19  1  0
 19 20  1  0
 20 21  1  0
 21 22  1  0
 22 23  1  0
 23 24  2  0
 23 25  1  0
 25 26  1  0
 26 27  2  0
 19 28  1  0
 28 29  2  0
 16 30  1  0
 30 31  2  0
  5 32  1  0
 32 33  2  0
 33  3  1  0
 31  9  1  0
 30 12  1  0
 29 17  1  0
 26 20  1  0
  1 34  1  0
  1 35  1  0
  1 36  1  0
  2 37  1  0
  2 38  1  0
  4 39  1  0
 10 40  1  0
 11 41  1  0
 13 42  1  0
 15 43  1  0
 18 44  1  0
 20 45  1  1
 21 46  1  0
 21 47  1  0
 22 48  1  0
 22 49  1  0
 25 50  1  0
 31 51  1  0
 32 52  1  0
M  END
>  <meeko>  (1427) 
{"is_sidechain": [true], "free_energy": -10.04, "intermolecular_energy": 0.0, "internal_energy": -10.04, "cluster_size": 20, "cluster_id": 1, "rank_in_cluster": 1}

>  <_RMSD_MCS_to_ref>  (1427) 
0.6576942045256804

$$$$
ligand
     RDKit          3D

 48 51  0  0  0  0  0  0  0  0999 V2000
   18.7970   18.8170    7.7190 C   0  0  0  0  0  0  0  0  0  0  0  0
   18.5280   17.3290    7.8810 C   0  0  0  0  0  0  0  0  0  0  0  0
   19.7850   16.5310    7.9040 C   0  0  0  0  0  0  0  0  0  0  0  0
   20.3770   15.8720    8.9640 C   0  0  0  0  0  0  0  0  0  0  0  0
   21.4840   15.2890    8.4190 N   0  0  0  0  0  0  0  0  0  0  0  0
   22.7180   14.5420    9.2740 S   0  0  0  0  0  6  0  0  0  0  0  0
   23.0720   13.3560    8.5230 O   0  0  0  0  0  0  0  0  0  0  0  0
   23.6680   15.5820    9.6160 O   0  0  0  0  0  0  0  0  0  0  0  0
   22.0910   13.9760   10.7560 C   0  0  0  0  0  0  0  0  0  0  0  0
   20.9450   13.1840   10.8900 C   0  0  0  0  0  0  0  0  0  0  0  0
   20.6520   12.9210   12.1630 N   0  0  0  0  0  0  0  0  0  0  0  0
   21.6320   13.5270   12.8810 N   0  0  0  0  0  0  0  0  0  0  0  0
   21.7690   13.5410   14.2700 C   0  0  0  0  0  0  0  0  0  0  0  0
   22.7960   14.1900   14.8410 C   0  0  0  0  0  0  0  0  0  0  0  0
   23.7750   14.8650   13.9940 C   0  0  0  0  0  0  0  0  0  0  0  0
   24.9110   15.5980   14.6400 C   0  0  0  0  0  0  0  0  0  0  0  0
   25.9240   15.0090   15.0030 O   0  0  0  0  0  0  0  0  0  0  0  0
   24.7530   16.9570   14.7320 N   0  0  0  0  0  0  0  0  0  0  0  0
   25.8440   17.8150   15.1730 C   0  0  2  0  0  0  0  0  0  0  0  0
   26.0800   17.7180   16.6770 C   0  0  0  0  0  0  0  0  0  0  0  0
   27.2020   18.6630   17.0770 C   0  0  0  0  0  0  0  0  0  0  0  0
   26.9080   20.0800   16.6430 C   0  0  0  0  0  0  0  0  0  0  0  0
   27.2740   21.0560   17.2900 O   0  0  0  0  0  0  0  0  0  0  0  0
   26.2310   20.2330   15.4590 N   0  0  0  0  0  0  0  0  0  0  0  0
   25.5050   19.2630   14.8130 C   0  0  0  0  0  0  0  0  0  0  0  0
   24.6450   19.5570   13.9830 O   0  0  0  0  0  0  0  0  0  0  0  0
   23.6340   14.8790   12.6500 C   0  0  0  0  0  0  0  0  0  0  0  0
   22.5390   14.1880   12.0420 C   0  0  0  0  0  0  0  0  0  0  0  0
   21.5760   15.6430    7.1120 C   0  0  0  0  0  0  0  0  0  0  0  0
   20.5470   16.3860    6.7610 N   0  0  0  0  0  0  0  0  0  0  0  0
   18.8815   19.2845    8.7111 H   0  0  0  0  0  0  0  0  0  0  0  0
   19.7359   18.9616    7.1643 H   0  0  0  0  0  0  0  0  0  0  0  0
   17.9682   19.2812    7.1643 H   0  0  0  0  0  0  0  0  0  0  0  0
   17.9879   17.1671    8.8255 H   0  0  0  0  0  0  0  0  0  0  0  0
   17.9321   16.9969    7.0181 H   0  0  0  0  0  0  0  0  0  0  0  0
   20.0345   15.8274   10.0084 H   0  0  0  0  0  0  0  0  0  0  0  0
   20.3518   12.8190   10.0386 H   0  0  0  0  0  0  0  0  0  0  0  0
   21.0330   13.0185   14.8988 H   0  0  0  0  0  0  0  0  0  0  0  0
   22.8989   14.2130   15.9359 H   0  0  0  0  0  0  0  0  0  0  0  0
   23.8463   17.3786   14.4847 H   0  0  0  0  0  0  0  0  0  0  0  0
   26.7637   17.4841   14.6683 H   0  0  0  0  0  0  0  0  0  0  0  0
   25.1593   17.9955   17.2111 H   0  0  0  0  0  0  0  0  0  0  0  0
   26.3593   16.6866   16.9381 H   0  0  0  0  0  0  0  0  0  0  0  0
   27.3170   18.6399   18.1707 H   0  0  0  0  0  0  0  0  0  0  0  0
   28.1268   18.3331   16.5811 H   0  0  0  0  0  0  0  0  0  0  0  0
   26.2712   21.1610   15.0140 H   0  0  0  0  0  0  0  0  0  0  0  0
   24.3595   15.4205   12.0251 H   0  0  0  0  0  0  0  0  0  0  0  0
   22.3958   15.3501    6.4396 H   0  0  0  0  0  0  0  0  0  0  0  0
  1  2  1  0
  2  3  1  0
  3  4  2  0
  4  5  1  0
  5  6  1  0
  6  7  2  0
  6  8  2  0
  6  9  1  0
  9 10  1  0
 10 11  2  0
 11 12  1  0
 12 13  1  0
 13 14  2  0
 14 15  1  0
 15 16  1  0
 16 17  2  0
 16 18  1  0
 18 19  1  0
 19 20  1  0
 20 21  1  0
 21 22  1  0
 22 23  2  0
 22 24  1  0
 24 25  1  0
 25 26  2  0
 15 27  2  0
 27 28  1  0
  5 29  1  0
 29 30  2  0
 30  3  1  0
 28  9  2  0
 28 12  1  0
 25 19  1  0
  1 31  1  0
  1 32  1  0
  1 33  1  0
  2 34  1  0
  2 35  1  0
  4 36  1  0
 10 37  1  0
 13 38  1  0
 14 39  1  0
 18 40  1  0
 19 41  1  6
 20 42  1  0
 20 43  1  0
 21 44  1  0
 21 45  1  0
 24 46  1  0
 27 47  1  0
 29 48  1  0
M  END
>  <meeko>  (1428) 
{"is_sidechain": [true], "free_energy": -10.04, "intermolecular_energy": 0.0, "internal_energy": -10.04, "cluster_size": 10, "cluster_id": 1, "rank_in_cluster": 1}

>  <_RMSD_MCS_to_ref>  (1428) 
0.6720937434614311

$$$$
ligand
     RDKit          3D

 47 50  0  0  0  0  0  0  0  0999 V2000
   18.7970   18.8170    7.7190 C   0  0  0  0  0  0  0  0  0  0  0  0
   18.5280   17.3290    7.8810 C   0  0  0  0  0  0  0  0  0  0  0  0
   19.7660   16.5160    7.7360 C   0  0  0  0  0  0  0  0  0  0  0  0
   20.6980   16.1700    8.6940 C   0  0  0  0  0  0  0  0  0  0  0  0
   21.6330   15.4500    8.0090 N   0  0  0  0  0  0  0  0  0  0  0  0
   22.8860   14.5750    8.6940 S   0  0  0  0  0  6  0  0  0  0  0  0
   24.0730   15.4000    8.5940 O   0  0  0  0  0  0  0  0  0  0  0  0
   22.7990   13.2310    8.1660 O   0  0  0  0  0  0  0  0  0  0  0  0
   22.5950   14.4150   10.4300 C   0  0  0  0  0  0  0  0  0  0  0  0
   21.6300   13.7470   11.1730 C   0  0  0  0  0  0  0  0  0  0  0  0
   21.8990   13.9750   12.5420 C   0  0  0  0  0  0  0  0  0  0  0  0
   21.2390   13.5410   13.6330 N   0  0  0  0  0  0  0  0  0  0  0  0
   21.7780   13.9540   14.7910 C   0  0  0  0  0  0  0  0  0  0  0  0
   22.8650   14.7270   14.9680 N   0  0  0  0  0  0  0  0  0  0  0  0
   23.5090   15.1490   13.8540 C   0  0  0  0  0  0  0  0  0  0  0  0
   24.7100   16.0090   14.0050 C   0  0  0  0  0  0  0  0  0  0  0  0
   25.4350   16.2520   13.0460 O   0  0  0  0  0  0  0  0  0  0  0  0
   24.9170   16.4990   15.2720 N   0  0  0  0  0  0  0  0  0  0  0  0
   25.9490   17.4750   15.5760 C   0  0  2  0  0  0  0  0  0  0  0  0
   26.2160   17.5770   17.0740 C   0  0  0  0  0  0  0  0  0  0  0  0
   27.2860   18.6270   17.3280 C   0  0  0  0  0  0  0  0  0  0  0  0
   26.8980   19.9610   16.7340 C   0  0  0  0  0  0  0  0  0  0  0  0
   27.2170   21.0290   17.2490 O   0  0  0  0  0  0  0  0  0  0  0  0
   26.1920   19.9280   15.5590 N   0  0  0  0  0  0  0  0  0  0  0  0
   25.5140   18.8470   15.0500 C   0  0  0  0  0  0  0  0  0  0  0  0
   24.6270   18.9960   14.2100 O   0  0  0  0  0  0  0  0  0  0  0  0
   23.0250   14.7730   12.6170 C   0  0  0  0  0  0  0  0  0  0  0  0
   23.4380   15.0270   11.3340 N   0  0  0  0  0  0  0  0  0  0  0  0
   21.2360   15.3180    6.7180 C   0  0  0  0  0  0  0  0  0  0  0  0
   20.1110   15.9720    6.5130 N   0  0  0  0  0  0  0  0  0  0  0  0
   18.8815   19.2845    8.7111 H   0  0  0  0  0  0  0  0  0  0  0  0
   19.7359   18.9616    7.1643 H   0  0  0  0  0  0  0  0  0  0  0  0
   17.9682   19.2812    7.1643 H   0  0  0  0  0  0  0  0  0  0  0  0
   18.1029   17.1524    8.8801 H   0  0  0  0  0  0  0  0  0  0  0  0
   17.8282   17.0237    7.0891 H   0  0  0  0  0  0  0  0  0  0  0  0
   20.6889   16.4183    9.7656 H   0  0  0  0  0  0  0  0  0  0  0  0
   20.8024   13.1464   10.7676 H   0  0  0  0  0  0  0  0  0  0  0  0
   21.2689   13.6197   15.7070 H   0  0  0  0  0  0  0  0  0  0  0  0
   24.3161   16.1606   16.0370 H   0  0  0  0  0  0  0  0  0  0  0  0
   26.8784   17.1457   15.0885 H   0  0  0  0  0  0  0  0  0  0  0  0
   25.2896   17.8646   17.5928 H   0  0  0  0  0  0  0  0  0  0  0  0
   26.5609   16.6033   17.4520 H   0  0  0  0  0  0  0  0  0  0  0  0
   27.4227   18.7441   18.4132 H   0  0  0  0  0  0  0  0  0  0  0  0
   28.2198   18.2934   16.8519 H   0  0  0  0  0  0  0  0  0  0  0  0
   26.1677   20.7962   15.0054 H   0  0  0  0  0  0  0  0  0  0  0  0
   24.2602   15.5938   11.0816 H   0  0  0  0  0  0  0  0  0  0  0  0
   21.7775   14.7454    5.9506 H   0  0  0  0  0  0  0  0  0  0  0  0
  1  2  1  0
  2  3  1  0
  3  4  2  0
  4  5  1  0
  5  6  1  0
  6  7  2  0
  6  8  2  0
  6  9  1  0
  9 10  2  0
 10 11  1  0
 11 12  2  0
 12 13  1  0
 13 14  2  0
 14 15  1  0
 15 16  1  0
 16 17  2  0
 16 18  1  0
 18 19  1  0
 19 20  1  0
 20 21  1  0
 21 22  1  0
 22 23  2  0
 22 24  1  0
 24 25  1  0
 25 26  2  0
 15 27  2  0
 27 28  1  0
  5 29  1  0
 29 30  2  0
 30  3  1  0
 28  9  1  0
 27 11  1  0
 25 19  1  0
  1 31  1  0
  1 32  1  0
  1 33  1  0
  2 34  1  0
  2 35  1  0
  4 36  1  0
 10 37  1  0
 13 38  1  0
 18 39  1  0
 19 40  1  6
 20 41  1  0
 20 42  1  0
 21 43  1  0
 21 44  1  0
 24 45  1  0
 28 46  1  0
 29 47  1  0
M  END
>  <meeko>  (1429) 
{"is_sidechain": [true], "free_energy": -10.04, "intermolecular_energy": 0.0, "internal_energy": -10.04, "cluster_size": 15, "cluster_id": 1, "rank_in_cluster": 1}

>  <_RMSD_MCS_to_ref>  (1429) 
1.0454410021081488

$$$$
ligand
     RDKit          3D

 54 57  0  0  0  0  0  0  0  0999 V2000
   18.7970   18.8160    7.7190 C   0  0  0  0  0  0  0  0  0  0  0  0
   18.5280   17.3300    7.8810 C   0  0  0  0  0  0  0  0  0  0  0  0
   19.7560   16.5090    7.6980 C   0  0  0  0  0  0  0  0  0  0  0  0
   20.8350   16.3640    8.5480 C   0  0  0  0  0  0  0  0  0  0  0  0
   21.6730   15.5150    7.8850 N   0  0  0  0  0  0  0  0  0  0  0  0
   23.1500   14.9230    8.4350 S   0  0  0  0  0  6  0  0  0  0  0  0
   23.4510   13.8140    7.5490 O   0  0  0  0  0  0  0  0  0  0  0  0
   24.0330   16.0700    8.5680 O   0  0  0  0  0  0  0  0  0  0  0  0
   22.8070   14.2960   10.0570 C   0  0  0  0  0  0  0  0  0  0  0  0
   21.5110   13.8320   10.3240 C   0  0  0  0  0  0  0  0  0  0  0  0
   21.1580   13.4800   11.6210 C   0  0  0  0  0  0  0  0  0  0  0  0
   22.0850   13.6160   12.6490 C   0  0  0  0  0  0  0  0  0  0  0  0
   23.3900   14.0650   12.3790 C   0  0  0  0  0  0  0  0  0  0  0  0
   23.7880   14.3620   11.0600 C   0  0  0  0  0  0  0  0  0  0  0  0
   25.0820   14.8050   10.7800 N   0  0  0  0  0  0  0  0  0  0  0  0
   26.0690   14.9740   11.8420 C   0  0  0  0  0  0  0  0  0  0  0  0
   25.7850   14.0960   13.0470 C   0  0  0  0  0  0  0  0  0  0  0  0
   24.3510   14.3010   13.5310 C   0  0  1  0  0  0  0  0  0  0  0  0
   24.2020   15.6830   14.1860 C   0  0  0  0  0  0  0  0  0  0  0  0
   23.1330   16.2910   14.1690 O   0  0  0  0  0  0  0  0  0  0  0  0
   25.2940   16.1560   14.8690 N   0  0  0  0  0  0  0  0  0  0  0  0
   25.3380   17.4460   15.5370 C   0  0  1  0  0  0  0  0  0  0  0  0
   26.2010   17.3870   16.7900 C   0  0  0  0  0  0  0  0  0  0  0  0
   26.3400   18.7780   17.3840 C   0  0  0  0  0  0  0  0  0  0  0  0
   26.9130   19.7460   16.3770 C   0  0  0  0  0  0  0  0  0  0  0  0
   27.6240   20.6910   16.7080 O   0  0  0  0  0  0  0  0  0  0  0  0
   26.5530   19.5510   15.0680 N   0  0  0  0  0  0  0  0  0  0  0  0
   25.9200   18.4550   14.5370 C   0  0  0  0  0  0  0  0  0  0  0  0
   25.8010   18.3170   13.3180 O   0  0  0  0  0  0  0  0  0  0  0  0
   21.1210   15.1920    6.6850 C   0  0  0  0  0  0  0  0  0  0  0  0
   19.9390   15.7600    6.5510 N   0  0  0  0  0  0  0  0  0  0  0  0
   18.8816   19.2836    8.7111 H   0  0  0  0  0  0  0  0  0  0  0  0
   19.7359   18.9603    7.1643 H   0  0  0  0  0  0  0  0  0  0  0  0
   17.9683   19.2803    7.1643 H   0  0  0  0  0  0  0  0  0  0  0  0
   18.1302   17.1508    8.8908 H   0  0  0  0  0  0  0  0  0  0  0  0
   17.8066   17.0327    7.1056 H   0  0  0  0  0  0  0  0  0  0  0  0
   20.9847   16.8272    9.5344 H   0  0  0  0  0  0  0  0  0  0  0  0
   20.7764   13.7470    9.5096 H   0  0  0  0  0  0  0  0  0  0  0  0
   20.1497   13.0954   11.8339 H   0  0  0  0  0  0  0  0  0  0  0  0
   21.7950   13.3704   13.6813 H   0  0  0  0  0  0  0  0  0  0  0  0
   25.3449   15.0163    9.8068 H   0  0  0  0  0  0  0  0  0  0  0  0
   27.0619   14.7166   11.4446 H   0  0  0  0  0  0  0  0  0  0  0  0
   26.0246   16.0215   12.1748 H   0  0  0  0  0  0  0  0  0  0  0  0
   25.9257   13.0414   12.7679 H   0  0  0  0  0  0  0  0  0  0  0  0
   26.4769   14.3689   13.8575 H   0  0  0  0  0  0  0  0  0  0  0  0
   24.0995   13.5679   14.3116 H   0  0  0  0  0  0  0  0  0  0  0  0
   26.1335   15.5607   14.9108 H   0  0  0  0  0  0  0  0  0  0  0  0
   24.3277   17.7429   15.8549 H   0  0  0  0  0  0  0  0  0  0  0  0
   25.7296   16.7204   17.5272 H   0  0  0  0  0  0  0  0  0  0  0  0
   27.1976   17.0027   16.5272 H   0  0  0  0  0  0  0  0  0  0  0  0
   25.3484   19.1340   17.7002 H   0  0  0  0  0  0  0  0  0  0  0  0
   27.0242   18.7233   18.2436 H   0  0  0  0  0  0  0  0  0  0  0  0
   26.7829   20.3105   14.4113 H   0  0  0  0  0  0  0  0  0  0  0  0
   21.5949   14.5465    5.9309 H   0  0  0  0  0  0  0  0  0  0  0  0
  1  2  1  0
  2  3  1  0
  3  4  2  0
  4  5  1  0
  5  6  1  0
  6  7  2  0
  6  8  2  0
  6  9  1  0
  9 10  2  0
 10 11  1  0
 11 12  2  0
 12 13  1  0
 13 14  2  0
 14 15  1  0
 15 16  1  0
 16 17  1  0
 17 18  1  0
 18 19  1  0
 19 20  2  0
 19 21  1  0
 21 22  1  0
 22 23  1  0
 23 24  1  0
 24 25  1  0
 25 26  2  0
 25 27  1  0
 27 28  1  0
 28 29  2  0
  5 30  1  0
 30 31  2  0
 31  3  1  0
 14  9  1  0
 28 22  1  0
 18 13  1  0
  1 32  1  0
  1 33  1  0
  1 34  1  0
  2 35  1  0
  2 36  1  0
  4 37  1  0
 10 38  1  0
 11 39  1  0
 12 40  1  0
 15 41  1  0
 16 42  1  0
 16 43  1  0
 17 44  1  0
 17 45  1  0
 18 46  1  1
 21 47  1  0
 22 48  1  1
 23 49  1  0
 23 50  1  0
 24 51  1  0
 24 52  1  0
 27 53  1  0
 30 54  1  0
M  END
>  <meeko>  (1430) 
{"is_sidechain": [true], "free_energy": -10.04, "intermolecular_energy": 0.0, "internal_energy": -10.04, "cluster_size": 20, "cluster_id": 1, "rank_in_cluster": 1}

>  <_RMSD_MCS_to_ref>  (1430) 
1.1518975648902126

$$$$
ligand
     RDKit          3D

 51 54  0  0  0  0  0  0  0  0999 V2000
   18.7970   18.8170    7.7190 C   0  0  0  0  0  0  0  0  0  0  0  0
   18.5280   17.3290    7.8810 C   0  0  0  0  0  0  0  0  0  0  0  0
   19.7830   16.5460    8.0450 C   0  0  0  0  0  0  0  0  0  0  0  0
   20.4630   16.2270    9.2030 C   0  0  0  0  0  0  0  0  0  0  0  0
   21.5300   15.4890    8.7720 N   0  0  0  0  0  0  0  0  0  0  0  0
   22.8260   14.9900    9.7140 S   0  0  0  0  0  6  0  0  0  0  0  0
   23.7780   14.4260    8.7770 O   0  0  0  0  0  0  0  0  0  0  0  0
   23.1480   16.1220   10.5600 O   0  0  0  0  0  0  0  0  0  0  0  0
   22.2730   13.6720   10.7730 C   0  0  0  0  0  0  0  0  0  0  0  0
   21.3330   12.7380   10.3030 C   0  0  0  0  0  0  0  0  0  0  0  0
   20.9010   11.6970   11.1250 C   0  0  0  0  0  0  0  0  0  0  0  0
   21.4020   11.5800   12.4160 C   0  0  0  0  0  0  0  0  0  0  0  0
   22.3370   12.5090   12.8900 C   0  0  0  0  0  0  0  0  0  0  0  0
   22.8510   12.3570   14.2770 C   0  0  0  0  0  0  0  0  0  0  0  0
   22.4700   11.4510   15.0080 O   0  0  0  0  0  0  0  0  0  0  0  0
   23.7720   13.2830   14.6850 N   0  0  0  0  0  0  0  0  0  0  0  0
   24.2330   14.3250   13.9190 C   0  0  0  0  0  0  0  0  0  0  0  0
   25.2150   15.2500   14.5870 C   0  0  0  0  0  0  0  0  0  0  0  0
   26.2000   14.7920   15.1580 O   0  0  0  0  0  0  0  0  0  0  0  0
   24.9800   16.5930   14.4550 N   0  0  0  0  0  0  0  0  0  0  0  0
   25.9500   17.5740   14.9250 C   0  0  2  0  0  0  0  0  0  0  0  0
   26.0600   17.5890   16.4450 C   0  0  0  0  0  0  0  0  0  0  0  0
   27.0580   18.6570   16.8710 C   0  0  0  0  0  0  0  0  0  0  0  0
   26.6780   20.0120   16.3220 C   0  0  0  0  0  0  0  0  0  0  0  0
   26.9020   21.0550   16.9290 O   0  0  0  0  0  0  0  0  0  0  0  0
   26.0950   20.0310   15.0800 N   0  0  0  0  0  0  0  0  0  0  0  0
   25.5190   18.9610   14.4410 C   0  0  0  0  0  0  0  0  0  0  0  0
   24.7160   19.1250   13.5220 O   0  0  0  0  0  0  0  0  0  0  0  0
   23.7700   14.5120   12.6730 C   0  0  0  0  0  0  0  0  0  0  0  0
   22.7910   13.5740   12.0840 C   0  0  0  0  0  0  0  0  0  0  0  0
   21.4920   15.3980    7.4180 C   0  0  0  0  0  0  0  0  0  0  0  0
   20.4450   16.0390    6.9440 N   0  0  0  0  0  0  0  0  0  0  0  0
   18.8815   19.2845    8.7111 H   0  0  0  0  0  0  0  0  0  0  0  0
   19.7359   18.9616    7.1643 H   0  0  0  0  0  0  0  0  0  0  0  0
   17.9682   19.2812    7.1643 H   0  0  0  0  0  0  0  0  0  0  0  0
   17.8972   17.1776    8.7694 H   0  0  0  0  0  0  0  0  0  0  0  0
   18.0256   16.9751    6.9686 H   0  0  0  0  0  0  0  0  0  0  0  0
   20.2054   16.5033   10.2361 H   0  0  0  0  0  0  0  0  0  0  0  0
   20.9359   12.8287    9.2812 H   0  0  0  0  0  0  0  0  0  0  0  0
   20.1649   10.9698   10.7519 H   0  0  0  0  0  0  0  0  0  0  0  0
   21.0646   10.7585   13.0651 H   0  0  0  0  0  0  0  0  0  0  0  0
   24.1481   13.1914   15.6395 H   0  0  0  0  0  0  0  0  0  0  0  0
   24.1048   16.9143   14.0171 H   0  0  0  0  0  0  0  0  0  0  0  0
   26.9358   17.3005   14.5208 H   0  0  0  0  0  0  0  0  0  0  0  0
   25.0754   17.8121   16.8817 H   0  0  0  0  0  0  0  0  0  0  0  0
   26.4030   16.6051   16.7976 H   0  0  0  0  0  0  0  0  0  0  0  0
   27.0806   18.7088   17.9695 H   0  0  0  0  0  0  0  0  0  0  0  0
   28.0476   18.3862   16.4742 H   0  0  0  0  0  0  0  0  0  0  0  0
   26.0889   20.9318   14.5806 H   0  0  0  0  0  0  0  0  0  0  0  0
   24.1226   15.3718   12.0844 H   0  0  0  0  0  0  0  0  0  0  0  0
   22.2319   14.8639    6.8038 H   0  0  0  0  0  0  0  0  0  0  0  0
  1  2  1  0
  2  3  1  0
  3  4  2  0
  4  5  1  0
  5  6  1  0
  6  7  2  0
  6  8  2  0
  6  9  1  0
  9 10  2  0
 10 11  1  0
 11 12  2  0
 12 13  1  0
 13 14  1  0
 14 15  2  0
 14 16  1  0
 16 17  1  0
 17 18  1  0
 18 19  2  0
 18 20  1  0
 20 21  1  0
 21 22  1  0
 22 23  1  0
 23 24  1  0
 24 25  2  0
 24 26  1  0
 26 27  1  0
 27 28  2  0
 17 29  2  0
 29 30  1  0
  5 31  1  0
 31 32  2  0
 32  3  1  0
 30  9  1  0
 30 13  2  0
 27 21  1  0
  1 33  1  0
  1 34  1  0
  1 35  1  0
  2 36  1  0
  2 37  1  0
  4 38  1  0
 10 39  1  0
 11 40  1  0
 12 41  1  0
 16 42  1  0
 20 43  1  0
 21 44  1  6
 22 45  1  0
 22 46  1  0
 23 47  1  0
 23 48  1  0
 26 49  1  0
 29 50  1  0
 31 51  1  0
M  END
>  <meeko>  (1431) 
{"is_sidechain": [true], "free_energy": -10.04, "intermolecular_energy": 0.0, "internal_energy": -10.04, "cluster_size": 16, "cluster_id": 1, "rank_in_cluster": 1}

>  <_RMSD_MCS_to_ref>  (1431) 
0.7892340872291594

$$$$
ligand
     RDKit          3D

 50 53  0  0  0  0  0  0  0  0999 V2000
   18.7970   18.8170    7.7190 C   0  0  0  0  0  0  0  0  0  0  0  0
   18.5280   17.3290    7.8810 C   0  0  0  0  0  0  0  0  0  0  0  0
   19.7620   16.5150    7.7160 C   0  0  0  0  0  0  0  0  0  0  0  0
   20.2320   15.4800    8.5000 C   0  0  0  0  0  0  0  0  0  0  0  0
   21.4080   15.1150    7.9040 N   0  0  0  0  0  0  0  0  0  0  0  0
   22.3140   13.7580    8.2960 S   0  0  0  0  0  6  0  0  0  0  0  0
   23.7060   14.0260    7.9940 O   0  0  0  0  0  0  0  0  0  0  0  0
   21.6100   12.6750    7.6290 O   0  0  0  0  0  0  0  0  0  0  0  0
   22.1540   13.4990   10.0490 C   0  0  0  0  0  0  0  0  0  0  0  0
   21.2870   12.4660   10.4560 C   0  0  0  0  0  0  0  0  0  0  0  0
   21.1610   12.1290   11.8030 C   0  0  0  0  0  0  0  0  0  0  0  0
   21.9160   12.8040   12.7540 C   0  0  0  0  0  0  0  0  0  0  0  0
   22.7880   13.8220   12.3580 C   0  0  0  0  0  0  0  0  0  0  0  0
   23.5070   14.4030   13.3740 O   0  0  0  0  0  0  0  0  0  0  0  0
   24.4550   15.3540   13.0470 C   0  0  0  0  0  0  0  0  0  0  0  0
   25.3020   15.9080   14.1500 C   0  0  0  0  0  0  0  0  0  0  0  0
   25.8300   15.2030   15.0010 O   0  0  0  0  0  0  0  0  0  0  0  0
   25.4410   17.2710   14.1040 N   0  0  0  0  0  0  0  0  0  0  0  0
   26.3500   17.9850   14.9870 C   0  0  2  0  0  0  0  0  0  0  0  0
   25.9410   17.8750   16.4510 C   0  0  0  0  0  0  0  0  0  0  0  0
   26.9090   18.6770   17.3090 C   0  0  0  0  0  0  0  0  0  0  0  0
   26.9890   20.1140   16.8490 C   0  0  0  0  0  0  0  0  0  0  0  0
   27.1520   21.0480   17.6290 O   0  0  0  0  0  0  0  0  0  0  0  0
   26.8930   20.3330   15.4990 N   0  0  0  0  0  0  0  0  0  0  0  0
   26.3580   19.4630   14.5820 C   0  0  0  0  0  0  0  0  0  0  0  0
   25.9220   19.8610   13.5030 O   0  0  0  0  0  0  0  0  0  0  0  0
   24.6490   15.8270   11.8110 C   0  0  0  0  0  0  0  0  0  0  0  0
   23.8080   15.3220   10.7200 C   0  0  0  0  0  0  0  0  0  0  0  0
   23.8400   15.8690    9.6310 O   0  0  0  0  0  0  0  0  0  0  0  0
   22.9050   14.1930   11.0110 C   0  0  0  0  0  0  0  0  0  0  0  0
   21.5780   15.8510    6.7750 C   0  0  0  0  0  0  0  0  0  0  0  0
   20.6060   16.7320    6.6460 N   0  0  0  0  0  0  0  0  0  0  0  0
   18.8815   19.2845    8.7111 H   0  0  0  0  0  0  0  0  0  0  0  0
   19.7359   18.9616    7.1643 H   0  0  0  0  0  0  0  0  0  0  0  0
   17.9682   19.2812    7.1643 H   0  0  0  0  0  0  0  0  0  0  0  0
   18.1172   17.1503    8.8856 H   0  0  0  0  0  0  0  0  0  0  0  0
   17.8163   17.0268    7.0986 H   0  0  0  0  0  0  0  0  0  0  0  0
   19.7671   15.0478    9.3984 H   0  0  0  0  0  0  0  0  0  0  0  0
   20.7023   11.9186    9.7020 H   0  0  0  0  0  0  0  0  0  0  0  0
   20.4674   11.3328   12.1112 H   0  0  0  0  0  0  0  0  0  0  0  0
   21.8276   12.5375   13.8176 H   0  0  0  0  0  0  0  0  0  0  0  0
   24.8842   17.8064   13.4227 H   0  0  0  0  0  0  0  0  0  0  0  0
   27.3482   17.5338   14.8866 H   0  0  0  0  0  0  0  0  0  0  0  0
   24.9229   18.2716   16.5782 H   0  0  0  0  0  0  0  0  0  0  0  0
   25.9643   16.8196   16.7602 H   0  0  0  0  0  0  0  0  0  0  0  0
   26.5656   18.6538   18.3538 H   0  0  0  0  0  0  0  0  0  0  0  0
   27.9086   18.2270   17.2179 H   0  0  0  0  0  0  0  0  0  0  0  0
   27.2540   21.2290   15.1415 H   0  0  0  0  0  0  0  0  0  0  0  0
   25.4254   16.5814   11.6159 H   0  0  0  0  0  0  0  0  0  0  0  0
   22.4109   15.7288    6.0669 H   0  0  0  0  0  0  0  0  0  0  0  0
  1  2  1  0
  2  3  1  0
  3  4  2  0
  4  5  1  0
  5  6  1  0
  6  7  2  0
  6  8  2  0
  6  9  1  0
  9 10  2  0
 10 11  1  0
 11 12  2  0
 12 13  1  0
 13 14  1  0
 14 15  1  0
 15 16  1  0
 16 17  2  0
 16 18  1  0
 18 19  1  0
 19 20  1  0
 20 21  1  0
 21 22  1  0
 22 23  2  0
 22 24  1  0
 24 25  1  0
 25 26  2  0
 15 27  2  0
 27 28  1  0
 28 29  2  0
 28 30  1  0
  5 31  1  0
 31 32  2  0
 32  3  1  0
 30  9  1  0
 30 13  2  0
 25 19  1  0
  1 33  1  0
  1 34  1  0
  1 35  1  0
  2 36  1  0
  2 37  1  0
  4 38  1  0
 10 39  1  0
 11 40  1  0
 12 41  1  0
 18 42  1  0
 19 43  1  1
 20 44  1  0
 20 45  1  0
 21 46  1  0
 21 47  1  0
 24 48  1  0
 27 49  1  0
 31 50  1  0
M  END
>  <meeko>  (1432) 
{"is_sidechain": [true], "free_energy": -10.04, "intermolecular_energy": 0.0, "internal_energy": -10.04, "cluster_size": 7, "cluster_id": 1, "rank_in_cluster": 1}

>  <_RMSD_MCS_to_ref>  (1432) 
0.8255050979047112

$$$$
ligand
     RDKit          3D

 48 51  0  0  0  0  0  0  0  0999 V2000
   18.9090   19.1540    7.5370 C   0  0  0  0  0  0  0  0  0  0  0  0
   18.7730   17.6460    7.6780 C   0  0  0  0  0  0  0  0  0  0  0  0
   20.0780   16.9470    7.5230 C   0  0  0  0  0  0  0  0  0  0  0  0
   21.1070   16.8140    8.4350 C   0  0  0  0  0  0  0  0  0  0  0  0
   22.0620   16.1100    7.7600 N   0  0  0  0  0  0  0  0  0  0  0  0
   23.4590   15.4720    8.4270 S   0  0  0  0  0  6  0  0  0  0  0  0
   23.5840   14.1180    7.9340 O   0  0  0  0  0  0  0  0  0  0  0  0
   24.4930   16.4750    8.2690 O   0  0  0  0  0  0  0  0  0  0  0  0
   23.2550   15.3210   10.1760 C   0  0  0  0  0  0  0  0  0  0  0  0
   23.8400   15.9510   11.2610 C   0  0  0  0  0  0  0  0  0  0  0  0
   23.2790   15.4140   12.4580 C   0  0  0  0  0  0  0  0  0  0  0  0
   23.4580   15.6320   13.8350 C   0  0  0  0  0  0  0  0  0  0  0  0
   24.4330   16.6260   14.3730 C   0  0  0  0  0  0  0  0  0  0  0  0
   25.6440   16.4990   14.2420 O   0  0  0  0  0  0  0  0  0  0  0  0
   23.8530   17.6840   15.0400 N   0  0  0  0  0  0  0  0  0  0  0  0
   24.6310   18.6670   15.7720 C   0  0  1  0  0  0  0  0  0  0  0  0
   25.6820   18.0120   16.6630 C   0  0  0  0  0  0  0  0  0  0  0  0
   26.4740   19.0890   17.3890 C   0  0  0  0  0  0  0  0  0  0  0  0
   27.0920   20.0640   16.4160 C   0  0  0  0  0  0  0  0  0  0  0  0
   28.1720   20.6090   16.6260 O   0  0  0  0  0  0  0  0  0  0  0  0
   26.3700   20.3450   15.2850 N   0  0  0  0  0  0  0  0  0  0  0  0
   25.3290   19.6030   14.7800 C   0  0  0  0  0  0  0  0  0  0  0  0
   24.9860   19.7200   13.6030 O   0  0  0  0  0  0  0  0  0  0  0  0
   22.7330   14.9200   14.7520 N   0  0  0  0  0  0  0  0  0  0  0  0
   21.8440   14.0050   14.3110 C   0  0  0  0  0  0  0  0  0  0  0  0
   21.5960   13.7200   12.9770 C   0  0  0  0  0  0  0  0  0  0  0  0
   22.3440   14.4550   12.0600 C   0  0  0  0  0  0  0  0  0  0  0  0
   22.3460   14.4240   10.6860 N   0  0  0  0  0  0  0  0  0  0  0  0
   21.5890   15.7800    6.5310 C   0  0  0  0  0  0  0  0  0  0  0  0
   20.3900   16.2950    6.3460 N   0  0  0  0  0  0  0  0  0  0  0  0
   18.9504   19.6134    8.5356 H   0  0  0  0  0  0  0  0  0  0  0  0
   19.8320   19.3891    6.9867 H   0  0  0  0  0  0  0  0  0  0  0  0
   18.0430   19.5504    6.9867 H   0  0  0  0  0  0  0  0  0  0  0  0
   18.3654   17.4186    8.6741 H   0  0  0  0  0  0  0  0  0  0  0  0
   18.1031   17.2913    6.8809 H   0  0  0  0  0  0  0  0  0  0  0  0
   21.1475   17.1893    9.4682 H   0  0  0  0  0  0  0  0  0  0  0  0
   24.6095   16.7353   11.2090 H   0  0  0  0  0  0  0  0  0  0  0  0
   22.8278   17.7808   15.0181 H   0  0  0  0  0  0  0  0  0  0  0  0
   23.9399   19.2298   16.4167 H   0  0  0  0  0  0  0  0  0  0  0  0
   25.1855   17.3629   17.3993 H   0  0  0  0  0  0  0  0  0  0  0  0
   26.3637   17.4100   16.0441 H   0  0  0  0  0  0  0  0  0  0  0  0
   25.7998   19.6356   18.0648 H   0  0  0  0  0  0  0  0  0  0  0  0
   27.2824   18.6036   17.9554 H   0  0  0  0  0  0  0  0  0  0  0  0
   26.6328   21.1935   14.7637 H   0  0  0  0  0  0  0  0  0  0  0  0
   21.2740   13.4438   15.0661 H   0  0  0  0  0  0  0  0  0  0  0  0
   20.8593   12.9654   12.6642 H   0  0  0  0  0  0  0  0  0  0  0  0
   21.7469   13.8110   10.1148 H   0  0  0  0  0  0  0  0  0  0  0  0
   22.1301   15.1690    5.7936 H   0  0  0  0  0  0  0  0  0  0  0  0
  1  2  1  0
  2  3  1  0
  3  4  2  0
  4  5  1  0
  5  6  1  0
  6  7  2  0
  6  8  2  0
  6  9  1  0
  9 10  2  0
 10 11  1  0
 11 12  2  0
 12 13  1  0
 13 14  2  0
 13 15  1  0
 15 16  1  0
 16 17  1  0
 17 18  1  0
 18 19  1  0
 19 20  2  0
 19 21  1  0
 21 22  1  0
 22 23  2  0
 12 24  1  0
 24 25  2  0
 25 26  1  0
 26 27  2  0
 27 28  1  0
  5 29  1  0
 29 30  2  0
 30  3  1  0
 28  9  1  0
 27 11  1  0
 22 16  1  0
  1 31  1  0
  1 32  1  0
  1 33  1  0
  2 34  1  0
  2 35  1  0
  4 36  1  0
 10 37  1  0
 15 38  1  0
 16 39  1  1
 17 40  1  0
 17 41  1  0
 18 42  1  0
 18 43  1  0
 21 44  1  0
 25 45  1  0
 26 46  1  0
 28 47  1  0
 29 48  1  0
M  END
>  <meeko>  (1433) 
{"is_sidechain": [true], "free_energy": -10.04, "intermolecular_energy": 0.0, "internal_energy": -10.04, "cluster_size": 20, "cluster_id": 1, "rank_in_cluster": 1}

>  <_RMSD_MCS_to_ref>  (1433) 
0.9320636005957722

$$$$
ligand
     RDKit          3D

 47 50  0  0  0  0  0  0  0  0999 V2000
   18.9090   19.1540    7.5370 C   0  0  0  0  0  0  0  0  0  0  0  0
   18.7730   17.6460    7.6780 C   0  0  0  0  0  0  0  0  0  0  0  0
   20.0150   16.9300    7.2790 C   0  0  0  0  0  0  0  0  0  0  0  0
   20.8900   16.2030    8.0620 C   0  0  0  0  0  0  0  0  0  0  0  0
   21.8610   15.7970    7.1930 N   0  0  0  0  0  0  0  0  0  0  0  0
   23.0730   14.6730    7.5250 S   0  0  0  0  0  6  0  0  0  0  0  0
   22.3680   13.4920    7.9860 O   0  0  0  0  0  0  0  0  0  0  0  0
   23.8910   14.6480    6.3260 O   0  0  0  0  0  0  0  0  0  0  0  0
   23.9400   15.2960    8.7550 O   0  0  0  0  0  0  0  0  0  0  0  0
   23.4370   15.4300   10.0240 C   0  0  0  0  0  0  0  0  0  0  0  0
   22.3440   14.7280   10.5430 C   0  0  0  0  0  0  0  0  0  0  0  0
   21.9250   14.9490   11.8590 C   0  0  0  0  0  0  0  0  0  0  0  0
   22.6070   15.8750   12.6480 C   0  0  0  0  0  0  0  0  0  0  0  0
   22.2090   16.1330   14.0240 C   0  0  0  0  0  0  0  0  0  0  0  0
   22.7990   16.9810   14.8060 N   0  0  0  0  0  0  0  0  0  0  0  0
   23.8700   17.6970   14.3070 N   0  0  0  0  0  0  0  0  0  0  0  0
   24.6100   18.5350   15.2550 C   0  0  1  0  0  0  0  0  0  0  0  0
   25.8570   17.8520   15.8180 C   0  0  0  0  0  0  0  0  0  0  0  0
   26.5380   18.7820   16.8090 C   0  0  0  0  0  0  0  0  0  0  0  0
   26.8800   20.1070   16.1670 C   0  0  0  0  0  0  0  0  0  0  0  0
   27.8350   20.7860   16.5340 O   0  0  0  0  0  0  0  0  0  0  0  0
   26.0370   20.5450   15.1770 N   0  0  0  0  0  0  0  0  0  0  0  0
   25.0040   19.8550   14.5780 C   0  0  0  0  0  0  0  0  0  0  0  0
   24.4310   20.3430   13.6040 O   0  0  0  0  0  0  0  0  0  0  0  0
   24.3800   17.5420   13.0160 C   0  0  0  0  0  0  0  0  0  0  0  0
   25.3420   18.1660   12.5750 O   0  0  0  0  0  0  0  0  0  0  0  0
   23.6900   16.5760   12.1460 C   0  0  0  0  0  0  0  0  0  0  0  0
   24.1100   16.3540   10.8290 C   0  0  0  0  0  0  0  0  0  0  0  0
   21.5300   16.1960    5.9380 C   0  0  0  0  0  0  0  0  0  0  0  0
   20.4250   16.9140    5.9600 N   0  0  0  0  0  0  0  0  0  0  0  0
   18.9504   19.6134    8.5356 H   0  0  0  0  0  0  0  0  0  0  0  0
   19.8320   19.3891    6.9867 H   0  0  0  0  0  0  0  0  0  0  0  0
   18.0430   19.5504    6.9867 H   0  0  0  0  0  0  0  0  0  0  0  0
   18.5482   17.4072    8.7280 H   0  0  0  0  0  0  0  0  0  0  0  0
   17.9635   17.3160    7.0103 H   0  0  0  0  0  0  0  0  0  0  0  0
   20.8203   15.9979    9.1405 H   0  0  0  0  0  0  0  0  0  0  0  0
   21.8120   13.9993    9.9137 H   0  0  0  0  0  0  0  0  0  0  0  0
   21.0655   14.3976   12.2679 H   0  0  0  0  0  0  0  0  0  0  0  0
   21.3523   15.5721   14.4258 H   0  0  0  0  0  0  0  0  0  0  0  0
   23.9390   18.7223   16.1062 H   0  0  0  0  0  0  0  0  0  0  0  0
   25.5672   16.9213   16.3276 H   0  0  0  0  0  0  0  0  0  0  0  0
   26.5506   17.6186   14.9967 H   0  0  0  0  0  0  0  0  0  0  0  0
   25.8620   18.9586   17.6586 H   0  0  0  0  0  0  0  0  0  0  0  0
   27.4707   18.3077   17.1484 H   0  0  0  0  0  0  0  0  0  0  0  0
   26.1948   21.5056   14.8404 H   0  0  0  0  0  0  0  0  0  0  0  0
   24.9712   16.9077   10.4268 H   0  0  0  0  0  0  0  0  0  0  0  0
   22.1033   15.9541    5.0309 H   0  0  0  0  0  0  0  0  0  0  0  0
  1  2  1  0
  2  3  1  0
  3  4  2  0
  4  5  1  0
  5  6  1  0
  6  7  2  0
  6  8  2  0
  6  9  1  0
  9 10  1  0
 10 11  2  0
 11 12  1  0
 12 13  2  0
 13 14  1  0
 14 15  2  0
 15 16  1  0
 16 17  1  0
 17 18  1  0
 18 19  1  0
 19 20  1  0
 20 21  2  0
 20 22  1  0
 22 23  1  0
 23 24  2  0
 16 25  1  0
 25 26  2  0
 25 27  1  0
 27 28  2  0
  5 29  1  0
 29 30  2  0
 30  3  1  0
 28 10  1  0
 27 13  1  0
 23 17  1  0
  1 31  1  0
  1 32  1  0
  1 33  1  0
  2 34  1  0
  2 35  1  0
  4 36  1  0
 11 37  1  0
 12 38  1  0
 14 39  1  0
 17 40  1  1
 18 41  1  0
 18 42  1  0
 19 43  1  0
 19 44  1  0
 22 45  1  0
 28 46  1  0
 29 47  1  0
M  END
>  <meeko>  (1434) 
{"is_sidechain": [true], "free_energy": -10.04, "intermolecular_energy": 0.0, "internal_energy": -10.04, "cluster_size": 20, "cluster_id": 1, "rank_in_cluster": 1}

>  <_RMSD_MCS_to_ref>  (1434) 
0.5482513616540827

$$$$
ligand
     RDKit          3D

 47 50  0  0  0  0  0  0  0  0999 V2000
   18.9090   19.1540    7.5370 C   0  0  0  0  0  0  0  0  0  0  0  0
   18.7730   17.6460    7.6780 C   0  0  0  0  0  0  0  0  0  0  0  0
   20.0870   16.9520    7.7820 C   0  0  0  0  0  0  0  0  0  0  0  0
   20.7470   16.5310    8.9200 C   0  0  0  0  0  0  0  0  0  0  0  0
   21.9130   15.9970    8.4560 N   0  0  0  0  0  0  0  0  0  0  0  0
   23.0260   15.1280    9.3560 S   0  0  0  0  0  6  0  0  0  0  0  0
   24.1630   16.0080    9.5520 O   0  0  0  0  0  0  0  0  0  0  0  0
   23.1440   13.8360    8.7070 O   0  0  0  0  0  0  0  0  0  0  0  0
   22.3270   14.8170   10.9720 C   0  0  0  0  0  0  0  0  0  0  0  0
   21.3530   13.6910   11.0670 C   0  0  0  0  0  0  0  0  0  0  0  0
   20.8080   13.4470   12.2630 C   0  0  0  0  0  0  0  0  0  0  0  0
   21.1690   14.2490   13.3660 C   0  0  0  0  0  0  0  0  0  0  0  0
   20.7800   14.1990   14.6180 N   0  0  0  0  0  0  0  0  0  0  0  0
   21.4620   15.2130   15.2370 C   0  0  0  0  0  0  0  0  0  0  0  0
   22.2740   15.9070   14.3560 C   0  0  0  0  0  0  0  0  0  0  0  0
   23.1240   17.0230   14.6700 C   0  0  0  0  0  0  0  0  0  0  0  0
   22.8310   17.8500   15.5290 O   0  0  0  0  0  0  0  0  0  0  0  0
   24.2900   17.1270   13.9430 N   0  0  0  0  0  0  0  0  0  0  0  0
   25.3760   17.9840   14.3980 C   0  0  2  0  0  0  0  0  0  0  0  0
   25.6100   17.8300   15.8940 C   0  0  0  0  0  0  0  0  0  0  0  0
   26.7100   18.7780   16.3440 C   0  0  0  0  0  0  0  0  0  0  0  0
   26.4150   20.2050   15.9430 C   0  0  0  0  0  0  0  0  0  0  0  0
   26.7580   21.1660   16.6260 O   0  0  0  0  0  0  0  0  0  0  0  0
   25.7820   20.3870   14.7410 N   0  0  0  0  0  0  0  0  0  0  0  0
   25.0350   19.4450   14.0750 C   0  0  0  0  0  0  0  0  0  0  0  0
   24.1730   19.7820   13.2640 O   0  0  0  0  0  0  0  0  0  0  0  0
   22.0820   15.2720   13.1500 N   0  0  0  0  0  0  0  0  0  0  0  0
   22.6890   15.5920   11.9590 N   0  0  0  0  0  0  0  0  0  0  0  0
   21.9170   16.0480    7.1000 C   0  0  0  0  0  0  0  0  0  0  0  0
   20.8110   16.6080    6.6540 N   0  0  0  0  0  0  0  0  0  0  0  0
   18.9504   19.6134    8.5356 H   0  0  0  0  0  0  0  0  0  0  0  0
   19.8320   19.3891    6.9867 H   0  0  0  0  0  0  0  0  0  0  0  0
   18.0430   19.5504    6.9867 H   0  0  0  0  0  0  0  0  0  0  0  0
   18.1892   17.4296    8.5848 H   0  0  0  0  0  0  0  0  0  0  0  0
   18.2742   17.2736    6.7711 H   0  0  0  0  0  0  0  0  0  0  0  0
   20.4088   16.6088    9.9638 H   0  0  0  0  0  0  0  0  0  0  0  0
   21.0933   13.0848   10.1866 H   0  0  0  0  0  0  0  0  0  0  0  0
   20.0842   12.6279   12.3861 H   0  0  0  0  0  0  0  0  0  0  0  0
   21.3748   15.4482   16.3080 H   0  0  0  0  0  0  0  0  0  0  0  0
   24.3946   16.5929   13.0685 H   0  0  0  0  0  0  0  0  0  0  0  0
   26.2981   17.6869   13.8770 H   0  0  0  0  0  0  0  0  0  0  0  0
   24.6815   18.0652   16.4349 H   0  0  0  0  0  0  0  0  0  0  0  0
   25.9126   16.7946   16.1094 H   0  0  0  0  0  0  0  0  0  0  0  0
   26.7994   18.7264   17.4391 H   0  0  0  0  0  0  0  0  0  0  0  0
   27.6478   18.4714   15.8577 H   0  0  0  0  0  0  0  0  0  0  0  0
   25.8743   21.3120   14.2974 H   0  0  0  0  0  0  0  0  0  0  0  0
   22.7309   15.6737    6.4616 H   0  0  0  0  0  0  0  0  0  0  0  0
  1  2  1  0
  2  3  1  0
  3  4  2  0
  4  5  1  0
  5  6  1  0
  6  7  2  0
  6  8  2  0
  6  9  1  0
  9 10  1  0
 10 11  2  0
 11 12  1  0
 12 13  2  0
 13 14  1  0
 14 15  2  0
 15 16  1  0
 16 17  2  0
 16 18  1  0
 18 19  1  0
 19 20  1  0
 20 21  1  0
 21 22  1  0
 22 23  2  0
 22 24  1  0
 24 25  1  0
 25 26  2  0
 15 27  1  0
 27 28  1  0
  5 29  1  0
 29 30  2  0
 30  3  1  0
 28  9  2  0
 27 12  1  0
 25 19  1  0
  1 31  1  0
  1 32  1  0
  1 33  1  0
  2 34  1  0
  2 35  1  0
  4 36  1  0
 10 37  1  0
 11 38  1  0
 14 39  1  0
 18 40  1  0
 19 41  1  6
 20 42  1  0
 20 43  1  0
 21 44  1  0
 21 45  1  0
 24 46  1  0
 29 47  1  0
M  END
>  <meeko>  (1435) 
{"is_sidechain": [true], "free_energy": -10.04, "intermolecular_energy": 0.0, "internal_energy": -10.04, "cluster_size": 18, "cluster_id": 1, "rank_in_cluster": 1}

>  <_RMSD_MCS_to_ref>  (1435) 
0.6457348957239002

$$$$
ligand
     RDKit          3D

 46 49  0  0  0  0  0  0  0  0999 V2000
   18.9090   19.1540    7.5370 C   0  0  0  0  0  0  0  0  0  0  0  0
   18.7730   17.6460    7.6780 C   0  0  0  0  0  0  0  0  0  0  0  0
   19.8860   16.9170    7.0110 C   0  0  0  0  0  0  0  0  0  0  0  0
   21.0950   16.5090    7.5370 C   0  0  0  0  0  0  0  0  0  0  0  0
   21.7300   15.9060    6.4880 N   0  0  0  0  0  0  0  0  0  0  0  0
   23.1750   15.0610    6.5610 S   0  0  0  0  0  6  0  0  0  0  0  0
   24.1480   15.8580    5.8370 O   0  0  0  0  0  0  0  0  0  0  0  0
   22.8550   13.6860    6.2250 O   0  0  0  0  0  0  0  0  0  0  0  0
   23.7150   15.0360    8.2270 C   0  0  0  0  0  0  0  0  0  0  0  0
   23.5710   16.1370    9.0610 N   0  0  0  0  0  0  0  0  0  0  0  0
   24.0820   15.7200   10.1970 C   0  0  0  0  0  0  0  0  0  0  0  0
   24.2710   16.2970   11.4690 C   0  0  0  0  0  0  0  0  0  0  0  0
   24.8500   15.5430   12.4270 C   0  0  0  0  0  0  0  0  0  0  0  0
   25.0430   16.1920   13.7780 C   0  0  0  0  0  0  0  0  0  0  0  0
   24.9410   15.5860   14.8360 O   0  0  0  0  0  0  0  0  0  0  0  0
   25.3270   17.5310   13.6860 N   0  0  0  0  0  0  0  0  0  0  0  0
   25.3930   18.3970   14.8480 C   0  0  1  0  0  0  0  0  0  0  0  0
   26.3340   17.8510   15.9180 C   0  0  0  0  0  0  0  0  0  0  0  0
   26.3790   18.8130   17.0950 C   0  0  0  0  0  0  0  0  0  0  0  0
   26.7760   20.2010   16.6540 C   0  0  0  0  0  0  0  0  0  0  0  0
   27.4360   20.9540   17.3640 O   0  0  0  0  0  0  0  0  0  0  0  0
   26.3330   20.6030   15.4190 N   0  0  0  0  0  0  0  0  0  0  0  0
   25.8820   19.7840   14.4140 C   0  0  0  0  0  0  0  0  0  0  0  0
   25.8620   20.1670   13.2460 O   0  0  0  0  0  0  0  0  0  0  0  0
   25.2810   14.2240   12.2520 N   0  0  0  0  0  0  0  0  0  0  0  0
   25.1040   13.6990   11.0710 C   0  0  0  0  0  0  0  0  0  0  0  0
   24.5130   14.4310   10.0530 N   0  0  0  0  0  0  0  0  0  0  0  0
   24.2950   13.9630    8.8140 N   0  0  0  0  0  0  0  0  0  0  0  0
   20.9080   15.9110    5.4090 C   0  0  0  0  0  0  0  0  0  0  0  0
   19.7840   16.5380    5.6870 N   0  0  0  0  0  0  0  0  0  0  0  0
   18.9504   19.6134    8.5356 H   0  0  0  0  0  0  0  0  0  0  0  0
   19.8320   19.3891    6.9867 H   0  0  0  0  0  0  0  0  0  0  0  0
   18.0430   19.5504    6.9867 H   0  0  0  0  0  0  0  0  0  0  0  0
   18.7716   17.3888    8.7475 H   0  0  0  0  0  0  0  0  0  0  0  0
   17.8329   17.3446    7.1929 H   0  0  0  0  0  0  0  0  0  0  0  0
   21.4632   16.6394    8.5653 H   0  0  0  0  0  0  0  0  0  0  0  0
   23.9561   17.3307   11.6747 H   0  0  0  0  0  0  0  0  0  0  0  0
   25.5001   17.9374   12.7555 H   0  0  0  0  0  0  0  0  0  0  0  0
   24.3839   18.4539   15.2820 H   0  0  0  0  0  0  0  0  0  0  0  0
   25.9705   16.8707   16.2598 H   0  0  0  0  0  0  0  0  0  0  0  0
   27.3439   17.7418   15.4959 H   0  0  0  0  0  0  0  0  0  0  0  0
   25.3834   18.8561   17.5609 H   0  0  0  0  0  0  0  0  0  0  0  0
   27.1290   18.4489   17.8126 H   0  0  0  0  0  0  0  0  0  0  0  0
   26.3395   21.6151   15.2281 H   0  0  0  0  0  0  0  0  0  0  0  0
   25.4271   12.6648   10.8810 H   0  0  0  0  0  0  0  0  0  0  0  0
   21.1471   15.4548    4.4371 H   0  0  0  0  0  0  0  0  0  0  0  0
  1  2  1  0
  2  3  1  0
  3  4  2  0
  4  5  1  0
  5  6  1  0
  6  7  2  0
  6  8  2  0
  6  9  1  0
  9 10  1  0
 10 11  2  0
 11 12  1  0
 12 13  2  0
 13 14  1  0
 14 15  2  0
 14 16  1  0
 16 17  1  0
 17 18  1  0
 18 19  1  0
 19 20  1  0
 20 21  2  0
 20 22  1  0
 22 23  1  0
 23 24  2  0
 13 25  1  0
 25 26  2  0
 26 27  1  0
 27 28  1  0
  5 29  1  0
 29 30  2  0
 30  3  1  0
 28  9  2  0
 27 11  1  0
 23 17  1  0
  1 31  1  0
  1 32  1  0
  1 33  1  0
  2 34  1  0
  2 35  1  0
  4 36  1  0
 12 37  1  0
 16 38  1  0
 17 39  1  1
 18 40  1  0
 18 41  1  0
 19 42  1  0
 19 43  1  0
 22 44  1  0
 26 45  1  0
 29 46  1  0
M  END
>  <meeko>  (1436) 
{"is_sidechain": [true], "free_energy": -10.04, "intermolecular_energy": 0.0, "internal_energy": -10.04, "cluster_size": 4, "cluster_id": 1, "rank_in_cluster": 1}

>  <_RMSD_MCS_to_ref>  (1436) 
0.6318120325258486

$$$$
ligand
     RDKit          3D

 45 48  0  0  0  0  0  0  0  0999 V2000
   18.9090   19.1540    7.5370 C   0  0  0  0  0  0  0  0  0  0  0  0
   18.7730   17.6460    7.6780 C   0  0  0  0  0  0  0  0  0  0  0  0
   20.0510   16.9390    7.3980 C   0  0  0  0  0  0  0  0  0  0  0  0
   20.6420   15.9010    8.0910 C   0  0  0  0  0  0  0  0  0  0  0  0
   21.7800   15.6320    7.3850 N   0  0  0  0  0  0  0  0  0  0  0  0
   22.9670   14.5230    7.8400 S   0  0  0  0  0  6  0  0  0  0  0  0
   22.2150   13.4880    8.5310 O   0  0  0  0  0  0  0  0  0  0  0  0
   23.6770   14.2030    6.6150 O   0  0  0  0  0  0  0  0  0  0  0  0
   24.0240   15.2620    8.9400 C   0  0  0  0  0  0  0  0  0  0  0  0
   25.0980   15.9720    8.5590 C   0  0  0  0  0  0  0  0  0  0  0  0
   25.9880   16.6290    9.9330 S   0  0  0  0  0  0  0  0  0  0  0  0
   24.8220   15.8960   11.0060 C   0  0  0  0  0  0  0  0  0  0  0  0
   24.5590   15.7770   12.3440 C   0  0  0  0  0  0  0  0  0  0  0  0
   25.2580   16.2960   13.4990 C   0  0  0  0  0  0  0  0  0  0  0  0
   25.6010   15.5690   14.4250 O   0  0  0  0  0  0  0  0  0  0  0  0
   25.5180   17.6440   13.4860 N   0  0  0  0  0  0  0  0  0  0  0  0
   26.3270   18.2790   14.5140 C   0  0  2  0  0  0  0  0  0  0  0  0
   25.8470   17.9330   15.9190 C   0  0  0  0  0  0  0  0  0  0  0  0
   26.7100   18.6560   16.9430 C   0  0  0  0  0  0  0  0  0  0  0  0
   26.7160   20.1470   16.7010 C   0  0  0  0  0  0  0  0  0  0  0  0
   26.7850   20.9630   17.6140 O   0  0  0  0  0  0  0  0  0  0  0  0
   26.6690   20.5560   15.3910 N   0  0  0  0  0  0  0  0  0  0  0  0
   26.2600   19.7980   14.3240 C   0  0  0  0  0  0  0  0  0  0  0  0
   25.8750   20.3240   13.2790 O   0  0  0  0  0  0  0  0  0  0  0  0
   23.3780   14.9870   12.3430 C   0  0  0  0  0  0  0  0  0  0  0  0
   22.9550   14.6490   11.1170 N   0  0  0  0  0  0  0  0  0  0  0  0
   23.8560   15.2200   10.2990 N   0  0  0  0  0  0  0  0  0  0  0  0
   21.8840   16.5080    6.3540 C   0  0  0  0  0  0  0  0  0  0  0  0
   20.8330   17.3040    6.3200 N   0  0  0  0  0  0  0  0  0  0  0  0
   18.9504   19.6134    8.5356 H   0  0  0  0  0  0  0  0  0  0  0  0
   19.8320   19.3891    6.9867 H   0  0  0  0  0  0  0  0  0  0  0  0
   18.0430   19.5504    6.9867 H   0  0  0  0  0  0  0  0  0  0  0  0
   18.4569   17.4132    8.7056 H   0  0  0  0  0  0  0  0  0  0  0  0
   18.0292   17.3035    6.9435 H   0  0  0  0  0  0  0  0  0  0  0  0
   20.2793   15.4044    9.0030 H   0  0  0  0  0  0  0  0  0  0  0  0
   25.3897   16.1264    7.5097 H   0  0  0  0  0  0  0  0  0  0  0  0
   25.1292   18.2216   12.7270 H   0  0  0  0  0  0  0  0  0  0  0  0
   27.3581   17.9097   14.4118 H   0  0  0  0  0  0  0  0  0  0  0  0
   24.7991   18.2465   16.0360 H   0  0  0  0  0  0  0  0  0  0  0  0
   25.9248   16.8470   16.0757 H   0  0  0  0  0  0  0  0  0  0  0  0
   26.3133   18.4580   17.9497 H   0  0  0  0  0  0  0  0  0  0  0  0
   27.7416   18.2853   16.8513 H   0  0  0  0  0  0  0  0  0  0  0  0
   26.9686   21.5211   15.1915 H   0  0  0  0  0  0  0  0  0  0  0  0
   22.8589   14.6811   13.2633 H   0  0  0  0  0  0  0  0  0  0  0  0
   22.7256   16.5485    5.6468 H   0  0  0  0  0  0  0  0  0  0  0  0
  1  2  1  0
  2  3  1  0
  3  4  2  0
  4  5  1  0
  5  6  1  0
  6  7  2  0
  6  8  2  0
  6  9  1  0
  9 10  2  0
 10 11  1  0
 11 12  1  0
 12 13  2  0
 13 14  1  0
 14 15  2  0
 14 16  1  0
 16 17  1  0
 17 18  1  0
 18 19  1  0
 19 20  1  0
 20 21  2  0
 20 22  1  0
 22 23  1  0
 23 24  2  0
 13 25  1  0
 25 26  2  0
 26 27  1  0
  5 28  1  0
 28 29  2  0
 29  3  1  0
 27  9  1  0
 27 12  1  0
 23 17  1  0
  1 30  1  0
  1 31  1  0
  1 32  1  0
  2 33  1  0
  2 34  1  0
  4 35  1  0
 10 36  1  0
 16 37  1  0
 17 38  1  1
 18 39  1  0
 18 40  1  0
 19 41  1  0
 19 42  1  0
 22 43  1  0
 25 44  1  0
 28 45  1  0
M  END
>  <meeko>  (1437) 
{"is_sidechain": [true], "free_energy": -10.04, "intermolecular_energy": 0.0, "internal_energy": -10.04, "cluster_size": 19, "cluster_id": 1, "rank_in_cluster": 1}

>  <_RMSD_MCS_to_ref>  (1437) 
0.8995180808509515

$$$$
ligand
     RDKit          3D

 45 47  0  0  0  0  0  0  0  0999 V2000
   18.9090   19.1540    7.5370 C   0  0  0  0  0  0  0  0  0  0  0  0
   18.7730   17.6460    7.6780 C   0  0  0  0  0  0  0  0  0  0  0  0
   20.0930   16.9600    7.6780 C   0  0  0  0  0  0  0  0  0  0  0  0
   20.9060   16.6400    8.7470 C   0  0  0  0  0  0  0  0  0  0  0  0
   21.9790   16.0160    8.1780 N   0  0  0  0  0  0  0  0  0  0  0  0
   23.4080   15.5960    8.9570 S   0  0  0  0  0  6  0  0  0  0  0  0
   24.2160   16.8000    8.9440 O   0  0  0  0  0  0  0  0  0  0  0  0
   23.8480   14.3540    8.3560 O   0  0  0  0  0  0  0  0  0  0  0  0
   22.9030   15.2630   10.6230 C   0  0  0  0  0  0  0  0  0  0  0  0
   21.8680   14.3570   10.8670 C   0  0  0  0  0  0  0  0  0  0  0  0
   21.4720   14.1050   12.1800 C   0  0  0  0  0  0  0  0  0  0  0  0
   22.1090   14.7530   13.2440 C   0  0  0  0  0  0  0  0  0  0  0  0
   23.1510   15.6600   12.9980 C   0  0  0  0  0  0  0  0  0  0  0  0
   23.8590   16.3810   14.0950 C   0  0  0  0  0  0  0  0  0  0  0  0
   24.1570   15.7910   15.1260 O   0  0  0  0  0  0  0  0  0  0  0  0
   24.1140   17.7190   13.9010 N   0  0  0  0  0  0  0  0  0  0  0  0
   24.6600   18.5420   14.9730 C   0  0  1  0  0  0  0  0  0  0  0  0
   25.8040   17.8510   15.7070 C   0  0  0  0  0  0  0  0  0  0  0  0
   26.3520   18.7810   16.7790 C   0  0  0  0  0  0  0  0  0  0  0  0
   26.7790   20.1050   16.1900 C   0  0  0  0  0  0  0  0  0  0  0  0
   27.7330   20.7440   16.6250 O   0  0  0  0  0  0  0  0  0  0  0  0
   26.0270   20.5860   15.1480 N   0  0  0  0  0  0  0  0  0  0  0  0
   25.1780   19.8480   14.3630 C   0  0  0  0  0  0  0  0  0  0  0  0
   24.8500   20.2330   13.2390 O   0  0  0  0  0  0  0  0  0  0  0  0
   23.5360   15.9270   11.6790 C   0  0  0  0  0  0  0  0  0  0  0  0
   21.8240   16.0060    6.8290 C   0  0  0  0  0  0  0  0  0  0  0  0
   20.6820   16.5670    6.4910 N   0  0  0  0  0  0  0  0  0  0  0  0
   18.9504   19.6134    8.5356 H   0  0  0  0  0  0  0  0  0  0  0  0
   19.8320   19.3891    6.9867 H   0  0  0  0  0  0  0  0  0  0  0  0
   18.0430   19.5504    6.9867 H   0  0  0  0  0  0  0  0  0  0  0  0
   18.2583   17.4237    8.6244 H   0  0  0  0  0  0  0  0  0  0  0  0
   18.2005   17.2765    6.8144 H   0  0  0  0  0  0  0  0  0  0  0  0
   20.7296   16.8417    9.8139 H   0  0  0  0  0  0  0  0  0  0  0  0
   21.3694   13.8464   10.0299 H   0  0  0  0  0  0  0  0  0  0  0  0
   20.6563   13.3946   12.3799 H   0  0  0  0  0  0  0  0  0  0  0  0
   21.7916   14.5506   14.2776 H   0  0  0  0  0  0  0  0  0  0  0  0
   23.9161   18.1455   12.9846 H   0  0  0  0  0  0  0  0  0  0  0  0
   23.8596   18.7272   15.7044 H   0  0  0  0  0  0  0  0  0  0  0  0
   25.4340   16.9276   16.1765 H   0  0  0  0  0  0  0  0  0  0  0  0
   26.6027   17.6036   14.9922 H   0  0  0  0  0  0  0  0  0  0  0  0
   25.5707   18.9592   17.5325 H   0  0  0  0  0  0  0  0  0  0  0  0
   27.2316   18.3042   17.2362 H   0  0  0  0  0  0  0  0  0  0  0  0
   26.1071   21.5908   14.9364 H   0  0  0  0  0  0  0  0  0  0  0  0
   24.3334   16.6563   11.4736 H   0  0  0  0  0  0  0  0  0  0  0  0
   22.5513   15.5875    6.1178 H   0  0  0  0  0  0  0  0  0  0  0  0
  1  2  1  0
  2  3  1  0
  3  4  2  0
  4  5  1  0
  5  6  1  0
  6  7  2  0
  6  8  2  0
  6  9  1  0
  9 10  2  0
 10 11  1  0
 11 12  2  0
 12 13  1  0
 13 14  1  0
 14 15  2  0
 14 16  1  0
 16 17  1  0
 17 18  1  0
 18 19  1  0
 19 20  1  0
 20 21  2  0
 20 22  1  0
 22 23  1  0
 23 24  2  0
 13 25  2  0
  5 26  1  0
 26 27  2  0
 27  3  1  0
 25  9  1  0
 23 17  1  0
  1 28  1  0
  1 29  1  0
  1 30  1  0
  2 31  1  0
  2 32  1  0
  4 33  1  0
 10 34  1  0
 11 35  1  0
 12 36  1  0
 16 37  1  0
 17 38  1  1
 18 39  1  0
 18 40  1  0
 19 41  1  0
 19 42  1  0
 22 43  1  0
 25 44  1  0
 26 45  1  0
M  END
>  <meeko>  (1438) 
{"is_sidechain": [true], "free_energy": -10.04, "intermolecular_energy": 0.0, "internal_energy": -10.04, "cluster_size": 20, "cluster_id": 1, "rank_in_cluster": 1}

>  <_RMSD_MCS_to_ref>  (1438) 
0.3879100697613074

$$$$
ligand
     RDKit          3D

 47 50  0  0  0  0  0  0  0  0999 V2000
   18.9090   19.1540    7.5370 C   0  0  0  0  0  0  0  0  0  0  0  0
   18.7730   17.6460    7.6780 C   0  0  0  0  0  0  0  0  0  0  0  0
   20.0690   16.9450    7.4690 C   0  0  0  0  0  0  0  0  0  0  0  0
   21.0000   16.5460    8.4080 C   0  0  0  0  0  0  0  0  0  0  0  0
   21.9880   15.9610    7.6730 N   0  0  0  0  0  0  0  0  0  0  0  0
   23.4930   15.4680    8.2320 S   0  0  0  0  0  6  0  0  0  0  0  0
   24.0360   14.5700    7.2340 O   0  0  0  0  0  0  0  0  0  0  0  0
   24.1680   16.6920    8.6200 O   0  0  0  0  0  0  0  0  0  0  0  0
   23.1310   14.5380    9.6940 C   0  0  0  0  0  0  0  0  0  0  0  0
   22.4220   13.3390    9.5600 C   0  0  0  0  0  0  0  0  0  0  0  0
   22.1580   12.6030   10.6970 C   0  0  0  0  0  0  0  0  0  0  0  0
   22.5310   12.9450   11.9410 N   0  0  0  0  0  0  0  0  0  0  0  0
   23.1930   14.1150   12.0310 C   0  0  0  0  0  0  0  0  0  0  0  0
   23.7210   14.6830   13.5450 S   0  0  0  0  0  0  0  0  0  0  0  0
   24.3910   16.0980   12.8620 C   0  0  0  0  0  0  0  0  0  0  0  0
   25.0610   17.1130   13.6600 C   0  0  0  0  0  0  0  0  0  0  0  0
   26.2600   17.3610   13.5440 O   0  0  0  0  0  0  0  0  0  0  0  0
   24.2820   17.7850   14.5740 N   0  0  0  0  0  0  0  0  0  0  0  0
   24.8450   18.7210   15.5340 C   0  0  1  0  0  0  0  0  0  0  0  0
   25.9080   18.0750   16.4140 C   0  0  0  0  0  0  0  0  0  0  0  0
   26.4760   19.1130   17.3680 C   0  0  0  0  0  0  0  0  0  0  0  0
   27.0160   20.3100   16.6210 C   0  0  0  0  0  0  0  0  0  0  0  0
   27.9880   20.9480   17.0120 O   0  0  0  0  0  0  0  0  0  0  0  0
   26.3410   20.6790   15.4830 N   0  0  0  0  0  0  0  0  0  0  0  0
   25.4730   19.8900   14.7690 C   0  0  0  0  0  0  0  0  0  0  0  0
   25.2180   20.1310   13.5900 O   0  0  0  0  0  0  0  0  0  0  0  0
   24.2010   16.1250   11.4910 C   0  0  0  0  0  0  0  0  0  0  0  0
   23.5230   14.9670   10.9820 C   0  0  0  0  0  0  0  0  0  0  0  0
   21.6580   16.0180    6.3560 C   0  0  0  0  0  0  0  0  0  0  0  0
   20.4960   16.6150    6.1980 N   0  0  0  0  0  0  0  0  0  0  0  0
   18.9504   19.6134    8.5356 H   0  0  0  0  0  0  0  0  0  0  0  0
   19.8320   19.3891    6.9867 H   0  0  0  0  0  0  0  0  0  0  0  0
   18.0430   19.5504    6.9867 H   0  0  0  0  0  0  0  0  0  0  0  0
   18.4043   17.4161    8.6886 H   0  0  0  0  0  0  0  0  0  0  0  0
   18.0704   17.2958    6.9075 H   0  0  0  0  0  0  0  0  0  0  0  0
   20.9546   16.6716    9.4999 H   0  0  0  0  0  0  0  0  0  0  0  0
   22.0835   12.9918    8.5727 H   0  0  0  0  0  0  0  0  0  0  0  0
   21.5988   11.6636   10.5750 H   0  0  0  0  0  0  0  0  0  0  0  0
   23.2654   17.6193   14.5783 H   0  0  0  0  0  0  0  0  0  0  0  0
   24.0321   19.0645   16.1907 H   0  0  0  0  0  0  0  0  0  0  0  0
   25.4569   17.2545   16.9913 H   0  0  0  0  0  0  0  0  0  0  0  0
   26.7156   17.6779   15.7815 H   0  0  0  0  0  0  0  0  0  0  0  0
   25.6799   19.4460   18.0502 H   0  0  0  0  0  0  0  0  0  0  0  0
   27.3028   18.6526   17.9288 H   0  0  0  0  0  0  0  0  0  0  0  0
   26.5004   21.6346   15.1333 H   0  0  0  0  0  0  0  0  0  0  0  0
   24.5377   16.9550   10.8525 H   0  0  0  0  0  0  0  0  0  0  0  0
   22.2756   15.6208    5.5369 H   0  0  0  0  0  0  0  0  0  0  0  0
  1  2  1  0
  2  3  1  0
  3  4  2  0
  4  5  1  0
  5  6  1  0
  6  7  2  0
  6  8  2  0
  6  9  1  0
  9 10  2  0
 10 11  1  0
 11 12  2  0
 12 13  1  0
 13 14  1  0
 14 15  1  0
 15 16  1  0
 16 17  2  0
 16 18  1  0
 18 19  1  0
 19 20  1  0
 20 21  1  0
 21 22  1  0
 22 23  2  0
 22 24  1  0
 24 25  1  0
 25 26  2  0
 15 27  2  0
 27 28  1  0
  5 29  1  0
 29 30  2  0
 30  3  1  0
 28  9  1  0
 28 13  2  0
 25 19  1  0
  1 31  1  0
  1 32  1  0
  1 33  1  0
  2 34  1  0
  2 35  1  0
  4 36  1  0
 10 37  1  0
 11 38  1  0
 18 39  1  0
 19 40  1  1
 20 41  1  0
 20 42  1  0
 21 43  1  0
 21 44  1  0
 24 45  1  0
 27 46  1  0
 29 47  1  0
M  END
>  <meeko>  (1439) 
{"is_sidechain": [true], "free_energy": -10.04, "intermolecular_energy": 0.0, "internal_energy": -10.04, "cluster_size": 20, "cluster_id": 1, "rank_in_cluster": 1}

>  <_RMSD_MCS_to_ref>  (1439) 
0.7466777528938882

$$$$
ligand
     RDKit          3D

 53 57  0  0  0  0  0  0  0  0999 V2000
   18.9090   19.1540    7.5370 C   0  0  0  0  0  0  0  0  0  0  0  0
   18.7730   17.6460    7.6780 C   0  0  0  0  0  0  0  0  0  0  0  0
   20.0830   16.9540    7.5510 C   0  0  0  0  0  0  0  0  0  0  0  0
   20.7170   16.1240    8.4560 C   0  0  0  0  0  0  0  0  0  0  0  0
   21.9010   15.8170    7.8510 N   0  0  0  0  0  0  0  0  0  0  0  0
   23.0730   14.7750    8.4460 S   0  0  0  0  0  6  0  0  0  0  0  0
   22.3310   13.8520    9.2840 O   0  0  0  0  0  0  0  0  0  0  0  0
   23.8440   14.3090    7.3090 O   0  0  0  0  0  0  0  0  0  0  0  0
   24.1550   15.7220    9.4860 C   0  0  0  0  0  0  0  0  0  0  0  0
   23.6610   16.1170   10.7400 C   0  0  0  0  0  0  0  0  0  0  0  0
   24.5080   16.8340   11.5610 C   0  0  0  0  0  0  0  0  0  0  0  0
   25.8080   17.1690   11.1970 C   0  0  0  0  0  0  0  0  0  0  0  0
   26.3080   16.7780    9.9670 C   0  0  0  0  0  0  0  0  0  0  0  0
   25.4790   16.0360    9.1010 C   0  0  0  0  0  0  0  0  0  0  0  0
   26.0320   15.6650    7.8120 C   0  0  0  0  0  0  0  0  0  0  0  0
   26.8820   14.5790    7.4940 C   0  0  0  0  0  0  0  0  0  0  0  0
   27.0730   14.6630    6.1360 C   0  0  0  0  0  0  0  0  0  0  0  0
   26.3610   15.7490    5.7210 N   0  0  0  0  0  0  0  0  0  0  0  0
   25.7440   16.3920    6.7270 N   0  0  0  0  0  0  0  0  0  0  0  0
   26.4510   17.9720   12.2780 C   0  0  0  0  0  0  0  0  0  0  0  0
   25.4430   17.9550   13.3290 N   0  0  0  0  0  0  0  0  0  0  0  0
   25.5590   18.8160   14.5020 C   0  0  2  0  0  0  0  0  0  0  0  0
   26.3420   20.1030   14.2470 C   0  0  0  0  0  0  0  0  0  0  0  0
   26.3450   20.9490   15.5120 C   0  0  0  0  0  0  0  0  0  0  0  0
   26.9120   20.1830   16.6830 C   0  0  0  0  0  0  0  0  0  0  0  0
   27.3940   20.7460   17.6620 O   0  0  0  0  0  0  0  0  0  0  0  0
   26.7880   18.8160   16.6460 N   0  0  0  0  0  0  0  0  0  0  0  0
   26.1510   18.0510   15.6950 C   0  0  0  0  0  0  0  0  0  0  0  0
   25.9920   16.8440   15.8730 O   0  0  0  0  0  0  0  0  0  0  0  0
   24.2560   17.3810   12.8990 C   0  0  0  0  0  0  0  0  0  0  0  0
   23.1850   17.3330   13.4700 O   0  0  0  0  0  0  0  0  0  0  0  0
   21.9210   16.3630    6.6080 C   0  0  0  0  0  0  0  0  0  0  0  0
   20.8440   17.0940    6.4040 N   0  0  0  0  0  0  0  0  0  0  0  0
   18.9504   19.6134    8.5356 H   0  0  0  0  0  0  0  0  0  0  0  0
   19.8320   19.3891    6.9867 H   0  0  0  0  0  0  0  0  0  0  0  0
   18.0430   19.5504    6.9867 H   0  0  0  0  0  0  0  0  0  0  0  0
   18.3457   17.4188    8.6658 H   0  0  0  0  0  0  0  0  0  0  0  0
   18.1194   17.2868    6.8694 H   0  0  0  0  0  0  0  0  0  0  0  0
   20.3515   15.7882    9.4377 H   0  0  0  0  0  0  0  0  0  0  0  0
   22.6380   15.8646   11.0559 H   0  0  0  0  0  0  0  0  0  0  0  0
   27.3340   17.0415    9.6704 H   0  0  0  0  0  0  0  0  0  0  0  0
   27.2990   13.8306    8.1839 H   0  0  0  0  0  0  0  0  0  0  0  0
   27.6779   13.9902    5.5103 H   0  0  0  0  0  0  0  0  0  0  0  0
   26.3019   16.0464    4.7366 H   0  0  0  0  0  0  0  0  0  0  0  0
   27.3866   17.5036   12.6175 H   0  0  0  0  0  0  0  0  0  0  0  0
   26.7343   18.9862   11.9600 H   0  0  0  0  0  0  0  0  0  0  0  0
   24.5315   19.1243   14.7452 H   0  0  0  0  0  0  0  0  0  0  0  0
   27.3768   19.8545   13.9687 H   0  0  0  0  0  0  0  0  0  0  0  0
   25.8694   20.6658   13.4285 H   0  0  0  0  0  0  0  0  0  0  0  0
   26.9570   21.8469   15.3411 H   0  0  0  0  0  0  0  0  0  0  0  0
   25.3065   21.2248   15.7476 H   0  0  0  0  0  0  0  0  0  0  0  0
   27.2243   18.3006   17.4238 H   0  0  0  0  0  0  0  0  0  0  0  0
   22.7256   16.2154    5.8726 H   0  0  0  0  0  0  0  0  0  0  0  0
  1  2  1  0
  2  3  1  0
  3  4  2  0
  4  5  1  0
  5  6  1  0
  6  7  2  0
  6  8  2  0
  6  9  1  0
  9 10  2  0
 10 11  1  0
 11 12  2  0
 12 13  1  0
 13 14  2  0
 14 15  1  0
 15 16  1  0
 16 17  2  0
 17 18  1  0
 18 19  1  0
 12 20  1  0
 20 21  1  0
 21 22  1  0
 22 23  1  0
 23 24  1  0
 24 25  1  0
 25 26  2  0
 25 27  1  0
 27 28  1  0
 28 29  2  0
 21 30  1  0
 30 31  2  0
  5 32  1  0
 32 33  2  0
 33  3  1  0
 14  9  1  0
 19 15  2  0
 28 22  1  0
 30 11  1  0
  1 34  1  0
  1 35  1  0
  1 36  1  0
  2 37  1  0
  2 38  1  0
  4 39  1  0
 10 40  1  0
 13 41  1  0
 16 42  1  0
 17 43  1  0
 18 44  1  0
 20 45  1  0
 20 46  1  0
 22 47  1  1
 23 48  1  0
 23 49  1  0
 24 50  1  0
 24 51  1  0
 27 52  1  0
 32 53  1  0
M  END
>  <meeko>  (1440) 
{"is_sidechain": [true], "free_energy": -10.04, "intermolecular_energy": 0.0, "internal_energy": -10.04, "cluster_size": 16, "cluster_id": 2, "rank_in_cluster": 1}

>  <_RMSD_MCS_to_ref>  (1440) 
1.786204899904948

$$$$
ligand
     RDKit          3D

 46 49  0  0  0  0  0  0  0  0999 V2000
   18.8250   19.0170    7.5350 C   0  0  0  0  0  0  0  0  0  0  0  0
   18.5200   17.5420    7.7330 C   0  0  0  0  0  0  0  0  0  0  0  0
   19.7090   16.7790    8.2020 C   0  0  0  0  0  0  0  0  0  0  0  0
   20.3020   16.7750    9.4490 C   0  0  0  0  0  0  0  0  0  0  0  0
   21.3420   15.8990    9.3240 N   0  0  0  0  0  0  0  0  0  0  0  0
   22.4680   15.5430   10.5190 S   0  0  0  0  0  6  0  0  0  0  0  0
   23.4500   14.7270    9.8240 O   0  0  0  0  0  0  0  0  0  0  0  0
   22.8320   16.7920   11.1520 O   0  0  0  0  0  0  0  0  0  0  0  0
   21.6610   14.5040   11.7080 C   0  0  0  0  0  0  0  0  0  0  0  0
   20.9950   13.3770   11.2080 C   0  0  0  0  0  0  0  0  0  0  0  0
   20.3070   12.5720   12.0940 C   0  0  0  0  0  0  0  0  0  0  0  0
   20.2450   12.8120   13.4180 N   0  0  0  0  0  0  0  0  0  0  0  0
   20.9190   13.8930   13.8800 C   0  0  0  0  0  0  0  0  0  0  0  0
   21.6390   14.7750   13.0790 C   0  0  0  0  0  0  0  0  0  0  0  0
   22.3220   15.8690   13.7080 C   0  0  0  0  0  0  0  0  0  0  0  0
   23.6750   16.1100   13.6640 C   0  0  0  0  0  0  0  0  0  0  0  0
   23.8360   17.1950   14.4830 N   0  0  0  0  0  0  0  0  0  0  0  0
   25.0830   17.7770   14.9480 C   0  0  2  0  0  0  0  0  0  0  0  0
   25.1550   17.9390   16.4710 C   0  0  0  0  0  0  0  0  0  0  0  0
   26.4950   18.5440   16.8580 C   0  0  0  0  0  0  0  0  0  0  0  0
   26.7160   19.8630   16.1600 C   0  0  0  0  0  0  0  0  0  0  0  0
   27.5040   20.7050   16.5770 O   0  0  0  0  0  0  0  0  0  0  0  0
   26.0470   20.0450   14.9750 N   0  0  0  0  0  0  0  0  0  0  0  0
   25.3370   19.1080   14.2600 C   0  0  0  0  0  0  0  0  0  0  0  0
   25.0250   19.3360   13.0920 O   0  0  0  0  0  0  0  0  0  0  0  0
   22.6450   17.6320   14.9390 N   0  0  0  0  0  0  0  0  0  0  0  0
   21.7110   16.8050   14.4860 N   0  0  0  0  0  0  0  0  0  0  0  0
   21.3360   15.3770    8.0710 C   0  0  0  0  0  0  0  0  0  0  0  0
   20.3810   15.9280    7.3450 N   0  0  0  0  0  0  0  0  0  0  0  0
   18.9260   19.5054    8.5155 H   0  0  0  0  0  0  0  0  0  0  0  0
   19.7645   19.1250    6.9731 H   0  0  0  0  0  0  0  0  0  0  0  0
   18.0054   19.4887    6.9731 H   0  0  0  0  0  0  0  0  0  0  0  0
   17.7187   17.4433    8.4801 H   0  0  0  0  0  0  0  0  0  0  0  0
   18.2150   17.1272    6.7609 H   0  0  0  0  0  0  0  0  0  0  0  0
   20.0044   17.3472   10.3401 H   0  0  0  0  0  0  0  0  0  0  0  0
   21.0198   13.1391   10.1343 H   0  0  0  0  0  0  0  0  0  0  0  0
   19.7827   11.6896   11.6984 H   0  0  0  0  0  0  0  0  0  0  0  0
   20.8956   14.0869   14.9625 H   0  0  0  0  0  0  0  0  0  0  0  0
   24.4457   15.5608   13.1033 H   0  0  0  0  0  0  0  0  0  0  0  0
   25.8749   17.0632   14.6771 H   0  0  0  0  0  0  0  0  0  0  0  0
   24.3437   18.6014   16.8072 H   0  0  0  0  0  0  0  0  0  0  0  0
   25.0482   16.9536   16.9481 H   0  0  0  0  0  0  0  0  0  0  0  0
   26.5159   18.7051   17.9459 H   0  0  0  0  0  0  0  0  0  0  0  0
   27.2928   17.8499   16.5551 H   0  0  0  0  0  0  0  0  0  0  0  0
   26.0805   20.9934   14.5746 H   0  0  0  0  0  0  0  0  0  0  0  0
   22.0298   14.6031    7.7109 H   0  0  0  0  0  0  0  0  0  0  0  0
  1  2  1  0
  2  3  1  0
  3  4  2  0
  4  5  1  0
  5  6  1  0
  6  7  2  0
  6  8  2  0
  6  9  1  0
  9 10  2  0
 10 11  1  0
 11 12  2  0
 12 13  1  0
 13 14  2  0
 14 15  1  0
 15 16  2  0
 16 17  1  0
 17 18  1  0
 18 19  1  0
 19 20  1  0
 20 21  1  0
 21 22  2  0
 21 23  1  0
 23 24  1  0
 24 25  2  0
 17 26  1  0
 26 27  2  0
  5 28  1  0
 28 29  2  0
 29  3  1  0
 14  9  1  0
 27 15  1  0
 24 18  1  0
  1 30  1  0
  1 31  1  0
  1 32  1  0
  2 33  1  0
  2 34  1  0
  4 35  1  0
 10 36  1  0
 11 37  1  0
 13 38  1  0
 16 39  1  0
 18 40  1  6
 19 41  1  0
 19 42  1  0
 20 43  1  0
 20 44  1  0
 23 45  1  0
 28 46  1  0
M  END
>  <meeko>  (1441) 
{"is_sidechain": [true], "free_energy": -10.03, "intermolecular_energy": 0.0, "internal_energy": -10.03, "cluster_size": 17, "cluster_id": 1, "rank_in_cluster": 1}

>  <_RMSD_MCS_to_ref>  (1441) 
0.7027481768030422

$$$$
ligand
     RDKit          3D

 52 56  0  0  0  0  0  0  0  0999 V2000
   18.8250   19.0170    7.5350 C   0  0  0  0  0  0  0  0  0  0  0  0
   18.5200   17.5420    7.7330 C   0  0  0  0  0  0  0  0  0  0  0  0
   19.7000   16.7860    8.2340 C   0  0  0  0  0  0  0  0  0  0  0  0
   19.8340   16.0510    9.3950 C   0  0  0  0  0  0  0  0  0  0  0  0
   21.1080   15.5640    9.3360 N   0  0  0  0  0  0  0  0  0  0  0  0
   21.8640   14.6520   10.5240 S   0  0  0  0  0  6  0  0  0  0  0  0
   22.7530   13.7840    9.7690 O   0  0  0  0  0  0  0  0  0  0  0  0
   20.8310   14.1070   11.3810 O   0  0  0  0  0  0  0  0  0  0  0  0
   22.8790   15.7620   11.4720 C   0  0  0  0  0  0  0  0  0  0  0  0
   22.3210   16.2460   12.6660 C   0  0  0  0  0  0  0  0  0  0  0  0
   23.0660   17.0540   13.5290 C   0  0  0  0  0  0  0  0  0  0  0  0
   24.3890   17.3940   13.2330 C   0  0  0  0  0  0  0  0  0  0  0  0
   25.1690   18.2140   14.1170 N   0  0  0  0  0  0  0  0  0  0  0  0
   26.0640   17.5870   15.0860 C   0  0  0  0  0  0  0  0  0  0  0  0
   26.1010   18.3740   16.3780 C   0  0  0  0  0  0  0  0  0  0  0  0
   26.4470   19.8000   16.0760 C   0  0  0  0  0  0  0  0  0  0  0  0
   26.9570   20.5460   16.9070 O   0  0  0  0  0  0  0  0  0  0  0  0
   26.0810   20.2500   14.8390 N   0  0  0  0  0  0  0  0  0  0  0  0
   25.2840   19.5970   13.9290 C   0  0  0  0  0  0  0  0  0  0  0  0
   24.7560   20.2560   13.0360 O   0  0  0  0  0  0  0  0  0  0  0  0
   24.9220   16.9200   12.0230 C   0  0  0  0  0  0  0  0  0  0  0  0
   24.1880   16.1130   11.1240 C   0  0  0  0  0  0  0  0  0  0  0  0
   24.8530   15.7350    9.8870 C   0  0  0  0  0  0  0  0  0  0  0  0
   25.8690   14.8550    9.5730 C   0  0  0  0  0  0  0  0  0  0  0  0
   26.1160   14.9960    8.1820 C   0  0  0  0  0  0  0  0  0  0  0  0
   26.9800   14.4290    7.2470 C   0  0  0  0  0  0  0  0  0  0  0  0
   26.9410   14.8370    5.9510 N   0  0  0  0  0  0  0  0  0  0  0  0
   26.0480   15.7890    5.5820 C   0  0  0  0  0  0  0  0  0  0  0  0
   25.1500   16.4120    6.4300 C   0  0  0  0  0  0  0  0  0  0  0  0
   25.2330   15.9700    7.7400 C   0  0  0  0  0  0  0  0  0  0  0  0
   24.4660   16.4160    8.7740 O   0  0  0  0  0  0  0  0  0  0  0  0
   21.7200   16.0480    8.2260 C   0  0  0  0  0  0  0  0  0  0  0  0
   20.8790   16.7710    7.5160 N   0  0  0  0  0  0  0  0  0  0  0  0
   18.9260   19.5054    8.5155 H   0  0  0  0  0  0  0  0  0  0  0  0
   19.7645   19.1250    6.9731 H   0  0  0  0  0  0  0  0  0  0  0  0
   18.0054   19.4887    6.9731 H   0  0  0  0  0  0  0  0  0  0  0  0
   17.7014   17.4442    8.4613 H   0  0  0  0  0  0  0  0  0  0  0  0
   18.2394   17.1212    6.7562 H   0  0  0  0  0  0  0  0  0  0  0  0
   19.0859   15.8939   10.1860 H   0  0  0  0  0  0  0  0  0  0  0  0
   21.2842   15.9858   12.9254 H   0  0  0  0  0  0  0  0  0  0  0  0
   22.6045   17.4279   14.4548 H   0  0  0  0  0  0  0  0  0  0  0  0
   25.7093   16.5672   15.2960 H   0  0  0  0  0  0  0  0  0  0  0  0
   27.0785   17.5622   14.6614 H   0  0  0  0  0  0  0  0  0  0  0  0
   25.1153   18.3296   16.8643 H   0  0  0  0  0  0  0  0  0  0  0  0
   26.8577   17.9445   17.0510 H   0  0  0  0  0  0  0  0  0  0  0  0
   26.4394   21.1743   14.5593 H   0  0  0  0  0  0  0  0  0  0  0  0
   25.9566   17.1887   11.7634 H   0  0  0  0  0  0  0  0  0  0  0  0
   26.3870   14.1760   10.2662 H   0  0  0  0  0  0  0  0  0  0  0  0
   27.6934   13.6515    7.5577 H   0  0  0  0  0  0  0  0  0  0  0  0
   26.0370   16.0896    4.5239 H   0  0  0  0  0  0  0  0  0  0  0  0
   24.4396   17.1829    6.0966 H   0  0  0  0  0  0  0  0  0  0  0  0
   22.7704   15.8626    7.9571 H   0  0  0  0  0  0  0  0  0  0  0  0
  1  2  1  0
  2  3  1  0
  3  4  2  0
  4  5  1  0
  5  6  1  0
  6  7  2  0
  6  8  2  0
  6  9  1  0
  9 10  2  0
 10 11  1  0
 11 12  2  0
 12 13  1  0
 13 14  1  0
 14 15  1  0
 15 16  1  0
 16 17  2  0
 16 18  1  0
 18 19  1  0
 19 20  2  0
 12 21  1  0
 21 22  2  0
 22 23  1  0
 23 24  2  0
 24 25  1  0
 25 26  2  0
 26 27  1  0
 27 28  2  0
 28 29  1  0
 29 30  2  0
 30 31  1  0
  5 32  1  0
 32 33  2  0
 33  3  1  0
 22  9  1  0
 31 23  1  0
 19 13  1  0
 30 25  1  0
  1 34  1  0
  1 35  1  0
  1 36  1  0
  2 37  1  0
  2 38  1  0
  4 39  1  0
 10 40  1  0
 11 41  1  0
 14 42  1  0
 14 43  1  0
 15 44  1  0
 15 45  1  0
 18 46  1  0
 21 47  1  0
 24 48  1  0
 26 49  1  0
 28 50  1  0
 29 51  1  0
 32 52  1  0
M  END
>  <meeko>  (1442) 
{"is_sidechain": [true], "free_energy": -10.03, "intermolecular_energy": 0.0, "internal_energy": -10.03, "cluster_size": 14, "cluster_id": 1, "rank_in_cluster": 1}

>  <_RMSD_MCS_to_ref>  (1442) 
0.6382310514226014

$$$$
ligand
     RDKit          3D

 56 60  0  0  0  0  0  0  0  0999 V2000
   18.8250   19.0180    7.5350 C   0  0  0  0  0  0  0  0  0  0  0  0
   18.5200   17.5410    7.7330 C   0  0  0  0  0  0  0  0  0  0  0  0
   19.7450   16.7030    7.6430 C   0  0  0  0  0  0  0  0  0  0  0  0
   20.2920   15.8590    8.5900 C   0  0  0  0  0  0  0  0  0  0  0  0
   21.3830   15.3230    7.9670 N   0  0  0  0  0  0  0  0  0  0  0  0
   22.4910   14.2770    8.6680 S   0  0  0  0  0  6  0  0  0  0  0  0
   21.7480   13.3230    9.4670 O   0  0  0  0  0  0  0  0  0  0  0  0
   23.3150   13.8480    7.5520 O   0  0  0  0  0  0  0  0  0  0  0  0
   23.5110   15.2560    9.7590 C   0  0  0  0  0  0  0  0  0  0  0  0
   24.6790   15.8150    9.1770 C   0  0  0  0  0  0  0  0  0  0  0  0
   25.5510   16.6040    9.9220 C   0  0  0  0  0  0  0  0  0  0  0  0
   25.2480   16.8190   11.2510 C   0  0  0  0  0  0  0  0  0  0  0  0
   24.1010   16.2590   11.8300 C   0  0  0  0  0  0  0  0  0  0  0  0
   23.1950   15.4610   11.1200 C   0  0  0  0  0  0  0  0  0  0  0  0
   22.0230   14.8810   11.7840 C   0  0  0  0  0  0  0  0  0  0  0  0
   22.1620   14.1360   12.9670 C   0  0  0  0  0  0  0  0  0  0  0  0
   21.0440   13.6030   13.6110 C   0  0  0  0  0  0  0  0  0  0  0  0
   19.7730   13.7960   13.0790 C   0  0  0  0  0  0  0  0  0  0  0  0
   19.6180   14.5150   11.8960 C   0  0  0  0  0  0  0  0  0  0  0  0
   20.7360   15.0480   11.2510 C   0  0  0  0  0  0  0  0  0  0  0  0
   24.0920   16.6840   13.2480 C   0  0  0  0  0  0  0  0  0  0  0  0
   23.2240   16.4570   14.0670 O   0  0  0  0  0  0  0  0  0  0  0  0
   25.2580   17.4050   13.4700 N   0  0  0  0  0  0  0  0  0  0  0  0
   25.4400   18.2040   14.6790 C   0  0  1  0  0  0  0  0  0  0  0  0
   26.4430   17.5860   15.6460 C   0  0  0  0  0  0  0  0  0  0  0  0
   26.5130   18.4310   16.9090 C   0  0  0  0  0  0  0  0  0  0  0  0
   26.8500   19.8680   16.5850 C   0  0  0  0  0  0  0  0  0  0  0  0
   27.5650   20.5550   17.3080 O   0  0  0  0  0  0  0  0  0  0  0  0
   26.3020   20.3820   15.4370 N   0  0  0  0  0  0  0  0  0  0  0  0
   25.8800   19.6430   14.3560 C   0  0  0  0  0  0  0  0  0  0  0  0
   25.8870   20.1320   13.2280 O   0  0  0  0  0  0  0  0  0  0  0  0
   26.0070   17.6280   12.2500 C   0  0  0  0  0  0  0  0  0  0  0  0
   21.5060   15.8700    6.7310 C   0  0  0  0  0  0  0  0  0  0  0  0
   20.5150   16.7050    6.4970 N   0  0  0  0  0  0  0  0  0  0  0  0
   18.9258   19.5062    8.5155 H   0  0  0  0  0  0  0  0  0  0  0  0
   19.7645   19.1263    6.9731 H   0  0  0  0  0  0  0  0  0  0  0  0
   18.0053   19.4896    6.9731 H   0  0  0  0  0  0  0  0  0  0  0  0
   18.0665   17.4018    8.7254 H   0  0  0  0  0  0  0  0  0  0  0  0
   17.8328   17.2256    6.9341 H   0  0  0  0  0  0  0  0  0  0  0  0
   19.9318   15.6636    9.6108 H   0  0  0  0  0  0  0  0  0  0  0  0
   24.8992   15.6209    8.1169 H   0  0  0  0  0  0  0  0  0  0  0  0
   26.4516   17.0415    9.4665 H   0  0  0  0  0  0  0  0  0  0  0  0
   23.1636   13.9707   13.3908 H   0  0  0  0  0  0  0  0  0  0  0  0
   21.1682   13.0291   14.5412 H   0  0  0  0  0  0  0  0  0  0  0  0
   18.8923   13.3817   13.5915 H   0  0  0  0  0  0  0  0  0  0  0  0
   18.6148   14.6629   11.4698 H   0  0  0  0  0  0  0  0  0  0  0  0
   20.6058   15.6064   10.3122 H   0  0  0  0  0  0  0  0  0  0  0  0
   24.4532   18.2251   15.1646 H   0  0  0  0  0  0  0  0  0  0  0  0
   26.1232   16.5657   15.9042 H   0  0  0  0  0  0  0  0  0  0  0  0
   27.4353   17.5493   15.1728 H   0  0  0  0  0  0  0  0  0  0  0  0
   25.5387   18.3967   17.4185 H   0  0  0  0  0  0  0  0  0  0  0  0
   27.3033   18.0248   17.5574 H   0  0  0  0  0  0  0  0  0  0  0  0
   26.1980   21.4051   15.3798 H   0  0  0  0  0  0  0  0  0  0  0  0
   26.0128   18.6934   11.9765 H   0  0  0  0  0  0  0  0  0  0  0  0
   27.0669   17.3446   12.3287 H   0  0  0  0  0  0  0  0  0  0  0  0
   22.3190   15.6472    6.0243 H   0  0  0  0  0  0  0  0  0  0  0  0
  1  2  1  0
  2  3  1  0
  3  4  2  0
  4  5  1  0
  5  6  1  0
  6  7  2  0
  6  8  2  0
  6  9  1  0
  9 10  2  0
 10 11  1  0
 11 12  2  0
 12 13  1  0
 13 14  2  0
 14 15  1  0
 15 16  2  0
 16 17  1  0
 17 18  2  0
 18 19  1  0
 19 20  2  0
 13 21  1  0
 21 22  2  0
 21 23  1  0
 23 24  1  0
 24 25  1  0
 25 26  1  0
 26 27  1  0
 27 28  2  0
 27 29  1  0
 29 30  1  0
 30 31  2  0
 23 32  1  0
  5 33  1  0
 33 34  2  0
 34  3  1  0
 14  9  1  0
 20 15  1  0
 30 24  1  0
 32 12  1  0
  1 35  1  0
  1 36  1  0
  1 37  1  0
  2 38  1  0
  2 39  1  0
  4 40  1  0
 10 41  1  0
 11 42  1  0
 16 43  1  0
 17 44  1  0
 18 45  1  0
 19 46  1  0
 20 47  1  0
 24 48  1  1
 25 49  1  0
 25 50  1  0
 26 51  1  0
 26 52  1  0
 29 53  1  0
 32 54  1  0
 32 55  1  0
 33 56  1  0
M  END
>  <meeko>  (1443) 
{"is_sidechain": [true], "free_energy": -10.03, "intermolecular_energy": 0.0, "internal_energy": -10.03, "cluster_size": 17, "cluster_id": 1, "rank_in_cluster": 1}

>  <_RMSD_MCS_to_ref>  (1443) 
1.0132364262873472

$$$$
ligand
     RDKit          3D

 54 58  0  0  0  0  0  0  0  0999 V2000
   18.8250   19.0170    7.5350 C   0  0  0  0  0  0  0  0  0  0  0  0
   18.5200   17.5420    7.7330 C   0  0  0  0  0  0  0  0  0  0  0  0
   19.7530   16.7370    7.9510 C   0  0  0  0  0  0  0  0  0  0  0  0
   20.5090   16.5990    9.0980 C   0  0  0  0  0  0  0  0  0  0  0  0
   21.5050   15.7360    8.7420 N   0  0  0  0  0  0  0  0  0  0  0  0
   22.8380   15.3390    9.6820 S   0  0  0  0  0  6  0  0  0  0  0  0
   23.1640   13.9700    9.3270 O   0  0  0  0  0  0  0  0  0  0  0  0
   23.7870   16.4220    9.5280 O   0  0  0  0  0  0  0  0  0  0  0  0
   22.2210   15.3700   11.3380 C   0  0  0  0  0  0  0  0  0  0  0  0
   21.0950   14.5920   11.6640 C   0  0  0  0  0  0  0  0  0  0  0  0
   20.5600   14.5450   12.9800 C   0  0  0  0  0  0  0  0  0  0  0  0
   19.3900   13.6910   13.2750 C   0  0  0  0  0  0  0  0  0  0  0  0
   19.4000   12.2970   13.2100 C   0  0  0  0  0  0  0  0  0  0  0  0
   18.3150   11.5240   13.4800 N   0  0  0  0  0  0  0  0  0  0  0  0
   17.1990   12.2000   13.8240 C   0  0  0  0  0  0  0  0  0  0  0  0
   17.1710   13.5800   13.9010 C   0  0  0  0  0  0  0  0  0  0  0  0
   18.2540   14.3460   13.6350 N   0  0  0  0  0  0  0  0  0  0  0  0
   21.1950   15.3170   13.9690 C   0  0  0  0  0  0  0  0  0  0  0  0
   22.2860   16.0950   13.6110 C   0  0  0  0  0  0  0  0  0  0  0  0
   22.8070   16.1440   12.3210 C   0  0  0  0  0  0  0  0  0  0  0  0
   23.9840   17.0660   12.2870 C   0  0  0  0  0  0  0  0  0  0  0  0
   24.0390   17.5650   13.6560 N   0  0  0  0  0  0  0  0  0  0  0  0
   25.1940   18.2710   14.2010 C   0  0  2  0  0  0  0  0  0  0  0  0
   25.4950   17.8770   15.6430 C   0  0  0  0  0  0  0  0  0  0  0  0
   26.7550   18.5930   16.1080 C   0  0  0  0  0  0  0  0  0  0  0  0
   26.6270   20.0900   15.9430 C   0  0  0  0  0  0  0  0  0  0  0  0
   27.1260   20.8840   16.7340 O   0  0  0  0  0  0  0  0  0  0  0  0
   25.9350   20.5300   14.8420 N   0  0  0  0  0  0  0  0  0  0  0  0
   25.0160   19.7980   14.1270 C   0  0  0  0  0  0  0  0  0  0  0  0
   24.1260   20.3620   13.4940 O   0  0  0  0  0  0  0  0  0  0  0  0
   23.1000   16.9580   14.4720 C   0  0  0  0  0  0  0  0  0  0  0  0
   22.9490   17.0830   15.6700 O   0  0  0  0  0  0  0  0  0  0  0  0
   21.3700   15.4170    7.4290 C   0  0  0  0  0  0  0  0  0  0  0  0
   20.3030   15.9980    6.9220 N   0  0  0  0  0  0  0  0  0  0  0  0
   18.9260   19.5054    8.5155 H   0  0  0  0  0  0  0  0  0  0  0  0
   19.7645   19.1250    6.9731 H   0  0  0  0  0  0  0  0  0  0  0  0
   18.0054   19.4887    6.9731 H   0  0  0  0  0  0  0  0  0  0  0  0
   17.8645   17.4304    8.6093 H   0  0  0  0  0  0  0  0  0  0  0  0
   18.0327   17.1723    6.8187 H   0  0  0  0  0  0  0  0  0  0  0  0
   20.3459   17.0758   10.0758 H   0  0  0  0  0  0  0  0  0  0  0  0
   20.6119   13.9996   10.8730 H   0  0  0  0  0  0  0  0  0  0  0  0
   20.3370   11.7965   12.9247 H   0  0  0  0  0  0  0  0  0  0  0  0
   16.2826   11.6352   14.0503 H   0  0  0  0  0  0  0  0  0  0  0  0
   16.2318   14.0744   14.1897 H   0  0  0  0  0  0  0  0  0  0  0  0
   20.8331   15.3041   15.0077 H   0  0  0  0  0  0  0  0  0  0  0  0
   24.9048   16.5244   12.0248 H   0  0  0  0  0  0  0  0  0  0  0  0
   23.8927   17.8634   11.5348 H   0  0  0  0  0  0  0  0  0  0  0  0
   26.0454   17.9712   13.5723 H   0  0  0  0  0  0  0  0  0  0  0  0
   24.6504   18.1646   16.2864 H   0  0  0  0  0  0  0  0  0  0  0  0
   25.6459   16.7891   15.7037 H   0  0  0  0  0  0  0  0  0  0  0  0
   26.9272   18.3627   17.1698 H   0  0  0  0  0  0  0  0  0  0  0  0
   27.5989   18.2463   15.4935 H   0  0  0  0  0  0  0  0  0  0  0  0
   26.1201   21.4919   14.5237 H   0  0  0  0  0  0  0  0  0  0  0  0
   22.0556   14.7649    6.8680 H   0  0  0  0  0  0  0  0  0  0  0  0
  1  2  1  0
  2  3  1  0
  3  4  2  0
  4  5  1  0
  5  6  1  0
  6  7  2  0
  6  8  2  0
  6  9  1  0
  9 10  2  0
 10 11  1  0
 11 12  1  0
 12 13  2  0
 13 14  1  0
 14 15  2  0
 15 16  1  0
 16 17  2  0
 11 18  2  0
 18 19  1  0
 19 20  2  0
 20 21  1  0
 21 22  1  0
 22 23  1  0
 23 24  1  0
 24 25  1  0
 25 26  1  0
 26 27  2  0
 26 28  1  0
 28 29  1  0
 29 30  2  0
 22 31  1  0
 31 32  2  0
  5 33  1  0
 33 34  2  0
 34  3  1  0
 20  9  1  0
 29 23  1  0
 17 12  1  0
 31 19  1  0
  1 35  1  0
  1 36  1  0
  1 37  1  0
  2 38  1  0
  2 39  1  0
  4 40  1  0
 10 41  1  0
 13 42  1  0
 15 43  1  0
 16 44  1  0
 18 45  1  0
 21 46  1  0
 21 47  1  0
 23 48  1  6
 24 49  1  0
 24 50  1  0
 25 51  1  0
 25 52  1  0
 28 53  1  0
 33 54  1  0
M  END
>  <meeko>  (1444) 
{"is_sidechain": [true], "free_energy": -10.03, "intermolecular_energy": 0.0, "internal_energy": -10.03, "cluster_size": 16, "cluster_id": 1, "rank_in_cluster": 1}

>  <_RMSD_MCS_to_ref>  (1444) 
1.5439446233592709

$$$$
ligand
     RDKit          3D

 46 49  0  0  0  0  0  0  0  0999 V2000
   18.7970   18.8170    7.7190 C   0  0  0  0  0  0  0  0  0  0  0  0
   18.5280   17.3290    7.8810 C   0  0  0  0  0  0  0  0  0  0  0  0
   19.6980   16.5000    7.4840 C   0  0  0  0  0  0  0  0  0  0  0  0
   20.8030   16.1440    8.2330 C   0  0  0  0  0  0  0  0  0  0  0  0
   21.5500   15.3810    7.3810 N   0  0  0  0  0  0  0  0  0  0  0  0
   23.0130   14.6350    7.7590 S   0  0  0  0  0  6  0  0  0  0  0  0
   23.1950   13.5750    6.7820 O   0  0  0  0  0  0  0  0  0  0  0  0
   23.9520   15.7430    7.8170 O   0  0  0  0  0  0  0  0  0  0  0  0
   22.9290   13.9990    9.2550 O   0  0  0  0  0  0  0  0  0  0  0  0
   23.5230   14.6390   10.3110 C   0  0  0  0  0  0  0  0  0  0  0  0
   22.6900   15.2710   11.2180 C   0  0  0  0  0  0  0  0  0  0  0  0
   23.2650   15.8930   12.3260 C   0  0  0  0  0  0  0  0  0  0  0  0
   24.6510   15.8510   12.4990 C   0  0  0  0  0  0  0  0  0  0  0  0
   25.2710   16.5040   13.6680 C   0  0  0  0  0  0  0  0  0  0  0  0
   26.5390   16.4360   13.9220 N   0  0  0  0  0  0  0  0  0  0  0  0
   26.7730   17.1780   15.1000 O   0  0  0  0  0  0  0  0  0  0  0  0
   25.6190   17.9830   15.3640 C   0  0  1  0  0  0  0  0  0  0  0  0
   25.4140   18.0890   16.8740 C   0  0  0  0  0  0  0  0  0  0  0  0
   26.6160   18.7610   17.5260 C   0  0  0  0  0  0  0  0  0  0  0  0
   26.9190   20.0940   16.8840 C   0  0  0  0  0  0  0  0  0  0  0  0
   27.3290   21.0550   17.5270 O   0  0  0  0  0  0  0  0  0  0  0  0
   26.7180   20.1840   15.5310 N   0  0  0  0  0  0  0  0  0  0  0  0
   25.8610   19.3910   14.8060 C   0  0  0  0  0  0  0  0  0  0  0  0
   25.3120   19.8280   13.7970 O   0  0  0  0  0  0  0  0  0  0  0  0
   24.4740   17.2680   14.6700 C   0  0  0  0  0  0  0  0  0  0  0  0
   25.3970   15.1840   11.5380 C   0  0  0  0  0  0  0  0  0  0  0  0
   24.8600   14.5760   10.4500 N   0  0  0  0  0  0  0  0  0  0  0  0
   20.9170   15.2950    6.1830 C   0  0  0  0  0  0  0  0  0  0  0  0
   19.7820   15.9660    6.2120 N   0  0  0  0  0  0  0  0  0  0  0  0
   18.8815   19.2845    8.7111 H   0  0  0  0  0  0  0  0  0  0  0  0
   19.7359   18.9616    7.1643 H   0  0  0  0  0  0  0  0  0  0  0  0
   17.9682   19.2812    7.1643 H   0  0  0  0  0  0  0  0  0  0  0  0
   18.2905   17.1247    8.9354 H   0  0  0  0  0  0  0  0  0  0  0  0
   17.6874   17.0641    7.2228 H   0  0  0  0  0  0  0  0  0  0  0  0
   21.0292   16.4130    9.2753 H   0  0  0  0  0  0  0  0  0  0  0  0
   21.6003   15.2824   11.0684 H   0  0  0  0  0  0  0  0  0  0  0  0
   22.6313   16.4135   13.0592 H   0  0  0  0  0  0  0  0  0  0  0  0
   24.5115   18.6844   17.0766 H   0  0  0  0  0  0  0  0  0  0  0  0
   25.3003   17.0775   17.2911 H   0  0  0  0  0  0  0  0  0  0  0  0
   26.4023   18.9185   18.5935 H   0  0  0  0  0  0  0  0  0  0  0  0
   27.4909   18.1073   17.3947 H   0  0  0  0  0  0  0  0  0  0  0  0
   27.2503   20.9013   15.0181 H   0  0  0  0  0  0  0  0  0  0  0  0
   23.9226   16.6060   15.3539 H   0  0  0  0  0  0  0  0  0  0  0  0
   23.6830   17.9140   14.2614 H   0  0  0  0  0  0  0  0  0  0  0  0
   26.4889   15.1457   11.6656 H   0  0  0  0  0  0  0  0  0  0  0  0
   21.2974   14.7432    5.3107 H   0  0  0  0  0  0  0  0  0  0  0  0
  1  2  1  0
  2  3  1  0
  3  4  2  0
  4  5  1  0
  5  6  1  0
  6  7  2  0
  6  8  2  0
  6  9  1  0
  9 10  1  0
 10 11  2  0
 11 12  1  0
 12 13  2  0
 13 14  1  0
 14 15  2  0
 15 16  1  0
 17 16  1  1
 17 18  1  0
 18 19  1  0
 19 20  1  0
 20 21  2  0
 20 22  1  0
 22 23  1  0
 23 24  2  0
 17 25  1  0
 13 26  1  0
 26 27  2  0
  5 28  1  0
 28 29  2  0
 29  3  1  0
 27 10  1  0
 25 14  1  0
 23 17  1  0
  1 30  1  0
  1 31  1  0
  1 32  1  0
  2 33  1  0
  2 34  1  0
  4 35  1  0
 11 36  1  0
 12 37  1  0
 18 38  1  0
 18 39  1  0
 19 40  1  0
 19 41  1  0
 22 42  1  0
 25 43  1  0
 25 44  1  0
 26 45  1  0
 28 46  1  0
M  END
>  <meeko>  (1445) 
{"is_sidechain": [true], "free_energy": -10.03, "intermolecular_energy": 0.0, "internal_energy": -10.03, "cluster_size": 20, "cluster_id": 1, "rank_in_cluster": 1}

>  <_RMSD_MCS_to_ref>  (1445) 
0.6790302828298598

$$$$
ligand
     RDKit          3D

 48 51  0  0  0  0  0  0  0  0999 V2000
   18.7970   18.8170    7.7190 C   0  0  0  0  0  0  0  0  0  0  0  0
   18.5280   17.3290    7.8810 C   0  0  0  0  0  0  0  0  0  0  0  0
   19.7690   16.5170    7.7550 C   0  0  0  0  0  0  0  0  0  0  0  0
   20.1660   15.4170    8.4900 C   0  0  0  0  0  0  0  0  0  0  0  0
   21.3620   15.0590    7.9380 N   0  0  0  0  0  0  0  0  0  0  0  0
   22.4630   13.9420    8.5700 S   0  0  0  0  0  6  0  0  0  0  0  0
   21.6420   12.9750    9.2760 O   0  0  0  0  0  0  0  0  0  0  0  0
   23.2330   13.5310    7.4090 O   0  0  0  0  0  0  0  0  0  0  0  0
   23.4710   14.8150    9.6810 C   0  0  0  0  0  0  0  0  0  0  0  0
   24.6160   15.3570    9.2150 C   0  0  0  0  0  0  0  0  0  0  0  0
   25.4640   16.1200   10.1170 C   0  0  0  0  0  0  0  0  0  0  0  0
   25.1330   16.3120   11.4110 C   0  0  0  0  0  0  0  0  0  0  0  0
   26.0620   17.1220   12.2660 C   0  0  0  0  0  0  0  0  0  0  0  0
   27.0160   17.7290   11.7850 O   0  0  0  0  0  0  0  0  0  0  0  0
   25.7770   17.1430   13.6050 N   0  0  0  0  0  0  0  0  0  0  0  0
   26.5440   17.9320   14.5520 C   0  0  2  0  0  0  0  0  0  0  0  0
   26.1090   17.6600   15.9890 C   0  0  0  0  0  0  0  0  0  0  0  0
   26.9370   18.5090   16.9410 C   0  0  0  0  0  0  0  0  0  0  0  0
   26.8340   19.9750   16.5960 C   0  0  0  0  0  0  0  0  0  0  0  0
   26.8820   20.8570   17.4490 O   0  0  0  0  0  0  0  0  0  0  0  0
   26.7200   20.2860   15.2650 N   0  0  0  0  0  0  0  0  0  0  0  0
   26.3740   19.4260   14.2500 C   0  0  0  0  0  0  0  0  0  0  0  0
   25.9790   19.8600   13.1700 O   0  0  0  0  0  0  0  0  0  0  0  0
   23.9230   15.7390   11.9120 C   0  0  0  0  0  0  0  0  0  0  0  0
   23.3860   15.7850   13.1170 N   0  0  0  0  0  0  0  0  0  0  0  0
   22.2360   15.0550   13.0370 C   0  0  0  0  0  0  0  0  0  0  0  0
   22.0610   14.5570   11.7690 C   0  0  0  0  0  0  0  0  0  0  0  0
   23.1340   14.9980   11.0250 N   0  0  0  0  0  0  0  0  0  0  0  0
   21.6760   15.9360    6.9500 C   0  0  0  0  0  0  0  0  0  0  0  0
   20.7250   16.8340    6.8110 N   0  0  0  0  0  0  0  0  0  0  0  0
   18.8815   19.2845    8.7111 H   0  0  0  0  0  0  0  0  0  0  0  0
   19.7359   18.9616    7.1643 H   0  0  0  0  0  0  0  0  0  0  0  0
   17.9682   19.2812    7.1643 H   0  0  0  0  0  0  0  0  0  0  0  0
   18.0895   17.1543    8.8746 H   0  0  0  0  0  0  0  0  0  0  0  0
   17.8397   17.0208    7.0802 H   0  0  0  0  0  0  0  0  0  0  0  0
   19.6388   14.9387    9.3286 H   0  0  0  0  0  0  0  0  0  0  0  0
   24.9051   15.2227    8.1622 H   0  0  0  0  0  0  0  0  0  0  0  0
   26.4003   16.5522    9.7342 H   0  0  0  0  0  0  0  0  0  0  0  0
   24.9893   16.5781   13.9533 H   0  0  0  0  0  0  0  0  0  0  0  0
   27.6002   17.6436   14.4462 H   0  0  0  0  0  0  0  0  0  0  0  0
   25.0447   17.9133   16.1037 H   0  0  0  0  0  0  0  0  0  0  0  0
   26.2609   16.5957   16.2218 H   0  0  0  0  0  0  0  0  0  0  0  0
   26.5728   18.3556   17.9676 H   0  0  0  0  0  0  0  0  0  0  0  0
   27.9902   18.2039   16.8532 H   0  0  0  0  0  0  0  0  0  0  0  0
   26.9131   21.2622   14.9993 H   0  0  0  0  0  0  0  0  0  0  0  0
   21.5429   14.8879   13.8747 H   0  0  0  0  0  0  0  0  0  0  0  0
   21.2287   13.9299   11.4168 H   0  0  0  0  0  0  0  0  0  0  0  0
   22.5971   15.9004    6.3497 H   0  0  0  0  0  0  0  0  0  0  0  0
  1  2  1  0
  2  3  1  0
  3  4  2  0
  4  5  1  0
  5  6  1  0
  6  7  2  0
  6  8  2  0
  6  9  1  0
  9 10  2  0
 10 11  1  0
 11 12  2  0
 12 13  1  0
 13 14  2  0
 13 15  1  0
 15 16  1  0
 16 17  1  0
 17 18  1  0
 18 19  1  0
 19 20  2  0
 19 21  1  0
 21 22  1  0
 22 23  2  0
 12 24  1  0
 24 25  2  0
 25 26  1  0
 26 27  2  0
 27 28  1  0
  5 29  1  0
 29 30  2  0
 30  3  1  0
 28  9  1  0
 22 16  1  0
 28 24  1  0
  1 31  1  0
  1 32  1  0
  1 33  1  0
  2 34  1  0
  2 35  1  0
  4 36  1  0
 10 37  1  0
 11 38  1  0
 15 39  1  0
 16 40  1  1
 17 41  1  0
 17 42  1  0
 18 43  1  0
 18 44  1  0
 21 45  1  0
 26 46  1  0
 27 47  1  0
 29 48  1  0
M  END
>  <meeko>  (1446) 
{"is_sidechain": [true], "free_energy": -10.03, "intermolecular_energy": 0.0, "internal_energy": -10.03, "cluster_size": 18, "cluster_id": 1, "rank_in_cluster": 1}

>  <_RMSD_MCS_to_ref>  (1446) 
0.9105311026477285

$$$$
ligand
     RDKit          3D

 45 48  0  0  0  0  0  0  0  0999 V2000
   18.7970   18.8170    7.7190 C   0  0  0  0  0  0  0  0  0  0  0  0
   18.5280   17.3290    7.8810 C   0  0  0  0  0  0  0  0  0  0  0  0
   19.7830   16.5280    7.8710 C   0  0  0  0  0  0  0  0  0  0  0  0
   20.6340   16.2320    8.9180 C   0  0  0  0  0  0  0  0  0  0  0  0
   21.6280   15.4940    8.3440 N   0  0  0  0  0  0  0  0  0  0  0  0
   22.8010   14.6300    9.1710 S   0  0  0  0  0  6  0  0  0  0  0  0
   23.0510   13.4280    8.4040 O   0  0  0  0  0  0  0  0  0  0  0  0
   23.8380   15.5750    9.5240 O   0  0  0  0  0  0  0  0  0  0  0  0
   22.1560   14.0750   10.6890 C   0  0  0  0  0  0  0  0  0  0  0  0
   21.0550   13.3060   11.0490 C   0  0  0  0  0  0  0  0  0  0  0  0
   20.9600   13.1370   12.4140 N   0  0  0  0  0  0  0  0  0  0  0  0
   21.9900   13.7950   12.8640 C   0  0  0  0  0  0  0  0  0  0  0  0
   22.6380   14.1070   14.4430 S   0  0  0  0  0  0  0  0  0  0  0  0
   23.9300   15.0340   13.6790 C   0  0  0  0  0  0  0  0  0  0  0  0
   25.0080   15.6950   14.4560 C   0  0  0  0  0  0  0  0  0  0  0  0
   25.8970   15.0410   14.9920 O   0  0  0  0  0  0  0  0  0  0  0  0
   24.9440   17.0610   14.5160 N   0  0  0  0  0  0  0  0  0  0  0  0
   25.9980   17.8590   15.1230 C   0  0  2  0  0  0  0  0  0  0  0  0
   25.9700   17.7870   16.6450 C   0  0  0  0  0  0  0  0  0  0  0  0
   27.0760   18.6640   17.2150 C   0  0  0  0  0  0  0  0  0  0  0  0
   26.9610   20.0860   16.7150 C   0  0  0  0  0  0  0  0  0  0  0  0
   27.2740   21.0530   17.4020 O   0  0  0  0  0  0  0  0  0  0  0  0
   26.5130   20.2500   15.4290 N   0  0  0  0  0  0  0  0  0  0  0  0
   25.8260   19.3180   14.6900 C   0  0  0  0  0  0  0  0  0  0  0  0
   25.1270   19.6520   13.7340 O   0  0  0  0  0  0  0  0  0  0  0  0
   23.8410   15.0780   12.3370 C   0  0  0  0  0  0  0  0  0  0  0  0
   22.7440   14.3780   11.8870 N   0  0  0  0  0  0  0  0  0  0  0  0
   21.3430   15.3090    7.0300 C   0  0  0  0  0  0  0  0  0  0  0  0
   20.2330   15.9380    6.7070 N   0  0  0  0  0  0  0  0  0  0  0  0
   18.8815   19.2845    8.7111 H   0  0  0  0  0  0  0  0  0  0  0  0
   19.7359   18.9616    7.1643 H   0  0  0  0  0  0  0  0  0  0  0  0
   17.9682   19.2812    7.1643 H   0  0  0  0  0  0  0  0  0  0  0  0
   18.0099   17.1644    8.8373 H   0  0  0  0  0  0  0  0  0  0  0  0
   17.9110   17.0021    7.0310 H   0  0  0  0  0  0  0  0  0  0  0  0
   20.5334   16.5245    9.9736 H   0  0  0  0  0  0  0  0  0  0  0  0
   20.3416   12.8812   10.3275 H   0  0  0  0  0  0  0  0  0  0  0  0
   24.1230   17.5393   14.1185 H   0  0  0  0  0  0  0  0  0  0  0  0
   26.9642   17.4559   14.7855 H   0  0  0  0  0  0  0  0  0  0  0  0
   24.9953   18.1419   17.0110 H   0  0  0  0  0  0  0  0  0  0  0  0
   26.1253   16.7463   16.9657 H   0  0  0  0  0  0  0  0  0  0  0  0
   27.0044   18.6631   18.3127 H   0  0  0  0  0  0  0  0  0  0  0  0
   28.0447   18.2580   16.8882 H   0  0  0  0  0  0  0  0  0  0  0  0
   26.7096   21.1541   14.9764 H   0  0  0  0  0  0  0  0  0  0  0  0
   24.5524   15.6049   11.6841 H   0  0  0  0  0  0  0  0  0  0  0  0
   21.9539   14.7166    6.3330 H   0  0  0  0  0  0  0  0  0  0  0  0
  1  2  1  0
  2  3  1  0
  3  4  2  0
  4  5  1  0
  5  6  1  0
  6  7  2  0
  6  8  2  0
  6  9  1  0
  9 10  2  0
 10 11  1  0
 11 12  2  0
 12 13  1  0
 13 14  1  0
 14 15  1  0
 15 16  2  0
 15 17  1  0
 17 18  1  0
 18 19  1  0
 19 20  1  0
 20 21  1  0
 21 22  2  0
 21 23  1  0
 23 24  1  0
 24 25  2  0
 14 26  2  0
 26 27  1  0
  5 28  1  0
 28 29  2  0
 29  3  1  0
 27  9  1  0
 27 12  1  0
 24 18  1  0
  1 30  1  0
  1 31  1  0
  1 32  1  0
  2 33  1  0
  2 34  1  0
  4 35  1  0
 10 36  1  0
 17 37  1  0
 18 38  1  6
 19 39  1  0
 19 40  1  0
 20 41  1  0
 20 42  1  0
 23 43  1  0
 26 44  1  0
 28 45  1  0
M  END
>  <meeko>  (1447) 
{"is_sidechain": [true], "free_energy": -10.03, "intermolecular_energy": 0.0, "internal_energy": -10.03, "cluster_size": 18, "cluster_id": 1, "rank_in_cluster": 1}

>  <_RMSD_MCS_to_ref>  (1447) 
0.6415594715656181

$$$$
ligand
     RDKit          3D

 50 53  0  0  0  0  0  0  0  0999 V2000
   18.7970   18.8170    7.7190 C   0  0  0  0  0  0  0  0  0  0  0  0
   18.5280   17.3290    7.8810 C   0  0  0  0  0  0  0  0  0  0  0  0
   19.7840   16.5460    8.0430 C   0  0  0  0  0  0  0  0  0  0  0  0
   20.6360   16.4860    9.1290 C   0  0  0  0  0  0  0  0  0  0  0  0
   21.6260   15.6330    8.7300 N   0  0  0  0  0  0  0  0  0  0  0  0
   22.8430   15.0100    9.7040 S   0  0  0  0  0  6  0  0  0  0  0  0
   23.2920   16.1320   10.5070 O   0  0  0  0  0  0  0  0  0  0  0  0
   23.7200   14.2920    8.7990 O   0  0  0  0  0  0  0  0  0  0  0  0
   22.1140   13.8160   10.8070 C   0  0  0  0  0  0  0  0  0  0  0  0
   21.0780   12.9840   10.3560 C   0  0  0  0  0  0  0  0  0  0  0  0
   20.5100   12.0500   11.2180 C   0  0  0  0  0  0  0  0  0  0  0  0
   20.9690   11.9420   12.5270 C   0  0  0  0  0  0  0  0  0  0  0  0
   22.0050   12.7660   12.9960 C   0  0  0  0  0  0  0  0  0  0  0  0
   22.4650   12.6550   14.3110 C   0  0  0  0  0  0  0  0  0  0  0  0
   23.4520   13.4010   14.8490 N   0  0  0  0  0  0  0  0  0  0  0  0
   24.0200   14.3180   14.0270 C   0  0  0  0  0  0  0  0  0  0  0  0
   25.1120   15.1520   14.6280 C   0  0  0  0  0  0  0  0  0  0  0  0
   26.1640   14.6600   15.0180 O   0  0  0  0  0  0  0  0  0  0  0  0
   24.8350   16.5000   14.6880 N   0  0  0  0  0  0  0  0  0  0  0  0
   25.8270   17.4820   15.0800 C   0  0  2  0  0  0  0  0  0  0  0  0
   25.9490   17.5960   16.5970 C   0  0  0  0  0  0  0  0  0  0  0  0
   26.9880   18.6500   16.9450 C   0  0  0  0  0  0  0  0  0  0  0  0
   26.6550   19.9790   16.3090 C   0  0  0  0  0  0  0  0  0  0  0  0
   26.9200   21.0510   16.8440 O   0  0  0  0  0  0  0  0  0  0  0  0
   26.0640   19.9360   15.0710 N   0  0  0  0  0  0  0  0  0  0  0  0
   25.4410   18.8510   14.5060 C   0  0  0  0  0  0  0  0  0  0  0  0
   24.6410   18.9950   13.5820 O   0  0  0  0  0  0  0  0  0  0  0  0
   23.6390   14.5130   12.7040 C   0  0  0  0  0  0  0  0  0  0  0  0
   22.6030   13.7260   12.1450 C   0  0  0  0  0  0  0  0  0  0  0  0
   21.3570   15.1930    7.4720 C   0  0  0  0  0  0  0  0  0  0  0  0
   20.2360   15.7240    7.0300 N   0  0  0  0  0  0  0  0  0  0  0  0
   18.8815   19.2845    8.7111 H   0  0  0  0  0  0  0  0  0  0  0  0
   19.7359   18.9616    7.1643 H   0  0  0  0  0  0  0  0  0  0  0  0
   17.9682   19.2812    7.1643 H   0  0  0  0  0  0  0  0  0  0  0  0
   17.8985   17.1773    8.7703 H   0  0  0  0  0  0  0  0  0  0  0  0
   18.0240   16.9752    6.9695 H   0  0  0  0  0  0  0  0  0  0  0  0
   20.5395   17.0058   10.0936 H   0  0  0  0  0  0  0  0  0  0  0  0
   20.7146   13.0698    9.3213 H   0  0  0  0  0  0  0  0  0  0  0  0
   19.6983   11.3974   10.8642 H   0  0  0  0  0  0  0  0  0  0  0  0
   20.5149   11.2023   13.2027 H   0  0  0  0  0  0  0  0  0  0  0  0
   21.9865   11.9031   14.9557 H   0  0  0  0  0  0  0  0  0  0  0  0
   23.8874   16.8225   14.4452 H   0  0  0  0  0  0  0  0  0  0  0  0
   26.7988   17.1528   14.6833 H   0  0  0  0  0  0  0  0  0  0  0  0
   24.9767   17.8855   17.0222 H   0  0  0  0  0  0  0  0  0  0  0  0
   26.2576   16.6258   17.0136 H   0  0  0  0  0  0  0  0  0  0  0  0
   27.0211   18.7737   18.0375 H   0  0  0  0  0  0  0  0  0  0  0  0
   27.9635   18.3161   16.5618 H   0  0  0  0  0  0  0  0  0  0  0  0
   26.0905   20.8008   14.5122 H   0  0  0  0  0  0  0  0  0  0  0  0
   24.1414   15.2772   12.0928 H   0  0  0  0  0  0  0  0  0  0  0  0
   21.9867   14.4925    6.9038 H   0  0  0  0  0  0  0  0  0  0  0  0
  1  2  1  0
  2  3  1  0
  3  4  2  0
  4  5  1  0
  5  6  1  0
  6  7  2  0
  6  8  2  0
  6  9  1  0
  9 10  2  0
 10 11  1  0
 11 12  2  0
 12 13  1  0
 13 14  2  0
 14 15  1  0
 15 16  2  0
 16 17  1  0
 17 18  2  0
 17 19  1  0
 19 20  1  0
 20 21  1  0
 21 22  1  0
 22 23  1  0
 23 24  2  0
 23 25  1  0
 25 26  1  0
 26 27  2  0
 16 28  1  0
 28 29  2  0
  5 30  1  0
 30 31  2  0
 31  3  1  0
 29  9  1  0
 29 13  1  0
 26 20  1  0
  1 32  1  0
  1 33  1  0
  1 34  1  0
  2 35  1  0
  2 36  1  0
  4 37  1  0
 10 38  1  0
 11 39  1  0
 12 40  1  0
 14 41  1  0
 19 42  1  0
 20 43  1  6
 21 44  1  0
 21 45  1  0
 22 46  1  0
 22 47  1  0
 25 48  1  0
 28 49  1  0
 30 50  1  0
M  END
>  <meeko>  (1448) 
{"is_sidechain": [true], "free_energy": -10.03, "intermolecular_energy": 0.0, "internal_energy": -10.03, "cluster_size": 9, "cluster_id": 1, "rank_in_cluster": 1}

>  <_RMSD_MCS_to_ref>  (1448) 
0.8576395901931457

$$$$
ligand
     RDKit          3D

 50 53  0  0  0  0  0  0  0  0999 V2000
   18.7970   18.8170    7.7190 C   0  0  0  0  0  0  0  0  0  0  0  0
   18.5280   17.3290    7.8810 C   0  0  0  0  0  0  0  0  0  0  0  0
   19.7820   16.5480    8.0590 C   0  0  0  0  0  0  0  0  0  0  0  0
   20.3750   16.1100    9.2270 C   0  0  0  0  0  0  0  0  0  0  0  0
   21.5030   15.4650    8.8090 N   0  0  0  0  0  0  0  0  0  0  0  0
   22.5940   14.6390    9.7820 S   0  0  0  0  0  6  0  0  0  0  0  0
   22.1080   13.2710    9.8350 O   0  0  0  0  0  0  0  0  0  0  0  0
   22.7420   15.4470   10.9790 O   0  0  0  0  0  0  0  0  0  0  0  0
   24.1400   14.6480    8.9090 C   0  0  0  0  0  0  0  0  0  0  0  0
   24.1230   13.8950    7.7770 N   0  0  0  0  0  0  0  0  0  0  0  0
   25.2630   13.8580    7.0660 C   0  0  0  0  0  0  0  0  0  0  0  0
   26.4120   14.5370    7.4340 C   0  0  0  0  0  0  0  0  0  0  0  0
   26.4090   15.3080    8.6040 C   0  0  0  0  0  0  0  0  0  0  0  0
   27.5610   16.0130    8.9900 C   0  0  0  0  0  0  0  0  0  0  0  0
   27.5720   16.7860   10.1520 C   0  0  0  0  0  0  0  0  0  0  0  0
   26.4340   16.8630   10.9540 C   0  0  0  0  0  0  0  0  0  0  0  0
   26.4870   17.7060   12.1800 C   0  0  0  0  0  0  0  0  0  0  0  0
   27.4520   18.4320   12.3890 O   0  0  0  0  0  0  0  0  0  0  0  0
   25.4290   17.5920   13.0550 N   0  0  0  0  0  0  0  0  0  0  0  0
   25.4500   18.2720   14.3440 C   0  0  1  0  0  0  0  0  0  0  0  0
   26.5160   17.7040   15.2730 C   0  0  0  0  0  0  0  0  0  0  0  0
   26.5100   18.4750   16.5840 C   0  0  0  0  0  0  0  0  0  0  0  0
   26.6990   19.9560   16.3510 C   0  0  0  0  0  0  0  0  0  0  0  0
   27.2820   20.6790   17.1530 O   0  0  0  0  0  0  0  0  0  0  0  0
   26.1500   20.4730   15.2050 N   0  0  0  0  0  0  0  0  0  0  0  0
   25.7280   19.7600   14.1110 C   0  0  0  0  0  0  0  0  0  0  0  0
   25.5660   20.3050   13.0190 O   0  0  0  0  0  0  0  0  0  0  0  0
   25.2720   16.1780   10.5720 C   0  0  0  0  0  0  0  0  0  0  0  0
   25.2410   15.3840    9.3930 C   0  0  0  0  0  0  0  0  0  0  0  0
   21.5500   15.4870    7.4510 C   0  0  0  0  0  0  0  0  0  0  0  0
   20.5250   16.1520    6.9620 N   0  0  0  0  0  0  0  0  0  0  0  0
   18.8815   19.2845    8.7111 H   0  0  0  0  0  0  0  0  0  0  0  0
   19.7359   18.9616    7.1643 H   0  0  0  0  0  0  0  0  0  0  0  0
   17.9682   19.2812    7.1643 H   0  0  0  0  0  0  0  0  0  0  0  0
   17.8885   17.1785    8.7633 H   0  0  0  0  0  0  0  0  0  0  0  0
   18.0352   16.9728    6.9643 H   0  0  0  0  0  0  0  0  0  0  0  0
   20.0194   16.2492   10.2586 H   0  0  0  0  0  0  0  0  0  0  0  0
   25.2841   13.2575    6.1446 H   0  0  0  0  0  0  0  0  0  0  0  0
   27.3183   14.4719    6.8140 H   0  0  0  0  0  0  0  0  0  0  0  0
   28.4665   15.9551    8.3682 H   0  0  0  0  0  0  0  0  0  0  0  0
   28.4812   17.3362   10.4360 H   0  0  0  0  0  0  0  0  0  0  0  0
   24.6133   17.0193   12.7951 H   0  0  0  0  0  0  0  0  0  0  0  0
   24.4723   18.1228   14.8255 H   0  0  0  0  0  0  0  0  0  0  0  0
   26.3025   16.6432   15.4707 H   0  0  0  0  0  0  0  0  0  0  0  0
   27.5036   17.7972   14.7977 H   0  0  0  0  0  0  0  0  0  0  0  0
   25.5476   18.3120   17.0911 H   0  0  0  0  0  0  0  0  0  0  0  0
   27.3430   18.1121   17.2040 H   0  0  0  0  0  0  0  0  0  0  0  0
   26.0442   21.4966   15.1614 H   0  0  0  0  0  0  0  0  0  0  0  0
   24.3688   16.2562   11.1951 H   0  0  0  0  0  0  0  0  0  0  0  0
   22.3363   15.0142    6.8442 H   0  0  0  0  0  0  0  0  0  0  0  0
  1  2  1  0
  2  3  1  0
  3  4  2  0
  4  5  1  0
  5  6  1  0
  6  7  2  0
  6  8  2  0
  6  9  1  0
  9 10  2  0
 10 11  1  0
 11 12  2  0
 12 13  1  0
 13 14  2  0
 14 15  1  0
 15 16  2  0
 16 17  1  0
 17 18  2  0
 17 19  1  0
 19 20  1  0
 20 21  1  0
 21 22  1  0
 22 23  1  0
 23 24  2  0
 23 25  1  0
 25 26  1  0
 26 27  2  0
 16 28  1  0
 28 29  2  0
  5 30  1  0
 30 31  2  0
 31  3  1  0
 29  9  1  0
 29 13  1  0
 26 20  1  0
  1 32  1  0
  1 33  1  0
  1 34  1  0
  2 35  1  0
  2 36  1  0
  4 37  1  0
 11 38  1  0
 12 39  1  0
 14 40  1  0
 15 41  1  0
 19 42  1  0
 20 43  1  1
 21 44  1  0
 21 45  1  0
 22 46  1  0
 22 47  1  0
 25 48  1  0
 28 49  1  0
 30 50  1  0
M  END
>  <meeko>  (1449) 
{"is_sidechain": [true], "free_energy": -10.03, "intermolecular_energy": 0.0, "internal_energy": -10.03, "cluster_size": 13, "cluster_id": 1, "rank_in_cluster": 1}

>  <_RMSD_MCS_to_ref>  (1449) 
0.6691586757513743

$$$$
ligand
     RDKit          3D

 49 52  0  0  0  0  0  0  0  0999 V2000
   18.9090   19.1540    7.5370 C   0  0  0  0  0  0  0  0  0  0  0  0
   18.7730   17.6460    7.6780 C   0  0  0  0  0  0  0  0  0  0  0  0
   19.9020   16.9180    7.0370 C   0  0  0  0  0  0  0  0  0  0  0  0
   21.2530   17.2050    7.0710 C   0  0  0  0  0  0  0  0  0  0  0  0
   21.8210   16.2350    6.2990 N   0  0  0  0  0  0  0  0  0  0  0  0
   23.4670   15.9310    6.1540 S   0  0  0  0  0  6  0  0  0  0  0  0
   24.1060   17.2290    6.0670 O   0  0  0  0  0  0  0  0  0  0  0  0
   23.5950   14.9300    5.1130 O   0  0  0  0  0  0  0  0  0  0  0  0
   23.8920   15.1990    7.6910 C   0  0  0  0  0  0  0  0  0  0  0  0
   24.0420   13.8300    7.7720 C   0  0  0  0  0  0  0  0  0  0  0  0
   24.3740   13.1930    8.9190 N   0  0  0  0  0  0  0  0  0  0  0  0
   24.5460   13.9320   10.0370 C   0  0  0  0  0  0  0  0  0  0  0  0
   24.8820   13.3530   11.2540 C   0  0  0  0  0  0  0  0  0  0  0  0
   25.0710   14.0130   12.4280 N   0  0  0  0  0  0  0  0  0  0  0  0
   24.9090   15.3600   12.3850 C   0  0  0  0  0  0  0  0  0  0  0  0
   25.1180   16.0970   13.6720 C   0  0  0  0  0  0  0  0  0  0  0  0
   25.1090   15.5180   14.7510 O   0  0  0  0  0  0  0  0  0  0  0  0
   25.3030   17.4530   13.5330 N   0  0  0  0  0  0  0  0  0  0  0  0
   25.3640   18.3550   14.6690 C   0  0  1  0  0  0  0  0  0  0  0  0
   26.2750   17.8250   15.7710 C   0  0  0  0  0  0  0  0  0  0  0  0
   26.3120   18.8170   16.9220 C   0  0  0  0  0  0  0  0  0  0  0  0
   26.7380   20.1870   16.4520 C   0  0  0  0  0  0  0  0  0  0  0  0
   27.3900   20.9520   17.1580 O   0  0  0  0  0  0  0  0  0  0  0  0
   26.3320   20.5610   15.1960 N   0  0  0  0  0  0  0  0  0  0  0  0
   25.8800   19.7230   14.2060 C   0  0  0  0  0  0  0  0  0  0  0  0
   25.8800   20.0790   13.0290 O   0  0  0  0  0  0  0  0  0  0  0  0
   24.5740   16.0570   11.2320 C   0  0  0  0  0  0  0  0  0  0  0  0
   24.3920   15.3340   10.0450 C   0  0  0  0  0  0  0  0  0  0  0  0
   24.0540   15.9690    8.8400 C   0  0  0  0  0  0  0  0  0  0  0  0
   20.8540   15.3850    5.8660 C   0  0  0  0  0  0  0  0  0  0  0  0
   19.6730   15.7770    6.2940 N   0  0  0  0  0  0  0  0  0  0  0  0
   18.9504   19.6134    8.5356 H   0  0  0  0  0  0  0  0  0  0  0  0
   19.8320   19.3891    6.9867 H   0  0  0  0  0  0  0  0  0  0  0  0
   18.0430   19.5504    6.9867 H   0  0  0  0  0  0  0  0  0  0  0  0
   18.7486   17.3909    8.7477 H   0  0  0  0  0  0  0  0  0  0  0  0
   17.8444   17.3417    7.1730 H   0  0  0  0  0  0  0  0  0  0  0  0
   21.7557   18.0281    7.6000 H   0  0  0  0  0  0  0  0  0  0  0  0
   23.8848   13.2295    6.8639 H   0  0  0  0  0  0  0  0  0  0  0  0
   25.0067   12.2602   11.2697 H   0  0  0  0  0  0  0  0  0  0  0  0
   25.4022   17.8440   12.5853 H   0  0  0  0  0  0  0  0  0  0  0  0
   24.3479   18.4426   15.0811 H   0  0  0  0  0  0  0  0  0  0  0  0
   25.8901   16.8597   16.1317 H   0  0  0  0  0  0  0  0  0  0  0  0
   27.2911   17.6899   15.3719 H   0  0  0  0  0  0  0  0  0  0  0  0
   25.3085   18.8869   17.3672 H   0  0  0  0  0  0  0  0  0  0  0  0
   27.0428   18.4615   17.6633 H   0  0  0  0  0  0  0  0  0  0  0  0
   26.3697   21.5661   14.9743 H   0  0  0  0  0  0  0  0  0  0  0  0
   24.4543   17.1503   11.2495 H   0  0  0  0  0  0  0  0  0  0  0  0
   23.9189   17.0601    8.8036 H   0  0  0  0  0  0  0  0  0  0  0  0
   21.0329   14.4947    5.2452 H   0  0  0  0  0  0  0  0  0  0  0  0
  1  2  1  0
  2  3  1  0
  3  4  2  0
  4  5  1  0
  5  6  1  0
  6  7  2  0
  6  8  2  0
  6  9  1  0
  9 10  2  0
 10 11  1  0
 11 12  2  0
 12 13  1  0
 13 14  2  0
 14 15  1  0
 15 16  1  0
 16 17  2  0
 16 18  1  0
 18 19  1  0
 19 20  1  0
 20 21  1  0
 21 22  1  0
 22 23  2  0
 22 24  1  0
 24 25  1  0
 25 26  2  0
 15 27  2  0
 27 28  1  0
 28 29  2  0
  5 30  1  0
 30 31  2  0
 31  3  1  0
 29  9  1  0
 28 12  1  0
 25 19  1  0
  1 32  1  0
  1 33  1  0
  1 34  1  0
  2 35  1  0
  2 36  1  0
  4 37  1  0
 10 38  1  0
 13 39  1  0
 18 40  1  0
 19 41  1  1
 20 42  1  0
 20 43  1  0
 21 44  1  0
 21 45  1  0
 24 46  1  0
 27 47  1  0
 29 48  1  0
 30 49  1  0
M  END
>  <meeko>  (1450) 
{"is_sidechain": [true], "free_energy": -10.03, "intermolecular_energy": 0.0, "internal_energy": -10.03, "cluster_size": 19, "cluster_id": 1, "rank_in_cluster": 1}

>  <_RMSD_MCS_to_ref>  (1450) 
0.6136693825759199

$$$$
ligand
     RDKit          3D

 46 49  0  0  0  0  0  0  0  0999 V2000
   18.9090   19.1540    7.5370 C   0  0  0  0  0  0  0  0  0  0  0  0
   18.7730   17.6460    7.6780 C   0  0  0  0  0  0  0  0  0  0  0  0
   20.0700   16.9440    7.4820 C   0  0  0  0  0  0  0  0  0  0  0  0
   21.0170   16.5900    8.4220 C   0  0  0  0  0  0  0  0  0  0  0  0
   21.9920   15.9640    7.6980 N   0  0  0  0  0  0  0  0  0  0  0  0
   23.4710   15.4260    8.2830 S   0  0  0  0  0  6  0  0  0  0  0  0
   23.9500   14.4740    7.2980 O   0  0  0  0  0  0  0  0  0  0  0  0
   24.2140   16.6230    8.6320 O   0  0  0  0  0  0  0  0  0  0  0  0
   23.1090   14.5490    9.7660 C   0  0  0  0  0  0  0  0  0  0  0  0
   22.4070   13.4020    9.6160 N   0  0  0  0  0  0  0  0  0  0  0  0
   22.1130   12.7110   10.7260 C   0  0  0  0  0  0  0  0  0  0  0  0
   22.4400   13.0280   11.9810 N   0  0  0  0  0  0  0  0  0  0  0  0
   23.1350   14.1750   12.0730 C   0  0  0  0  0  0  0  0  0  0  0  0
   23.6490   14.7600   13.5860 S   0  0  0  0  0  0  0  0  0  0  0  0
   24.3930   16.1330   12.8820 C   0  0  0  0  0  0  0  0  0  0  0  0
   25.0800   17.1430   13.6750 C   0  0  0  0  0  0  0  0  0  0  0  0
   26.2840   17.3610   13.5680 O   0  0  0  0  0  0  0  0  0  0  0  0
   24.3070   17.8450   14.5710 N   0  0  0  0  0  0  0  0  0  0  0  0
   24.8850   18.7730   15.5290 C   0  0  1  0  0  0  0  0  0  0  0  0
   25.9310   18.1090   16.4170 C   0  0  0  0  0  0  0  0  0  0  0  0
   26.5190   19.1410   17.3670 C   0  0  0  0  0  0  0  0  0  0  0  0
   27.0870   20.3200   16.6130 C   0  0  0  0  0  0  0  0  0  0  0  0
   28.0760   20.9360   17.0000 O   0  0  0  0  0  0  0  0  0  0  0  0
   26.4230   20.6990   15.4740 N   0  0  0  0  0  0  0  0  0  0  0  0
   25.5430   19.9230   14.7610 C   0  0  0  0  0  0  0  0  0  0  0  0
   25.2990   20.1590   13.5770 O   0  0  0  0  0  0  0  0  0  0  0  0
   24.2420   16.1280   11.5060 C   0  0  0  0  0  0  0  0  0  0  0  0
   23.5120   14.9930   11.0230 C   0  0  0  0  0  0  0  0  0  0  0  0
   21.6510   15.9860    6.3830 C   0  0  0  0  0  0  0  0  0  0  0  0
   20.4790   16.5640    6.2180 N   0  0  0  0  0  0  0  0  0  0  0  0
   18.9504   19.6134    8.5356 H   0  0  0  0  0  0  0  0  0  0  0  0
   19.8320   19.3891    6.9867 H   0  0  0  0  0  0  0  0  0  0  0  0
   18.0430   19.5504    6.9867 H   0  0  0  0  0  0  0  0  0  0  0  0
   18.3950   17.4171    8.6853 H   0  0  0  0  0  0  0  0  0  0  0  0
   18.0784   17.2954    6.9004 H   0  0  0  0  0  0  0  0  0  0  0  0
   20.9922   16.7707    9.5068 H   0  0  0  0  0  0  0  0  0  0  0  0
   21.5402   11.7821   10.5881 H   0  0  0  0  0  0  0  0  0  0  0  0
   23.2861   17.7086   14.5627 H   0  0  0  0  0  0  0  0  0  0  0  0
   24.0762   19.1368   16.1798 H   0  0  0  0  0  0  0  0  0  0  0  0
   25.4600   17.3023   16.9979 H   0  0  0  0  0  0  0  0  0  0  0  0
   26.7317   17.6901   15.7898 H   0  0  0  0  0  0  0  0  0  0  0  0
   25.7284   19.4960   18.0444 H   0  0  0  0  0  0  0  0  0  0  0  0
   27.3333   18.6666   17.9343 H   0  0  0  0  0  0  0  0  0  0  0  0
   26.6005   21.6507   15.1223 H   0  0  0  0  0  0  0  0  0  0  0  0
   24.6417   16.9152   10.8498 H   0  0  0  0  0  0  0  0  0  0  0  0
   22.2681   15.5777    5.5691 H   0  0  0  0  0  0  0  0  0  0  0  0
  1  2  1  0
  2  3  1  0
  3  4  2  0
  4  5  1  0
  5  6  1  0
  6  7  2  0
  6  8  2  0
  6  9  1  0
  9 10  2  0
 10 11  1  0
 11 12  2  0
 12 13  1  0
 13 14  1  0
 14 15  1  0
 15 16  1  0
 16 17  2  0
 16 18  1  0
 18 19  1  0
 19 20  1  0
 20 21  1  0
 21 22  1  0
 22 23  2  0
 22 24  1  0
 24 25  1  0
 25 26  2  0
 15 27  2  0
 27 28  1  0
  5 29  1  0
 29 30  2  0
 30  3  1  0
 28  9  1  0
 28 13  2  0
 25 19  1  0
  1 31  1  0
  1 32  1  0
  1 33  1  0
  2 34  1  0
  2 35  1  0
  4 36  1  0
 11 37  1  0
 18 38  1  0
 19 39  1  1
 20 40  1  0
 20 41  1  0
 21 42  1  0
 21 43  1  0
 24 44  1  0
 27 45  1  0
 29 46  1  0
M  END
>  <meeko>  (1451) 
{"is_sidechain": [true], "free_energy": -10.03, "intermolecular_energy": 0.0, "internal_energy": -10.03, "cluster_size": 20, "cluster_id": 1, "rank_in_cluster": 1}

>  <_RMSD_MCS_to_ref>  (1451) 
0.7854644061530308

$$$$
ligand
     RDKit          3D

 42 44  0  0  0  0  0  0  0  0999 V2000
   18.9090   19.1540    7.5370 C   0  0  0  0  0  0  0  0  0  0  0  0
   18.7730   17.6460    7.6780 C   0  0  0  0  0  0  0  0  0  0  0  0
   20.0740   16.9450    7.5020 C   0  0  0  0  0  0  0  0  0  0  0  0
   21.1120   16.8020    8.4010 C   0  0  0  0  0  0  0  0  0  0  0  0
   22.0560   16.0940    7.7140 N   0  0  0  0  0  0  0  0  0  0  0  0
   23.4420   15.4130    8.3670 S   0  0  0  0  0  6  0  0  0  0  0  0
   23.3980   14.0030    8.0390 O   0  0  0  0  0  0  0  0  0  0  0  0
   24.5410   16.2840    8.0090 O   0  0  0  0  0  0  0  0  0  0  0  0
   23.3410   15.4990   10.0920 C   0  0  0  0  0  0  0  0  0  0  0  0
   22.2510   15.0850   10.8260 C   0  0  0  0  0  0  0  0  0  0  0  0
   22.4850   15.3330   12.5020 S   0  0  0  0  0  0  0  0  0  0  0  0
   24.0510   15.9880   12.2650 C   0  0  0  0  0  0  0  0  0  0  0  0
   24.8860   16.4460   13.3690 C   0  0  0  0  0  0  0  0  0  0  0  0
   25.3770   15.6760   14.1910 O   0  0  0  0  0  0  0  0  0  0  0  0
   25.1110   17.8010   13.4400 N   0  0  0  0  0  0  0  0  0  0  0  0
   26.0410   18.3840   14.3930 C   0  0  2  0  0  0  0  0  0  0  0  0
   25.7120   17.9960   15.8310 C   0  0  0  0  0  0  0  0  0  0  0  0
   26.6990   18.6650   16.7760 C   0  0  0  0  0  0  0  0  0  0  0  0
   26.7110   20.1640   16.5830 C   0  0  0  0  0  0  0  0  0  0  0  0
   26.9010   20.9460   17.5110 O   0  0  0  0  0  0  0  0  0  0  0  0
   26.5280   20.6210   15.3030 N   0  0  0  0  0  0  0  0  0  0  0  0
   25.9850   19.9090   14.2640 C   0  0  0  0  0  0  0  0  0  0  0  0
   25.4970   20.4770   13.2870 O   0  0  0  0  0  0  0  0  0  0  0  0
   24.3820   16.0140   10.9210 C   0  0  0  0  0  0  0  0  0  0  0  0
   21.5700   15.7820    6.4850 C   0  0  0  0  0  0  0  0  0  0  0  0
   20.3710   16.3000    6.3180 N   0  0  0  0  0  0  0  0  0  0  0  0
   18.9504   19.6134    8.5356 H   0  0  0  0  0  0  0  0  0  0  0  0
   19.8320   19.3891    6.9867 H   0  0  0  0  0  0  0  0  0  0  0  0
   18.0430   19.5504    6.9867 H   0  0  0  0  0  0  0  0  0  0  0  0
   18.3805   17.4179    8.6800 H   0  0  0  0  0  0  0  0  0  0  0  0
   18.0904   17.2935    6.8907 H   0  0  0  0  0  0  0  0  0  0  0  0
   21.1662   17.1737    9.4349 H   0  0  0  0  0  0  0  0  0  0  0  0
   21.3415   14.6484   10.3877 H   0  0  0  0  0  0  0  0  0  0  0  0
   24.6031   18.4239   12.7959 H   0  0  0  0  0  0  0  0  0  0  0  0
   27.0463   18.0005   14.1643 H   0  0  0  0  0  0  0  0  0  0  0  0
   24.6909   18.3245   16.0748 H   0  0  0  0  0  0  0  0  0  0  0  0
   25.7823   16.9038   15.9410 H   0  0  0  0  0  0  0  0  0  0  0  0
   26.4116   18.4392   17.8135 H   0  0  0  0  0  0  0  0  0  0  0  0
   27.7056   18.2780   16.5591 H   0  0  0  0  0  0  0  0  0  0  0  0
   26.8254   21.5868   15.1037 H   0  0  0  0  0  0  0  0  0  0  0  0
   25.3410   16.3899   10.5350 H   0  0  0  0  0  0  0  0  0  0  0  0
   22.1033   15.1807    5.7340 H   0  0  0  0  0  0  0  0  0  0  0  0
  1  2  1  0
  2  3  1  0
  3  4  2  0
  4  5  1  0
  5  6  1  0
  6  7  2  0
  6  8  2  0
  6  9  1  0
  9 10  2  0
 10 11  1  0
 11 12  1  0
 12 13  1  0
 13 14  2  0
 13 15  1  0
 15 16  1  0
 16 17  1  0
 17 18  1  0
 18 19  1  0
 19 20  2  0
 19 21  1  0
 21 22  1  0
 22 23  2  0
 12 24  2  0
  5 25  1  0
 25 26  2  0
 26  3  1  0
 24  9  1  0
 22 16  1  0
  1 27  1  0
  1 28  1  0
  1 29  1  0
  2 30  1  0
  2 31  1  0
  4 32  1  0
 10 33  1  0
 15 34  1  0
 16 35  1  6
 17 36  1  0
 17 37  1  0
 18 38  1  0
 18 39  1  0
 21 40  1  0
 24 41  1  0
 25 42  1  0
M  END
>  <meeko>  (1452) 
{"is_sidechain": [true], "free_energy": -10.03, "intermolecular_energy": 0.0, "internal_energy": -10.03, "cluster_size": 20, "cluster_id": 1, "rank_in_cluster": 1}

>  <_RMSD_MCS_to_ref>  (1452) 
0.7119190809198594

$$$$
ligand
     RDKit          3D

 42 44  0  0  0  0  0  0  0  0999 V2000
   18.9090   19.1540    7.5370 C   0  0  0  0  0  0  0  0  0  0  0  0
   18.7730   17.6460    7.6780 C   0  0  0  0  0  0  0  0  0  0  0  0
   20.0670   16.9430    7.4660 C   0  0  0  0  0  0  0  0  0  0  0  0
   21.1010   16.7370    8.3590 C   0  0  0  0  0  0  0  0  0  0  0  0
   22.0220   16.0250    7.6440 N   0  0  0  0  0  0  0  0  0  0  0  0
   23.5760   15.6550    8.1550 S   0  0  0  0  0  6  0  0  0  0  0  0
   23.7570   14.2440    7.8730 O   0  0  0  0  0  0  0  0  0  0  0  0
   24.4490   16.6780    7.6150 O   0  0  0  0  0  0  0  0  0  0  0  0
   23.6750   15.7870    9.9200 C   0  0  0  0  0  0  0  0  0  0  0  0
   24.6600   16.2850   10.7540 C   0  0  0  0  0  0  0  0  0  0  0  0
   24.3210   16.1980   12.1500 C   0  0  0  0  0  0  0  0  0  0  0  0
   25.1060   16.6230   13.3120 C   0  0  0  0  0  0  0  0  0  0  0  0
   25.5830   15.8200   14.1080 O   0  0  0  0  0  0  0  0  0  0  0  0
   25.2870   17.9790   13.4420 N   0  0  0  0  0  0  0  0  0  0  0  0
   26.1650   18.5300   14.4640 C   0  0  2  0  0  0  0  0  0  0  0  0
   25.7880   18.0610   15.8650 C   0  0  0  0  0  0  0  0  0  0  0  0
   26.7150   18.7090   16.8820 C   0  0  0  0  0  0  0  0  0  0  0  0
   26.6920   20.2150   16.7670 C   0  0  0  0  0  0  0  0  0  0  0  0
   26.8220   20.9520   17.7390 O   0  0  0  0  0  0  0  0  0  0  0  0
   26.5460   20.7320   15.5040 N   0  0  0  0  0  0  0  0  0  0  0  0
   26.0710   20.0570   14.4070 C   0  0  0  0  0  0  0  0  0  0  0  0
   25.6100   20.6560   13.4360 O   0  0  0  0  0  0  0  0  0  0  0  0
   23.0630   15.6360   12.2940 C   0  0  0  0  0  0  0  0  0  0  0  0
   22.3320   15.2220   10.8080 S   0  0  0  0  0  0  0  0  0  0  0  0
   21.5750   15.8650    6.3730 C   0  0  0  0  0  0  0  0  0  0  0  0
   20.3800   16.4000    6.2350 N   0  0  0  0  0  0  0  0  0  0  0  0
   18.9504   19.6134    8.5356 H   0  0  0  0  0  0  0  0  0  0  0  0
   19.8320   19.3891    6.9867 H   0  0  0  0  0  0  0  0  0  0  0  0
   18.0430   19.5504    6.9867 H   0  0  0  0  0  0  0  0  0  0  0  0
   18.4066   17.4163    8.6894 H   0  0  0  0  0  0  0  0  0  0  0  0
   18.0689   17.2969    6.9084 H   0  0  0  0  0  0  0  0  0  0  0  0
   21.1674   17.0698    9.4053 H   0  0  0  0  0  0  0  0  0  0  0  0
   25.6078   16.7055   10.3868 H   0  0  0  0  0  0  0  0  0  0  0  0
   24.7917   18.6180   12.8038 H   0  0  0  0  0  0  0  0  0  0  0  0
   27.1884   18.1806   14.2625 H   0  0  0  0  0  0  0  0  0  0  0  0
   24.7484   18.3485   16.0808 H   0  0  0  0  0  0  0  0  0  0  0  0
   25.8852   16.9669   15.9245 H   0  0  0  0  0  0  0  0  0  0  0  0
   26.3927   18.4223   17.8939 H   0  0  0  0  0  0  0  0  0  0  0  0
   27.7404   18.3623   16.6863 H   0  0  0  0  0  0  0  0  0  0  0  0
   26.8175   21.7160   15.3667 H   0  0  0  0  0  0  0  0  0  0  0  0
   22.5824   15.4726   13.2699 H   0  0  0  0  0  0  0  0  0  0  0  0
   22.1326   15.3594    5.5708 H   0  0  0  0  0  0  0  0  0  0  0  0
  1  2  1  0
  2  3  1  0
  3  4  2  0
  4  5  1  0
  5  6  1  0
  6  7  2  0
  6  8  2  0
  6  9  1  0
  9 10  2  0
 10 11  1  0
 11 12  1  0
 12 13  2  0
 12 14  1  0
 14 15  1  0
 15 16  1  0
 16 17  1  0
 17 18  1  0
 18 19  2  0
 18 20  1  0
 20 21  1  0
 21 22  2  0
 11 23  2  0
 23 24  1  0
  5 25  1  0
 25 26  2  0
 26  3  1  0
 24  9  1  0
 21 15  1  0
  1 27  1  0
  1 28  1  0
  1 29  1  0
  2 30  1  0
  2 31  1  0
  4 32  1  0
 10 33  1  0
 14 34  1  0
 15 35  1  6
 16 36  1  0
 16 37  1  0
 17 38  1  0
 17 39  1  0
 20 40  1  0
 23 41  1  0
 25 42  1  0
M  END
>  <meeko>  (1453) 
{"is_sidechain": [true], "free_energy": -10.03, "intermolecular_energy": 0.0, "internal_energy": -10.03, "cluster_size": 20, "cluster_id": 1, "rank_in_cluster": 1}

>  <_RMSD_MCS_to_ref>  (1453) 
0.8349522940463923

$$$$
ligand
     RDKit          3D

 46 49  0  0  0  0  0  0  0  0999 V2000
   18.9090   19.1540    7.5370 C   0  0  0  0  0  0  0  0  0  0  0  0
   18.7730   17.6460    7.6780 C   0  0  0  0  0  0  0  0  0  0  0  0
   20.0710   16.9430    7.4860 C   0  0  0  0  0  0  0  0  0  0  0  0
   20.6760   16.0010    8.2950 C   0  0  0  0  0  0  0  0  0  0  0  0
   21.8270   15.6820    7.6340 N   0  0  0  0  0  0  0  0  0  0  0  0
   23.0830   14.7440    8.2360 S   0  0  0  0  0  6  0  0  0  0  0  0
   24.2490   15.0950    7.4480 O   0  0  0  0  0  0  0  0  0  0  0  0
   22.5740   13.3880    8.3090 O   0  0  0  0  0  0  0  0  0  0  0  0
   23.3060   15.3510    9.8870 C   0  0  0  0  0  0  0  0  0  0  0  0
   22.3940   14.9770   10.8970 C   0  0  0  0  0  0  0  0  0  0  0  0
   22.5520   15.4460   12.2060 C   0  0  0  0  0  0  0  0  0  0  0  0
   23.6150   16.2920   12.4710 C   0  0  0  0  0  0  0  0  0  0  0  0
   24.4970   16.6600   11.4550 C   0  0  0  0  0  0  0  0  0  0  0  0
   24.3730   16.2130   10.1540 C   0  0  0  0  0  0  0  0  0  0  0  0
   25.5130   17.5470   12.0310 C   0  0  0  0  0  0  0  0  0  0  0  0
   26.4760   17.9680   11.4230 O   0  0  0  0  0  0  0  0  0  0  0  0
   25.1580   17.7580   13.3550 N   0  0  0  0  0  0  0  0  0  0  0  0
   26.0260   18.3870   14.3440 C   0  0  2  0  0  0  0  0  0  0  0  0
   25.6740   18.0320   15.7890 C   0  0  0  0  0  0  0  0  0  0  0  0
   26.6740   18.6890   16.7270 C   0  0  0  0  0  0  0  0  0  0  0  0
   26.7170   20.1860   16.5250 C   0  0  0  0  0  0  0  0  0  0  0  0
   27.1010   20.9540   17.4020 O   0  0  0  0  0  0  0  0  0  0  0  0
   26.3820   20.6480   15.2770 N   0  0  0  0  0  0  0  0  0  0  0  0
   26.0640   19.9130   14.1590 C   0  0  0  0  0  0  0  0  0  0  0  0
   25.9240   20.4660   13.0690 O   0  0  0  0  0  0  0  0  0  0  0  0
   24.0360   16.9210   13.7580 C   0  0  0  0  0  0  0  0  0  0  0  0
   21.9190   16.4390    6.5100 C   0  0  0  0  0  0  0  0  0  0  0  0
   20.8600   17.2090    6.3840 N   0  0  0  0  0  0  0  0  0  0  0  0
   18.9504   19.6134    8.5356 H   0  0  0  0  0  0  0  0  0  0  0  0
   19.8320   19.3891    6.9867 H   0  0  0  0  0  0  0  0  0  0  0  0
   18.0430   19.5504    6.9867 H   0  0  0  0  0  0  0  0  0  0  0  0
   18.3920   17.4174    8.6843 H   0  0  0  0  0  0  0  0  0  0  0  0
   18.0810   17.2954    6.8981 H   0  0  0  0  0  0  0  0  0  0  0  0
   20.3133   15.5997    9.2528 H   0  0  0  0  0  0  0  0  0  0  0  0
   21.5525   14.3117   10.6534 H   0  0  0  0  0  0  0  0  0  0  0  0
   21.8517   15.1509   13.0013 H   0  0  0  0  0  0  0  0  0  0  0  0
   25.0785   16.5200    9.3678 H   0  0  0  0  0  0  0  0  0  0  0  0
   27.0292   17.9748   14.1603 H   0  0  0  0  0  0  0  0  0  0  0  0
   24.6613   18.3941   16.0198 H   0  0  0  0  0  0  0  0  0  0  0  0
   25.7099   16.9403   15.9189 H   0  0  0  0  0  0  0  0  0  0  0  0
   26.3833   18.4762   17.7663 H   0  0  0  0  0  0  0  0  0  0  0  0
   27.6723   18.2812   16.5100 H   0  0  0  0  0  0  0  0  0  0  0  0
   26.3669   21.6716   15.1636 H   0  0  0  0  0  0  0  0  0  0  0  0
   24.3510   16.1598   14.4869 H   0  0  0  0  0  0  0  0  0  0  0  0
   23.2297   17.4817   14.2535 H   0  0  0  0  0  0  0  0  0  0  0  0
   22.7617   16.4119    5.8035 H   0  0  0  0  0  0  0  0  0  0  0  0
  1  2  1  0
  2  3  1  0
  3  4  2  0
  4  5  1  0
  5  6  1  0
  6  7  2  0
  6  8  2  0
  6  9  1  0
  9 10  2  0
 10 11  1  0
 11 12  2  0
 12 13  1  0
 13 14  2  0
 13 15  1  0
 15 16  2  0
 15 17  1  0
 17 18  1  0
 18 19  1  0
 19 20  1  0
 20 21  1  0
 21 22  2  0
 21 23  1  0
 23 24  1  0
 24 25  2  0
 17 26  1  0
  5 27  1  0
 27 28  2  0
 28  3  1  0
 14  9  1  0
 24 18  1  0
 26 12  1  0
  1 29  1  0
  1 30  1  0
  1 31  1  0
  2 32  1  0
  2 33  1  0
  4 34  1  0
 10 35  1  0
 11 36  1  0
 14 37  1  0
 18 38  1  6
 19 39  1  0
 19 40  1  0
 20 41  1  0
 20 42  1  0
 23 43  1  0
 26 44  1  0
 26 45  1  0
 27 46  1  0
M  END
>  <meeko>  (1454) 
{"is_sidechain": [true], "free_energy": -10.03, "intermolecular_energy": 0.0, "internal_energy": -10.03, "cluster_size": 19, "cluster_id": 1, "rank_in_cluster": 1}

>  <_RMSD_MCS_to_ref>  (1454) 
1.9707674759962035

$$$$
ligand
     RDKit          3D

 45 47  0  0  0  0  0  0  0  0999 V2000
   18.9090   19.1540    7.5370 C   0  0  0  0  0  0  0  0  0  0  0  0
   18.7730   17.6460    7.6780 C   0  0  0  0  0  0  0  0  0  0  0  0
   20.0570   16.9400    7.4170 C   0  0  0  0  0  0  0  0  0  0  0  0
   20.8110   16.1620    8.2720 C   0  0  0  0  0  0  0  0  0  0  0  0
   21.8630   15.7460    7.5050 N   0  0  0  0  0  0  0  0  0  0  0  0
   23.1580   14.8150    8.0530 S   0  0  0  0  0  6  0  0  0  0  0  0
   22.5840   13.4810    8.1600 O   0  0  0  0  0  0  0  0  0  0  0  0
   24.2340   15.0580    7.1090 O   0  0  0  0  0  0  0  0  0  0  0  0
   23.6140   15.3600    9.6190 C   0  0  0  0  0  0  0  0  0  0  0  0
   24.7470   16.0640    9.7900 C   0  0  0  0  0  0  0  0  0  0  0  0
   25.1260   16.5440   11.1020 C   0  0  0  0  0  0  0  0  0  0  0  0
   24.3470   16.2800   12.1620 C   0  0  0  0  0  0  0  0  0  0  0  0
   24.7490   16.7810   13.5180 C   0  0  0  0  0  0  0  0  0  0  0  0
   24.7810   16.0530   14.5030 O   0  0  0  0  0  0  0  0  0  0  0  0
   25.0420   18.1230   13.5560 N   0  0  0  0  0  0  0  0  0  0  0  0
   25.2890   18.7980   14.8240 C   0  0  1  0  0  0  0  0  0  0  0  0
   26.3370   18.0820   15.6680 C   0  0  0  0  0  0  0  0  0  0  0  0
   26.5800   18.8670   16.9480 C   0  0  0  0  0  0  0  0  0  0  0  0
   26.9760   20.2950   16.6500 C   0  0  0  0  0  0  0  0  0  0  0  0
   27.7540   20.9250   17.3590 O   0  0  0  0  0  0  0  0  0  0  0  0
   26.3930   20.8790   15.5530 N   0  0  0  0  0  0  0  0  0  0  0  0
   25.7740   20.2190   14.5210 C   0  0  0  0  0  0  0  0  0  0  0  0
   25.6100   20.7510   13.4240 O   0  0  0  0  0  0  0  0  0  0  0  0
   23.1810   15.5670   11.9930 N   0  0  0  0  0  0  0  0  0  0  0  0
   22.7350   15.1010   10.7780 C   0  0  0  0  0  0  0  0  0  0  0  0
   21.6730   14.5030   10.6780 O   0  0  0  0  0  0  0  0  0  0  0  0
   21.7580   16.2940    6.2690 C   0  0  0  0  0  0  0  0  0  0  0  0
   20.6580   17.0140    6.1760 N   0  0  0  0  0  0  0  0  0  0  0  0
   18.9504   19.6134    8.5356 H   0  0  0  0  0  0  0  0  0  0  0  0
   19.8320   19.3891    6.9867 H   0  0  0  0  0  0  0  0  0  0  0  0
   18.0430   19.5504    6.9867 H   0  0  0  0  0  0  0  0  0  0  0  0
   18.4426   17.4140    8.7012 H   0  0  0  0  0  0  0  0  0  0  0  0
   18.0402   17.3014    6.9335 H   0  0  0  0  0  0  0  0  0  0  0  0
   20.6111   15.9299    9.3285 H   0  0  0  0  0  0  0  0  0  0  0  0
   25.3918   16.2771    8.9247 H   0  0  0  0  0  0  0  0  0  0  0  0
   26.0516   17.1245   11.2298 H   0  0  0  0  0  0  0  0  0  0  0  0
   25.0876   18.6586   12.6774 H   0  0  0  0  0  0  0  0  0  0  0  0
   24.3524   18.8038   15.4008 H   0  0  0  0  0  0  0  0  0  0  0  0
   25.9785   17.0729   15.9192 H   0  0  0  0  0  0  0  0  0  0  0  0
   27.2761   18.0067   15.1002 H   0  0  0  0  0  0  0  0  0  0  0  0
   25.6579   18.8686   17.5478 H   0  0  0  0  0  0  0  0  0  0  0  0
   27.4020   18.3866   17.4990 H   0  0  0  0  0  0  0  0  0  0  0  0
   26.4228   21.9072   15.4994 H   0  0  0  0  0  0  0  0  0  0  0  0
   22.6084   15.3709   12.8264 H   0  0  0  0  0  0  0  0  0  0  0  0
   22.4883   16.1568    5.4580 H   0  0  0  0  0  0  0  0  0  0  0  0
  1  2  1  0
  2  3  1  0
  3  4  2  0
  4  5  1  0
  5  6  1  0
  6  7  2  0
  6  8  2  0
  6  9  1  0
  9 10  2  0
 10 11  1  0
 11 12  2  0
 12 13  1  0
 13 14  2  0
 13 15  1  0
 15 16  1  0
 16 17  1  0
 17 18  1  0
 18 19  1  0
 19 20  2  0
 19 21  1  0
 21 22  1  0
 22 23  2  0
 12 24  1  0
 24 25  1  0
 25 26  2  0
  5 27  1  0
 27 28  2  0
 28  3  1  0
 25  9  1  0
 22 16  1  0
  1 29  1  0
  1 30  1  0
  1 31  1  0
  2 32  1  0
  2 33  1  0
  4 34  1  0
 10 35  1  0
 11 36  1  0
 15 37  1  0
 16 38  1  1
 17 39  1  0
 17 40  1  0
 18 41  1  0
 18 42  1  0
 21 43  1  0
 24 44  1  0
 27 45  1  0
M  END
>  <meeko>  (1455) 
{"is_sidechain": [true], "free_energy": -10.03, "intermolecular_energy": 0.0, "internal_energy": -10.03, "cluster_size": 15, "cluster_id": 1, "rank_in_cluster": 1}

>  <_RMSD_MCS_to_ref>  (1455) 
0.6910962306365164

$$$$
ligand
     RDKit          3D

 45 48  0  0  0  0  0  0  0  0999 V2000
   18.8250   19.0170    7.5350 C   0  0  0  0  0  0  0  0  0  0  0  0
   18.5200   17.5420    7.7330 C   0  0  0  0  0  0  0  0  0  0  0  0
   19.7350   16.7590    8.0860 C   0  0  0  0  0  0  0  0  0  0  0  0
   20.4220   16.7140    9.2840 C   0  0  0  0  0  0  0  0  0  0  0  0
   21.4580   15.8580    9.0440 N   0  0  0  0  0  0  0  0  0  0  0  0
   22.5840   15.3240   10.1730 S   0  0  0  0  0  6  0  0  0  0  0  0
   23.0860   14.0640    9.6520 O   0  0  0  0  0  0  0  0  0  0  0  0
   23.4550   16.4630   10.3970 O   0  0  0  0  0  0  0  0  0  0  0  0
   21.6660   14.9960   11.6510 C   0  0  0  0  0  0  0  0  0  0  0  0
   20.4260   14.4950   11.4070 N   0  0  0  0  0  0  0  0  0  0  0  0
   19.6650   14.2930   12.4880 C   0  0  0  0  0  0  0  0  0  0  0  0
   20.0310   14.5510   13.7490 N   0  0  0  0  0  0  0  0  0  0  0  0
   21.2780   15.0450   13.9240 C   0  0  0  0  0  0  0  0  0  0  0  0
   22.1750   15.2830   12.9000 C   0  0  0  0  0  0  0  0  0  0  0  0
   23.4800   15.8030   13.2040 C   0  0  0  0  0  0  0  0  0  0  0  0
   23.7960   16.8080   14.0890 C   0  0  0  0  0  0  0  0  0  0  0  0
   25.1540   16.9220   13.9830 N   0  0  0  0  0  0  0  0  0  0  0  0
   26.0730   17.7150   14.7850 C   0  0  2  0  0  0  0  0  0  0  0  0
   25.5980   17.7950   16.2360 C   0  0  0  0  0  0  0  0  0  0  0  0
   26.5960   18.5920   17.0600 C   0  0  0  0  0  0  0  0  0  0  0  0
   26.8160   19.9650   16.4750 C   0  0  0  0  0  0  0  0  0  0  0  0
   27.1750   20.9210   17.1530 O   0  0  0  0  0  0  0  0  0  0  0  0
   26.6520   20.0810   15.1160 N   0  0  0  0  0  0  0  0  0  0  0  0
   26.2810   19.1060   14.2150 C   0  0  0  0  0  0  0  0  0  0  0  0
   26.1850   19.3840   13.0230 O   0  0  0  0  0  0  0  0  0  0  0  0
   25.6430   16.0550   13.0770 N   0  0  0  0  0  0  0  0  0  0  0  0
   24.6180   15.3790   12.5760 N   0  0  0  0  0  0  0  0  0  0  0  0
   21.3590   15.3840    7.7760 C   0  0  0  0  0  0  0  0  0  0  0  0
   20.3290   15.9260    7.1590 N   0  0  0  0  0  0  0  0  0  0  0  0
   18.9260   19.5054    8.5155 H   0  0  0  0  0  0  0  0  0  0  0  0
   19.7645   19.1250    6.9731 H   0  0  0  0  0  0  0  0  0  0  0  0
   18.0054   19.4887    6.9731 H   0  0  0  0  0  0  0  0  0  0  0  0
   17.7838   17.4383    8.5437 H   0  0  0  0  0  0  0  0  0  0  0  0
   18.1284   17.1478    6.7836 H   0  0  0  0  0  0  0  0  0  0  0  0
   20.1877   17.2463   10.2177 H   0  0  0  0  0  0  0  0  0  0  0  0
   18.6574   13.8818   12.3277 H   0  0  0  0  0  0  0  0  0  0  0  0
   21.5999   15.2727   14.9509 H   0  0  0  0  0  0  0  0  0  0  0  0
   23.1149   17.3850   14.7317 H   0  0  0  0  0  0  0  0  0  0  0  0
   27.0461   17.2028   14.7582 H   0  0  0  0  0  0  0  0  0  0  0  0
   24.6163   18.2899   16.2723 H   0  0  0  0  0  0  0  0  0  0  0  0
   25.5155   16.7785   16.6482 H   0  0  0  0  0  0  0  0  0  0  0  0
   26.2118   18.6966   18.0854 H   0  0  0  0  0  0  0  0  0  0  0  0
   27.5561   18.0552   17.0575 H   0  0  0  0  0  0  0  0  0  0  0  0
   26.8287   21.0153   14.7200 H   0  0  0  0  0  0  0  0  0  0  0  0
   22.0434   14.6496    7.3263 H   0  0  0  0  0  0  0  0  0  0  0  0
  1  2  1  0
  2  3  1  0
  3  4  2  0
  4  5  1  0
  5  6  1  0
  6  7  2  0
  6  8  2  0
  6  9  1  0
  9 10  2  0
 10 11  1  0
 11 12  2  0
 12 13  1  0
 13 14  2  0
 14 15  1  0
 15 16  2  0
 16 17  1  0
 17 18  1  0
 18 19  1  0
 19 20  1  0
 20 21  1  0
 21 22  2  0
 21 23  1  0
 23 24  1  0
 24 25  2  0
 17 26  1  0
 26 27  2  0
  5 28  1  0
 28 29  2  0
 29  3  1  0
 14  9  1  0
 27 15  1  0
 24 18  1  0
  1 30  1  0
  1 31  1  0
  1 32  1  0
  2 33  1  0
  2 34  1  0
  4 35  1  0
 11 36  1  0
 13 37  1  0
 16 38  1  0
 18 39  1  1
 19 40  1  0
 19 41  1  0
 20 42  1  0
 20 43  1  0
 23 44  1  0
 28 45  1  0
M  END
>  <meeko>  (1456) 
{"is_sidechain": [true], "free_energy": -10.02, "intermolecular_energy": 0.0, "internal_energy": -10.02, "cluster_size": 17, "cluster_id": 1, "rank_in_cluster": 1}

>  <_RMSD_MCS_to_ref>  (1456) 
0.9888626463434309

$$$$
ligand
     RDKit          3D

 53 57  0  0  0  0  0  0  0  0999 V2000
   18.8250   19.0170    7.5350 C   0  0  0  0  0  0  0  0  0  0  0  0
   18.5200   17.5420    7.7330 C   0  0  0  0  0  0  0  0  0  0  0  0
   19.6800   16.7960    8.2920 C   0  0  0  0  0  0  0  0  0  0  0  0
   20.9140   16.5570    7.7180 C   0  0  0  0  0  0  0  0  0  0  0  0
   21.5910   15.8490    8.6720 N   0  0  0  0  0  0  0  0  0  0  0  0
   23.1170   15.1590    8.4840 S   0  0  0  0  0  6  0  0  0  0  0  0
   23.9140   16.2680    7.9860 O   0  0  0  0  0  0  0  0  0  0  0  0
   22.9100   13.9810    7.6570 O   0  0  0  0  0  0  0  0  0  0  0  0
   23.6700   14.7720    9.9660 O   0  0  0  0  0  0  0  0  0  0  0  0
   24.4830   15.6670   10.5990 C   0  0  0  0  0  0  0  0  0  0  0  0
   25.3980   16.2570    9.8050 N   0  0  0  0  0  0  0  0  0  0  0  0
   26.1920   17.1740   10.3920 C   0  0  0  0  0  0  0  0  0  0  0  0
   26.1120   17.5480   11.7290 C   0  0  0  0  0  0  0  0  0  0  0  0
   25.1490   16.9620   12.5540 C   0  0  0  0  0  0  0  0  0  0  0  0
   24.2930   15.9920   11.9500 C   0  0  0  0  0  0  0  0  0  0  0  0
   23.2190   15.3610   12.7090 N   0  0  0  0  0  0  0  0  0  0  0  0
   22.1860   16.4210   12.9260 C   0  0  0  0  0  0  0  0  0  0  0  0
   22.5400   17.1180   14.2490 C   0  0  0  0  0  0  0  0  0  0  0  0
   23.9110   16.5480   14.6190 C   0  0  1  0  0  0  0  0  0  0  0  0
   23.7930   15.1220   14.0600 C   0  0  0  0  0  0  0  0  0  0  0  0
   24.9760   17.3100   13.9090 N   0  0  0  0  0  0  0  0  0  0  0  0
   26.0320   17.9790   14.6940 C   0  0  2  0  0  0  0  0  0  0  0  0
   25.7110   17.8850   16.1880 C   0  0  0  0  0  0  0  0  0  0  0  0
   26.8180   18.5390   16.9970 C   0  0  0  0  0  0  0  0  0  0  0  0
   27.0180   19.9760   16.5870 C   0  0  0  0  0  0  0  0  0  0  0  0
   27.4550   20.8250   17.3570 O   0  0  0  0  0  0  0  0  0  0  0  0
   26.7420   20.2830   15.2790 N   0  0  0  0  0  0  0  0  0  0  0  0
   26.2320   19.4600   14.2990 C   0  0  0  0  0  0  0  0  0  0  0  0
   26.0020   19.9190   13.1810 O   0  0  0  0  0  0  0  0  0  0  0  0
   20.7620   15.6080    9.7210 C   0  0  0  0  0  0  0  0  0  0  0  0
   19.6020   16.2060    9.5390 N   0  0  0  0  0  0  0  0  0  0  0  0
   18.9260   19.5054    8.5155 H   0  0  0  0  0  0  0  0  0  0  0  0
   19.7645   19.1250    6.9731 H   0  0  0  0  0  0  0  0  0  0  0  0
   18.0054   19.4887    6.9731 H   0  0  0  0  0  0  0  0  0  0  0  0
   17.6707   17.4461    8.4255 H   0  0  0  0  0  0  0  0  0  0  0  0
   18.2857   17.1115    6.7483 H   0  0  0  0  0  0  0  0  0  0  0  0
   21.2695   16.8650    6.7236 H   0  0  0  0  0  0  0  0  0  0  0  0
   26.9573   17.6610    9.7698 H   0  0  0  0  0  0  0  0  0  0  0  0
   26.8033   18.3013   12.1348 H   0  0  0  0  0  0  0  0  0  0  0  0
   22.2065   17.1454   12.0985 H   0  0  0  0  0  0  0  0  0  0  0  0
   21.1759   15.9872   12.9651 H   0  0  0  0  0  0  0  0  0  0  0  0
   22.5946   18.2082   14.1131 H   0  0  0  0  0  0  0  0  0  0  0  0
   21.7865   16.9442   15.0314 H   0  0  0  0  0  0  0  0  0  0  0  0
   24.1657   16.5917   15.6882 H   0  0  0  0  0  0  0  0  0  0  0  0
   24.7778   14.6364   13.9948 H   0  0  0  0  0  0  0  0  0  0  0  0
   23.1858   14.4512   14.6855 H   0  0  0  0  0  0  0  0  0  0  0  0
   26.9729   17.4546   14.4711 H   0  0  0  0  0  0  0  0  0  0  0  0
   24.7596   18.3989   16.3896 H   0  0  0  0  0  0  0  0  0  0  0  0
   25.6299   16.8262   16.4750 H   0  0  0  0  0  0  0  0  0  0  0  0
   26.5513   18.5042   18.0636 H   0  0  0  0  0  0  0  0  0  0  0  0
   27.7539   17.9911   16.8127 H   0  0  0  0  0  0  0  0  0  0  0  0
   26.9414   21.2522   14.9931 H   0  0  0  0  0  0  0  0  0  0  0  0
   21.0226   14.9990   10.5992 H   0  0  0  0  0  0  0  0  0  0  0  0
  1  2  1  0
  2  3  1  0
  3  4  2  0
  4  5  1  0
  5  6  1  0
  6  7  2  0
  6  8  2  0
  6  9  1  0
  9 10  1  0
 10 11  2  0
 11 12  1  0
 12 13  2  0
 13 14  1  0
 14 15  2  0
 15 16  1  0
 16 17  1  0
 17 18  1  0
 18 19  1  0
 19 20  1  0
 19 21  1  0
 21 22  1  0
 22 23  1  0
 23 24  1  0
 24 25  1  0
 25 26  2  0
 25 27  1  0
 27 28  1  0
 28 29  2  0
  5 30  1  0
 30 31  2  0
 31  3  1  0
 15 10  1  0
 20 16  1  0
 28 22  1  0
 21 14  1  0
  1 32  1  0
  1 33  1  0
  1 34  1  0
  2 35  1  0
  2 36  1  0
  4 37  1  0
 12 38  1  0
 13 39  1  0
 17 40  1  0
 17 41  1  0
 18 42  1  0
 18 43  1  0
 19 44  1  1
 20 45  1  0
 20 46  1  0
 22 47  1  1
 23 48  1  0
 23 49  1  0
 24 50  1  0
 24 51  1  0
 27 52  1  0
 30 53  1  0
M  END
>  <meeko>  (1457) 
{"is_sidechain": [true], "free_energy": -10.02, "intermolecular_energy": 0.0, "internal_energy": -10.02, "cluster_size": 4, "cluster_id": 1, "rank_in_cluster": 1}

>  <_RMSD_MCS_to_ref>  (1457) 
0.8395995077019361

$$$$
ligand
     RDKit          3D

 48 51  0  0  0  0  0  0  0  0999 V2000
   18.7970   18.8170    7.7190 C   0  0  0  0  0  0  0  0  0  0  0  0
   18.5280   17.3290    7.8810 C   0  0  0  0  0  0  0  0  0  0  0  0
   19.7830   16.5300    7.9050 C   0  0  0  0  0  0  0  0  0  0  0  0
   20.4380   15.9750    8.9860 C   0  0  0  0  0  0  0  0  0  0  0  0
   21.5140   15.3400    8.4370 N   0  0  0  0  0  0  0  0  0  0  0  0
   22.8050   14.6750    9.2740 S   0  0  0  0  0  6  0  0  0  0  0  0
   23.3120   13.5870    8.4640 O   0  0  0  0  0  0  0  0  0  0  0  0
   23.6210   15.7920    9.7080 O   0  0  0  0  0  0  0  0  0  0  0  0
   22.2260   13.9480   10.7080 C   0  0  0  0  0  0  0  0  0  0  0  0
   21.1770   13.0620   10.7850 C   0  0  0  0  0  0  0  0  0  0  0  0
   21.0060   12.6480   12.0680 O   0  0  0  0  0  0  0  0  0  0  0  0
   21.9470   13.2840   12.8200 C   0  0  0  0  0  0  0  0  0  0  0  0
   22.1140   13.1270   14.1930 C   0  0  0  0  0  0  0  0  0  0  0  0
   23.1430   13.8640   14.7920 C   0  0  0  0  0  0  0  0  0  0  0  0
   23.9490   14.7270   14.0350 C   0  0  0  0  0  0  0  0  0  0  0  0
   25.0560   15.5120   14.6510 C   0  0  0  0  0  0  0  0  0  0  0  0
   26.0920   14.9540   14.9920 O   0  0  0  0  0  0  0  0  0  0  0  0
   24.8560   16.8690   14.7740 N   0  0  0  0  0  0  0  0  0  0  0  0
   25.9340   17.7480   15.2090 C   0  0  2  0  0  0  0  0  0  0  0  0
   26.1590   17.6880   16.7160 C   0  0  0  0  0  0  0  0  0  0  0  0
   27.2640   18.6580   17.1020 C   0  0  0  0  0  0  0  0  0  0  0  0
   26.9500   20.0610   16.6350 C   0  0  0  0  0  0  0  0  0  0  0  0
   27.2850   21.0570   17.2690 O   0  0  0  0  0  0  0  0  0  0  0  0
   26.2890   20.1770   15.4390 N   0  0  0  0  0  0  0  0  0  0  0  0
   25.5750   19.1840   14.8160 C   0  0  0  0  0  0  0  0  0  0  0  0
   24.7070   19.4490   13.9840 O   0  0  0  0  0  0  0  0  0  0  0  0
   23.7550   14.8540   12.6460 C   0  0  0  0  0  0  0  0  0  0  0  0
   22.7320   14.1130   12.0230 C   0  0  0  0  0  0  0  0  0  0  0  0
   21.5200   15.5530    7.0950 C   0  0  0  0  0  0  0  0  0  0  0  0
   20.4710   16.2640    6.7370 N   0  0  0  0  0  0  0  0  0  0  0  0
   18.8815   19.2845    8.7111 H   0  0  0  0  0  0  0  0  0  0  0  0
   19.7359   18.9616    7.1643 H   0  0  0  0  0  0  0  0  0  0  0  0
   17.9682   19.2812    7.1643 H   0  0  0  0  0  0  0  0  0  0  0  0
   17.9872   17.1676    8.8252 H   0  0  0  0  0  0  0  0  0  0  0  0
   17.9332   16.9975    7.0171 H   0  0  0  0  0  0  0  0  0  0  0  0
   20.1567   16.0317   10.0479 H   0  0  0  0  0  0  0  0  0  0  0  0
   20.5648   12.7356    9.9314 H   0  0  0  0  0  0  0  0  0  0  0  0
   21.4687   12.4563   14.7792 H   0  0  0  0  0  0  0  0  0  0  0  0
   23.3220   13.7646   15.8728 H   0  0  0  0  0  0  0  0  0  0  0  0
   23.9319   17.2681   14.5556 H   0  0  0  0  0  0  0  0  0  0  0  0
   26.8629   17.4163   14.7222 H   0  0  0  0  0  0  0  0  0  0  0  0
   25.2302   17.9641   17.2367 H   0  0  0  0  0  0  0  0  0  0  0  0
   26.4505   16.6669   17.0030 H   0  0  0  0  0  0  0  0  0  0  0  0
   27.3727   18.6604   18.1966 H   0  0  0  0  0  0  0  0  0  0  0  0
   28.1971   18.3317   16.6194 H   0  0  0  0  0  0  0  0  0  0  0  0
   26.3322   21.0909   14.9660 H   0  0  0  0  0  0  0  0  0  0  0  0
   24.3954   15.5245   12.0541 H   0  0  0  0  0  0  0  0  0  0  0  0
   22.2926   15.1834    6.4047 H   0  0  0  0  0  0  0  0  0  0  0  0
  1  2  1  0
  2  3  1  0
  3  4  2  0
  4  5  1  0
  5  6  1  0
  6  7  2  0
  6  8  2  0
  6  9  1  0
  9 10  2  0
 10 11  1  0
 11 12  1  0
 12 13  2  0
 13 14  1  0
 14 15  2  0
 15 16  1  0
 16 17  2  0
 16 18  1  0
 18 19  1  0
 19 20  1  0
 20 21  1  0
 21 22  1  0
 22 23  2  0
 22 24  1  0
 24 25  1  0
 25 26  2  0
 15 27  1  0
 27 28  2  0
  5 29  1  0
 29 30  2  0
 30  3  1  0
 28  9  1  0
 28 12  1  0
 25 19  1  0
  1 31  1  0
  1 32  1  0
  1 33  1  0
  2 34  1  0
  2 35  1  0
  4 36  1  0
 10 37  1  0
 13 38  1  0
 14 39  1  0
 18 40  1  0
 19 41  1  6
 20 42  1  0
 20 43  1  0
 21 44  1  0
 21 45  1  0
 24 46  1  0
 27 47  1  0
 29 48  1  0
M  END
>  <meeko>  (1458) 
{"is_sidechain": [true], "free_energy": -10.02, "intermolecular_energy": 0.0, "internal_energy": -10.02, "cluster_size": 11, "cluster_id": 1, "rank_in_cluster": 1}

>  <_RMSD_MCS_to_ref>  (1458) 
0.7341717177276106

$$$$
ligand
     RDKit          3D

 48 51  0  0  0  0  0  0  0  0999 V2000
   18.7970   18.8170    7.7190 C   0  0  0  0  0  0  0  0  0  0  0  0
   18.5280   17.3290    7.8810 C   0  0  0  0  0  0  0  0  0  0  0  0
   19.7760   16.5220    7.8130 C   0  0  0  0  0  0  0  0  0  0  0  0
   20.6490   16.1840    8.8280 C   0  0  0  0  0  0  0  0  0  0  0  0
   21.6210   15.4540    8.2050 N   0  0  0  0  0  0  0  0  0  0  0  0
   22.8840   14.6490    8.9500 S   0  0  0  0  0  6  0  0  0  0  0  0
   22.9030   13.3080    8.3990 O   0  0  0  0  0  0  0  0  0  0  0  0
   24.0290   15.5400    8.9070 O   0  0  0  0  0  0  0  0  0  0  0  0
   22.5280   14.4480   10.6300 C   0  0  0  0  0  0  0  0  0  0  0  0
   23.2860   14.9240   11.6790 C   0  0  0  0  0  0  0  0  0  0  0  0
   22.6340   14.5310   12.8250 N   0  0  0  0  0  0  0  0  0  0  0  0
   22.9410   14.7520   14.1760 C   0  0  0  0  0  0  0  0  0  0  0  0
   24.1740   15.4680   14.6060 C   0  0  0  0  0  0  0  0  0  0  0  0
   25.1960   14.8650   14.9100 O   0  0  0  0  0  0  0  0  0  0  0  0
   24.0910   16.8370   14.5840 N   0  0  0  0  0  0  0  0  0  0  0  0
   25.2650   17.6730   14.8040 C   0  0  2  0  0  0  0  0  0  0  0  0
   25.7040   17.6840   16.2640 C   0  0  0  0  0  0  0  0  0  0  0  0
   26.9010   18.6090   16.4250 C   0  0  0  0  0  0  0  0  0  0  0  0
   26.5930   19.9980   15.9170 C   0  0  0  0  0  0  0  0  0  0  0  0
   27.0560   21.0080   16.4380 O   0  0  0  0  0  0  0  0  0  0  0  0
   25.7810   20.0830   14.8150 N   0  0  0  0  0  0  0  0  0  0  0  0
   24.9260   19.1040   14.3750 C   0  0  0  0  0  0  0  0  0  0  0  0
   23.9510   19.3720   13.6730 O   0  0  0  0  0  0  0  0  0  0  0  0
   22.1160   14.2380   15.1150 C   0  0  0  0  0  0  0  0  0  0  0  0
   20.9270   13.5080   14.7050 C   0  0  0  0  0  0  0  0  0  0  0  0
   20.6360   13.3130   13.4060 C   0  0  0  0  0  0  0  0  0  0  0  0
   21.5000   13.8320   12.4030 C   0  0  0  0  0  0  0  0  0  0  0  0
   21.4180   13.7740   11.0910 N   0  0  0  0  0  0  0  0  0  0  0  0
   21.2990   15.3140    6.8920 C   0  0  0  0  0  0  0  0  0  0  0  0
   20.1950   15.9770    6.6140 N   0  0  0  0  0  0  0  0  0  0  0  0
   18.8815   19.2845    8.7111 H   0  0  0  0  0  0  0  0  0  0  0  0
   19.7359   18.9616    7.1643 H   0  0  0  0  0  0  0  0  0  0  0  0
   17.9682   19.2812    7.1643 H   0  0  0  0  0  0  0  0  0  0  0  0
   18.0493   17.1597    8.8568 H   0  0  0  0  0  0  0  0  0  0  0  0
   17.8751   17.0118    7.0545 H   0  0  0  0  0  0  0  0  0  0  0  0
   20.5779   16.4434    9.8946 H   0  0  0  0  0  0  0  0  0  0  0  0
   24.2208   15.5001   11.6130 H   0  0  0  0  0  0  0  0  0  0  0  0
   23.1798   17.2839   14.4083 H   0  0  0  0  0  0  0  0  0  0  0  0
   26.0950   17.2596   14.2122 H   0  0  0  0  0  0  0  0  0  0  0  0
   24.8761   18.0423   16.8934 H   0  0  0  0  0  0  0  0  0  0  0  0
   25.9830   16.6653   16.5714 H   0  0  0  0  0  0  0  0  0  0  0  0
   27.1676   18.6680   17.4906 H   0  0  0  0  0  0  0  0  0  0  0  0
   27.7366   18.2014   15.8370 H   0  0  0  0  0  0  0  0  0  0  0  0
   25.8159   20.9568   14.2708 H   0  0  0  0  0  0  0  0  0  0  0  0
   22.3426   14.3711   16.1832 H   0  0  0  0  0  0  0  0  0  0  0  0
   20.2506   13.1064   15.4739 H   0  0  0  0  0  0  0  0  0  0  0  0
   19.7326   12.7539   13.1208 H   0  0  0  0  0  0  0  0  0  0  0  0
   21.8791   14.7289    6.1633 H   0  0  0  0  0  0  0  0  0  0  0  0
  1  2  1  0
  2  3  1  0
  3  4  2  0
  4  5  1  0
  5  6  1  0
  6  7  2  0
  6  8  2  0
  6  9  1  0
  9 10  2  0
 10 11  1  0
 11 12  1  0
 12 13  1  0
 13 14  2  0
 13 15  1  0
 15 16  1  0
 16 17  1  0
 17 18  1  0
 18 19  1  0
 19 20  2  0
 19 21  1  0
 21 22  1  0
 22 23  2  0
 12 24  2  0
 24 25  1  0
 25 26  2  0
 26 27  1  0
 27 28  2  0
  5 29  1  0
 29 30  2  0
 30  3  1  0
 28  9  1  0
 27 11  1  0
 22 16  1  0
  1 31  1  0
  1 32  1  0
  1 33  1  0
  2 34  1  0
  2 35  1  0
  4 36  1  0
 10 37  1  0
 15 38  1  0
 16 39  1  6
 17 40  1  0
 17 41  1  0
 18 42  1  0
 18 43  1  0
 21 44  1  0
 24 45  1  0
 25 46  1  0
 26 47  1  0
 29 48  1  0
M  END
>  <meeko>  (1459) 
{"is_sidechain": [true], "free_energy": -10.02, "intermolecular_energy": 0.0, "internal_energy": -10.02, "cluster_size": 17, "cluster_id": 1, "rank_in_cluster": 1}

>  <_RMSD_MCS_to_ref>  (1459) 
0.8694472062433952

$$$$
ligand
     RDKit          3D

 47 50  0  0  0  0  0  0  0  0999 V2000
   18.7970   18.8170    7.7190 C   0  0  0  0  0  0  0  0  0  0  0  0
   18.5280   17.3290    7.8810 C   0  0  0  0  0  0  0  0  0  0  0  0
   19.7760   16.5510    8.1080 C   0  0  0  0  0  0  0  0  0  0  0  0
   20.3580   16.1830    9.3050 C   0  0  0  0  0  0  0  0  0  0  0  0
   21.4830   15.5010    8.9380 N   0  0  0  0  0  0  0  0  0  0  0  0
   22.4450   14.5950    9.9710 S   0  0  0  0  0  6  0  0  0  0  0  0
   22.5270   15.3280   11.2170 O   0  0  0  0  0  0  0  0  0  0  0  0
   21.9230   13.2440    9.8930 O   0  0  0  0  0  0  0  0  0  0  0  0
   24.0760   14.4780    9.3740 C   0  0  0  0  0  0  0  0  0  0  0  0
   24.6430   13.6760    8.4030 C   0  0  0  0  0  0  0  0  0  0  0  0
   25.9850   13.9110    8.2720 N   0  0  0  0  0  0  0  0  0  0  0  0
   26.2540   14.8390    9.1620 C   0  0  0  0  0  0  0  0  0  0  0  0
   27.4740   15.4640    9.5020 C   0  0  0  0  0  0  0  0  0  0  0  0
   27.4870   16.4050   10.4530 C   0  0  0  0  0  0  0  0  0  0  0  0
   26.1860   16.7430   11.0930 C   0  0  0  0  0  0  0  0  0  0  0  0
   26.2370   17.8260   12.1740 C   0  0  0  0  0  0  0  0  0  0  0  0
   27.1610   18.6240   12.1960 O   0  0  0  0  0  0  0  0  0  0  0  0
   25.1850   17.7940   13.0620 N   0  0  0  0  0  0  0  0  0  0  0  0
   25.3110   18.4360   14.3620 C   0  0  1  0  0  0  0  0  0  0  0  0
   26.4200   17.7950   15.1850 C   0  0  0  0  0  0  0  0  0  0  0  0
   26.5380   18.5060   16.5220 C   0  0  0  0  0  0  0  0  0  0  0  0
   26.7720   19.9870   16.3370 C   0  0  0  0  0  0  0  0  0  0  0  0
   27.4220   20.6530   17.1380 O   0  0  0  0  0  0  0  0  0  0  0  0
   26.1790   20.5710   15.2460 N   0  0  0  0  0  0  0  0  0  0  0  0
   25.6150   19.9320   14.1680 C   0  0  0  0  0  0  0  0  0  0  0  0
   25.3480   20.5550   13.1410 O   0  0  0  0  0  0  0  0  0  0  0  0
   25.0360   16.2000   10.8090 N   0  0  0  0  0  0  0  0  0  0  0  0
   25.1160   15.2330    9.8500 N   0  0  0  0  0  0  0  0  0  0  0  0
   21.5590   15.4640    7.5820 C   0  0  0  0  0  0  0  0  0  0  0  0
   20.5150   16.0660    7.0440 N   0  0  0  0  0  0  0  0  0  0  0  0
   18.8815   19.2845    8.7111 H   0  0  0  0  0  0  0  0  0  0  0  0
   19.7359   18.9616    7.1643 H   0  0  0  0  0  0  0  0  0  0  0  0
   17.9682   19.2812    7.1643 H   0  0  0  0  0  0  0  0  0  0  0  0
   17.8582   17.1822    8.7411 H   0  0  0  0  0  0  0  0  0  0  0  0
   18.0702   16.9663    6.9489 H   0  0  0  0  0  0  0  0  0  0  0  0
   19.9974   16.3918   10.3230 H   0  0  0  0  0  0  0  0  0  0  0  0
   24.0844   12.9386    7.8078 H   0  0  0  0  0  0  0  0  0  0  0  0
   28.4050   15.1797    8.9896 H   0  0  0  0  0  0  0  0  0  0  0  0
   28.4195   16.9076   10.7495 H   0  0  0  0  0  0  0  0  0  0  0  0
   24.3093   17.3159   12.8062 H   0  0  0  0  0  0  0  0  0  0  0  0
   24.3616   18.3116   14.9035 H   0  0  0  0  0  0  0  0  0  0  0  0
   26.1839   16.7340   15.3541 H   0  0  0  0  0  0  0  0  0  0  0  0
   27.3728   17.8780   14.6417 H   0  0  0  0  0  0  0  0  0  0  0  0
   25.6075   18.3584   17.0898 H   0  0  0  0  0  0  0  0  0  0  0  0
   27.3963   18.0839   17.0653 H   0  0  0  0  0  0  0  0  0  0  0  0
   26.1539   21.6006   15.2337 H   0  0  0  0  0  0  0  0  0  0  0  0
   22.3763   14.9976    7.0123 H   0  0  0  0  0  0  0  0  0  0  0  0
  1  2  1  0
  2  3  1  0
  3  4  2  0
  4  5  1  0
  5  6  1  0
  6  7  2  0
  6  8  2  0
  6  9  1  0
  9 10  2  0
 10 11  1  0
 11 12  2  0
 12 13  1  0
 13 14  2  0
 14 15  1  0
 15 16  1  0
 16 17  2  0
 16 18  1  0
 18 19  1  0
 19 20  1  0
 20 21  1  0
 21 22  1  0
 22 23  2  0
 22 24  1  0
 24 25  1  0
 25 26  2  0
 15 27  2  0
 27 28  1  0
  5 29  1  0
 29 30  2  0
 30  3  1  0
 28  9  1  0
 28 12  1  0
 25 19  1  0
  1 31  1  0
  1 32  1  0
  1 33  1  0
  2 34  1  0
  2 35  1  0
  4 36  1  0
 10 37  1  0
 13 38  1  0
 14 39  1  0
 18 40  1  0
 19 41  1  1
 20 42  1  0
 20 43  1  0
 21 44  1  0
 21 45  1  0
 24 46  1  0
 29 47  1  0
M  END
>  <meeko>  (1460) 
{"is_sidechain": [true], "free_energy": -10.02, "intermolecular_energy": 0.0, "internal_energy": -10.02, "cluster_size": 12, "cluster_id": 1, "rank_in_cluster": 1}

>  <_RMSD_MCS_to_ref>  (1460) 
0.6360261175629678

$$$$
ligand
     RDKit          3D

 54 57  0  0  0  0  0  0  0  0999 V2000
   18.7970   18.8170    7.7190 C   0  0  0  0  0  0  0  0  0  0  0  0
   18.5280   17.3290    7.8810 C   0  0  0  0  0  0  0  0  0  0  0  0
   19.7700   16.5570    8.1540 C   0  0  0  0  0  0  0  0  0  0  0  0
   20.4790   16.4470    9.3330 C   0  0  0  0  0  0  0  0  0  0  0  0
   21.5490   15.6620    9.0090 N   0  0  0  0  0  0  0  0  0  0  0  0
   22.7110   15.0700   10.0660 S   0  0  0  0  0  6  0  0  0  0  0  0
   23.1620   13.7850    9.5710 O   0  0  0  0  0  0  0  0  0  0  0  0
   23.6360   16.1830   10.1910 O   0  0  0  0  0  0  0  0  0  0  0  0
   21.9630   14.8440   11.6440 C   0  0  0  0  0  0  0  0  0  0  0  0
   20.6850   14.2690   11.6820 C   0  0  0  0  0  0  0  0  0  0  0  0
   20.0590   14.0020   12.9040 C   0  0  0  0  0  0  0  0  0  0  0  0
   20.7580   14.2990   14.0730 C   0  0  0  0  0  0  0  0  0  0  0  0
   21.9870   14.8670   14.0560 N   0  0  0  0  0  0  0  0  0  0  0  0
   22.5680   15.1510   12.8480 C   0  0  0  0  0  0  0  0  0  0  0  0
   23.8990   15.8240   12.9970 C   0  0  0  0  0  0  0  0  0  0  0  0
   24.7990   15.6830   12.1850 O   0  0  0  0  0  0  0  0  0  0  0  0
   24.0200   16.6100   14.1200 N   0  0  0  0  0  0  0  0  0  0  0  0
   25.1840   17.4420   14.3690 C   0  0  2  0  0  0  0  0  0  0  0  0
   25.6120   17.3950   15.8330 C   0  0  0  0  0  0  0  0  0  0  0  0
   26.8190   18.2950   16.0400 C   0  0  0  0  0  0  0  0  0  0  0  0
   26.5340   19.7070   15.5820 C   0  0  0  0  0  0  0  0  0  0  0  0
   27.0350   20.6870   16.1250 O   0  0  0  0  0  0  0  0  0  0  0  0
   25.7080   19.8470   14.4970 N   0  0  0  0  0  0  0  0  0  0  0  0
   24.8610   18.8910   13.9890 C   0  0  0  0  0  0  0  0  0  0  0  0
   23.9220   19.2020   13.2580 O   0  0  0  0  0  0  0  0  0  0  0  0
   20.1510   14.0640   15.4320 C   0  0  0  0  0  0  0  0  0  0  0  0
   18.9870   13.0780   15.4070 C   0  0  0  0  0  0  0  0  0  0  0  0
   18.0140   13.4370   14.2900 C   0  0  0  0  0  0  0  0  0  0  0  0
   18.7030   13.3460   12.9290 C   0  0  0  0  0  0  0  0  0  0  0  0
   21.4070   15.2320    7.7270 C   0  0  0  0  0  0  0  0  0  0  0  0
   20.3630   15.8010    7.1600 N   0  0  0  0  0  0  0  0  0  0  0  0
   18.8815   19.2845    8.7111 H   0  0  0  0  0  0  0  0  0  0  0  0
   19.7359   18.9616    7.1643 H   0  0  0  0  0  0  0  0  0  0  0  0
   17.9682   19.2812    7.1643 H   0  0  0  0  0  0  0  0  0  0  0  0
   17.8305   17.1849    8.7193 H   0  0  0  0  0  0  0  0  0  0  0  0
   18.1028   16.9592    6.9363 H   0  0  0  0  0  0  0  0  0  0  0  0
   20.2376   16.8902   10.3104 H   0  0  0  0  0  0  0  0  0  0  0  0
   20.1694   14.0254   10.7414 H   0  0  0  0  0  0  0  0  0  0  0  0
   23.2557   16.6082   14.8105 H   0  0  0  0  0  0  0  0  0  0  0  0
   26.0125   17.0549   13.7577 H   0  0  0  0  0  0  0  0  0  0  0  0
   24.7835   17.7418   16.4680 H   0  0  0  0  0  0  0  0  0  0  0  0
   25.8757   16.3620   16.1037 H   0  0  0  0  0  0  0  0  0  0  0  0
   27.0761   18.3098   17.1094 H   0  0  0  0  0  0  0  0  0  0  0  0
   27.6549   17.8983   15.4452 H   0  0  0  0  0  0  0  0  0  0  0  0
   25.7236   20.7574   14.0154 H   0  0  0  0  0  0  0  0  0  0  0  0
   20.9305   13.6681   16.0995 H   0  0  0  0  0  0  0  0  0  0  0  0
   19.7559   15.0279   15.7851 H   0  0  0  0  0  0  0  0  0  0  0  0
   19.3750   12.0627   15.2380 H   0  0  0  0  0  0  0  0  0  0  0  0
   18.4584   13.1237   16.3706 H   0  0  0  0  0  0  0  0  0  0  0  0
   17.1639   12.7393   14.3125 H   0  0  0  0  0  0  0  0  0  0  0  0
   17.6629   14.4683   14.4423 H   0  0  0  0  0  0  0  0  0  0  0  0
   18.8238   12.2841   12.6688 H   0  0  0  0  0  0  0  0  0  0  0  0
   18.0688   13.8797   12.2058 H   0  0  0  0  0  0  0  0  0  0  0  0
   22.0719   14.5090    7.2318 H   0  0  0  0  0  0  0  0  0  0  0  0
  1  2  1  0
  2  3  1  0
  3  4  2  0
  4  5  1  0
  5  6  1  0
  6  7  2  0
  6  8  2  0
  6  9  1  0
  9 10  2  0
 10 11  1  0
 11 12  2  0
 12 13  1  0
 13 14  2  0
 14 15  1  0
 15 16  2  0
 15 17  1  0
 17 18  1  0
 18 19  1  0
 19 20  1  0
 20 21  1  0
 21 22  2  0
 21 23  1  0
 23 24  1  0
 24 25  2  0
 12 26  1  0
 26 27  1  0
 27 28  1  0
 28 29  1  0
  5 30  1  0
 30 31  2  0
 31  3  1  0
 14  9  1  0
 24 18  1  0
 29 11  1  0
  1 32  1  0
  1 33  1  0
  1 34  1  0
  2 35  1  0
  2 36  1  0
  4 37  1  0
 10 38  1  0
 17 39  1  0
 18 40  1  6
 19 41  1  0
 19 42  1  0
 20 43  1  0
 20 44  1  0
 23 45  1  0
 26 46  1  0
 26 47  1  0
 27 48  1  0
 27 49  1  0
 28 50  1  0
 28 51  1  0
 29 52  1  0
 29 53  1  0
 30 54  1  0
M  END
>  <meeko>  (1461) 
{"is_sidechain": [true], "free_energy": -10.02, "intermolecular_energy": 0.0, "internal_energy": -10.02, "cluster_size": 4, "cluster_id": 1, "rank_in_cluster": 1}

>  <_RMSD_MCS_to_ref>  (1461) 
1.1176957944310648

$$$$
ligand
     RDKit          3D

 48 51  0  0  0  0  0  0  0  0999 V2000
   18.7970   18.8170    7.7190 C   0  0  0  0  0  0  0  0  0  0  0  0
   18.5280   17.3290    7.8810 C   0  0  0  0  0  0  0  0  0  0  0  0
   19.7140   16.5010    7.5310 C   0  0  0  0  0  0  0  0  0  0  0  0
   20.8220   16.2080    8.2990 C   0  0  0  0  0  0  0  0  0  0  0  0
   21.5860   15.4150    7.4950 N   0  0  0  0  0  0  0  0  0  0  0  0
   22.9890   14.5840    7.9280 S   0  0  0  0  0  6  0  0  0  0  0  0
   24.0490   15.1860    7.1390 O   0  0  0  0  0  0  0  0  0  0  0  0
   22.6310   13.1900    7.7090 O   0  0  0  0  0  0  0  0  0  0  0  0
   23.2900   14.8360    9.5970 C   0  0  0  0  0  0  0  0  0  0  0  0
   24.4570   15.3690   10.0020 C   0  0  0  0  0  0  0  0  0  0  0  0
   24.7500   15.6190   11.3230 N   0  0  0  0  0  0  0  0  0  0  0  0
   23.8450   15.3500   12.2930 C   0  0  0  0  0  0  0  0  0  0  0  0
   23.8370   15.4930   13.6630 C   0  0  0  0  0  0  0  0  0  0  0  0
   24.9260   16.0260   14.4590 C   0  0  0  0  0  0  0  0  0  0  0  0
   25.7520   15.2980   15.0040 O   0  0  0  0  0  0  0  0  0  0  0  0
   24.9770   17.3960   14.5570 N   0  0  0  0  0  0  0  0  0  0  0  0
   26.0950   18.0700   15.2060 C   0  0  2  0  0  0  0  0  0  0  0  0
   26.0560   17.9300   16.7240 C   0  0  0  0  0  0  0  0  0  0  0  0
   27.2210   18.6950   17.3330 C   0  0  0  0  0  0  0  0  0  0  0  0
   27.2150   20.1430   16.8980 C   0  0  0  0  0  0  0  0  0  0  0  0
   27.5940   21.0520   17.6290 O   0  0  0  0  0  0  0  0  0  0  0  0
   26.7880   20.3980   15.6190 N   0  0  0  0  0  0  0  0  0  0  0  0
   26.0340   19.5570   14.8430 C   0  0  0  0  0  0  0  0  0  0  0  0
   25.3560   19.9800   13.9060 O   0  0  0  0  0  0  0  0  0  0  0  0
   22.5630   14.9970   14.0310 C   0  0  0  0  0  0  0  0  0  0  0  0
   21.8280   14.5840   12.9930 N   0  0  0  0  0  0  0  0  0  0  0  0
   22.6270   14.8090   11.9200 N   0  0  0  0  0  0  0  0  0  0  0  0
   22.2500   14.5120   10.5950 C   0  0  0  0  0  0  0  0  0  0  0  0
   21.1610   14.0210   10.3370 O   0  0  0  0  0  0  0  0  0  0  0  0
   20.9460   15.2320    6.3110 C   0  0  0  0  0  0  0  0  0  0  0  0
   19.8030   15.8850    6.2960 N   0  0  0  0  0  0  0  0  0  0  0  0
   18.8815   19.2845    8.7111 H   0  0  0  0  0  0  0  0  0  0  0  0
   19.7359   18.9616    7.1643 H   0  0  0  0  0  0  0  0  0  0  0  0
   17.9682   19.2812    7.1643 H   0  0  0  0  0  0  0  0  0  0  0  0
   18.2541   17.1306    8.9277 H   0  0  0  0  0  0  0  0  0  0  0  0
   17.7124   17.0570    7.1948 H   0  0  0  0  0  0  0  0  0  0  0  0
   21.0394   16.5386    9.3254 H   0  0  0  0  0  0  0  0  0  0  0  0
   25.2123   15.6165    9.2415 H   0  0  0  0  0  0  0  0  0  0  0  0
   25.6667   16.0146   11.5761 H   0  0  0  0  0  0  0  0  0  0  0  0
   24.2090   17.9584   14.1636 H   0  0  0  0  0  0  0  0  0  0  0  0
   27.0272   17.6034   14.8550 H   0  0  0  0  0  0  0  0  0  0  0  0
   25.1089   18.3390   17.1059 H   0  0  0  0  0  0  0  0  0  0  0  0
   26.1323   16.8671   16.9966 H   0  0  0  0  0  0  0  0  0  0  0  0
   27.1452   18.6500   18.4295 H   0  0  0  0  0  0  0  0  0  0  0  0
   28.1578   18.2329   16.9883 H   0  0  0  0  0  0  0  0  0  0  0  0
   27.0582   21.3018   15.2055 H   0  0  0  0  0  0  0  0  0  0  0  0
   22.2110   14.9553   15.0723 H   0  0  0  0  0  0  0  0  0  0  0  0
   21.3297   14.6224    5.4796 H   0  0  0  0  0  0  0  0  0  0  0  0
  1  2  1  0
  2  3  1  0
  3  4  2  0
  4  5  1  0
  5  6  1  0
  6  7  2  0
  6  8  2  0
  6  9  1  0
  9 10  2  0
 10 11  1  0
 11 12  1  0
 12 13  2  0
 13 14  1  0
 14 15  2  0
 14 16  1  0
 16 17  1  0
 17 18  1  0
 18 19  1  0
 19 20  1  0
 20 21  2  0
 20 22  1  0
 22 23  1  0
 23 24  2  0
 13 25  1  0
 25 26  2  0
 26 27  1  0
 27 28  1  0
 28 29  2  0
  5 30  1  0
 30 31  2  0
 31  3  1  0
 28  9  1  0
 27 12  1  0
 23 17  1  0
  1 32  1  0
  1 33  1  0
  1 34  1  0
  2 35  1  0
  2 36  1  0
  4 37  1  0
 10 38  1  0
 11 39  1  0
 16 40  1  0
 17 41  1  6
 18 42  1  0
 18 43  1  0
 19 44  1  0
 19 45  1  0
 22 46  1  0
 25 47  1  0
 30 48  1  0
M  END
>  <meeko>  (1462) 
{"is_sidechain": [true], "free_energy": -10.02, "intermolecular_energy": 0.0, "internal_energy": -10.02, "cluster_size": 17, "cluster_id": 1, "rank_in_cluster": 1}

>  <_RMSD_MCS_to_ref>  (1462) 
0.7458155118913639

$$$$
ligand
     RDKit          3D

 47 50  0  0  0  0  0  0  0  0999 V2000
   18.7980   18.8170    7.7190 C   0  0  0  0  0  0  0  0  0  0  0  0
   18.5270   17.3290    7.8810 C   0  0  0  0  0  0  0  0  0  0  0  0
   19.7760   16.5220    7.8150 C   0  0  0  0  0  0  0  0  0  0  0  0
   20.4950   15.9520    8.8470 C   0  0  0  0  0  0  0  0  0  0  0  0
   21.5410   15.3340    8.2250 N   0  0  0  0  0  0  0  0  0  0  0  0
   22.8900   14.6700    8.9790 S   0  0  0  0  0  6  0  0  0  0  0  0
   23.1940   13.4460    8.2660 O   0  0  0  0  0  0  0  0  0  0  0  0
   23.8350   15.7630    9.0980 O   0  0  0  0  0  0  0  0  0  0  0  0
   22.3060   14.2330   10.6090 C   0  0  0  0  0  0  0  0  0  0  0  0
   21.1210   13.4490   10.7150 C   0  0  0  0  0  0  0  0  0  0  0  0
   20.5800   13.0470   11.9540 C   0  0  0  0  0  0  0  0  0  0  0  0
   21.2930   13.4730   13.0970 C   0  0  0  0  0  0  0  0  0  0  0  0
   20.9830   13.2160   14.3690 N   0  0  0  0  0  0  0  0  0  0  0  0
   22.0880   13.9050   15.3760 S   0  0  0  0  0  0  0  0  0  0  0  0
   23.0800   14.6070   14.1700 C   0  0  0  0  0  0  0  0  0  0  0  0
   24.2780   15.3570   14.5050 C   0  0  0  0  0  0  0  0  0  0  0  0
   25.3680   14.8280   14.7250 O   0  0  0  0  0  0  0  0  0  0  0  0
   24.1540   16.7290   14.5640 N   0  0  0  0  0  0  0  0  0  0  0  0
   25.3040   17.6030   14.7460 C   0  0  2  0  0  0  0  0  0  0  0  0
   25.7330   17.7000   16.2060 C   0  0  0  0  0  0  0  0  0  0  0  0
   26.9070   18.6590   16.3270 C   0  0  0  0  0  0  0  0  0  0  0  0
   26.5720   20.0130   15.7460 C   0  0  0  0  0  0  0  0  0  0  0  0
   27.0190   21.0570   16.2100 O   0  0  0  0  0  0  0  0  0  0  0  0
   25.7580   20.0240   14.6420 N   0  0  0  0  0  0  0  0  0  0  0  0
   24.9320   19.0010   14.2450 C   0  0  0  0  0  0  0  0  0  0  0  0
   23.9580   19.2090   13.5210 O   0  0  0  0  0  0  0  0  0  0  0  0
   22.5130   14.2900   12.9480 C   0  0  0  0  0  0  0  0  0  0  0  0
   23.0480   14.7020   11.7160 C   0  0  0  0  0  0  0  0  0  0  0  0
   21.4600   15.5570    6.8880 C   0  0  0  0  0  0  0  0  0  0  0  0
   20.3910   16.2710    6.6040 N   0  0  0  0  0  0  0  0  0  0  0  0
   18.8831   19.2843    8.7111 H   0  0  0  0  0  0  0  0  0  0  0  0
   19.7370   18.9604    7.1644 H   0  0  0  0  0  0  0  0  0  0  0  0
   17.9698   19.2823    7.1644 H   0  0  0  0  0  0  0  0  0  0  0  0
   18.0466   17.1600    8.8560 H   0  0  0  0  0  0  0  0  0  0  0  0
   17.8745   17.0115    7.0543 H   0  0  0  0  0  0  0  0  0  0  0  0
   20.2750   15.9878    9.9242 H   0  0  0  0  0  0  0  0  0  0  0  0
   20.6064   13.1444    9.7917 H   0  0  0  0  0  0  0  0  0  0  0  0
   19.6640   12.4421   12.0256 H   0  0  0  0  0  0  0  0  0  0  0  0
   23.2176   17.1491   14.4765 H   0  0  0  0  0  0  0  0  0  0  0  0
   26.1470   17.1808   14.1793 H   0  0  0  0  0  0  0  0  0  0  0  0
   24.8927   18.0710   16.8112 H   0  0  0  0  0  0  0  0  0  0  0  0
   26.0336   16.7052   16.5666 H   0  0  0  0  0  0  0  0  0  0  0  0
   27.1638   18.7787   17.3899 H   0  0  0  0  0  0  0  0  0  0  0  0
   27.7560   18.2410   15.7662 H   0  0  0  0  0  0  0  0  0  0  0  0
   25.7670   20.8737   14.0599 H   0  0  0  0  0  0  0  0  0  0  0  0
   23.9501   15.3245   11.6230 H   0  0  0  0  0  0  0  0  0  0  0  0
   22.1858   15.1922    6.1463 H   0  0  0  0  0  0  0  0  0  0  0  0
  1  2  1  0
  2  3  1  0
  3  4  2  0
  4  5  1  0
  5  6  1  0
  6  7  2  0
  6  8  2  0
  6  9  1  0
  9 10  1  0
 10 11  2  0
 11 12  1  0
 12 13  2  0
 13 14  1  0
 14 15  1  0
 15 16  1  0
 16 17  2  0
 16 18  1  0
 18 19  1  0
 19 20  1  0
 20 21  1  0
 21 22  1  0
 22 23  2  0
 22 24  1  0
 24 25  1  0
 25 26  2  0
 15 27  2  0
 27 28  1  0
  5 29  1  0
 29 30  2  0
 30  3  1  0
 28  9  2  0
 27 12  1  0
 25 19  1  0
  1 31  1  0
  1 32  1  0
  1 33  1  0
  2 34  1  0
  2 35  1  0
  4 36  1  0
 10 37  1  0
 11 38  1  0
 18 39  1  0
 19 40  1  6
 20 41  1  0
 20 42  1  0
 21 43  1  0
 21 44  1  0
 24 45  1  0
 28 46  1  0
 29 47  1  0
M  END
>  <meeko>  (1463) 
{"is_sidechain": [true], "free_energy": -10.02, "intermolecular_energy": 0.0, "internal_energy": -10.02, "cluster_size": 6, "cluster_id": 1, "rank_in_cluster": 1}

>  <_RMSD_MCS_to_ref>  (1463) 
0.9737794639673012

$$$$
ligand
     RDKit          3D

 46 49  0  0  0  0  0  0  0  0999 V2000
   18.7970   18.8170    7.7190 C   0  0  0  0  0  0  0  0  0  0  0  0
   18.5280   17.3290    7.8810 C   0  0  0  0  0  0  0  0  0  0  0  0
   19.6460   16.4970    7.3630 C   0  0  0  0  0  0  0  0  0  0  0  0
   20.3860   15.5310    8.0160 C   0  0  0  0  0  0  0  0  0  0  0  0
   21.2700   15.0890    7.0720 N   0  0  0  0  0  0  0  0  0  0  0  0
   22.5360   14.0110    7.3230 S   0  0  0  0  0  6  0  0  0  0  0  0
   22.0170   12.7230    6.8910 O   0  0  0  0  0  0  0  0  0  0  0  0
   23.6860   14.6400    6.6930 O   0  0  0  0  0  0  0  0  0  0  0  0
   22.7580   14.0000    9.0900 C   0  0  0  0  0  0  0  0  0  0  0  0
   21.9570   13.1460    9.7620 N   0  0  0  0  0  0  0  0  0  0  0  0
   22.0980   13.1040   11.1020 C   0  0  0  0  0  0  0  0  0  0  0  0
   23.0400   13.9210   11.7140 C   0  0  0  0  0  0  0  0  0  0  0  0
   23.4360   14.0800   13.3730 S   0  0  0  0  0  0  0  0  0  0  0  0
   24.6340   15.2640   13.0600 C   0  0  0  0  0  0  0  0  0  0  0  0
   25.4210   15.8810   14.1170 C   0  0  0  0  0  0  0  0  0  0  0  0
   25.9630   15.2310   15.0070 O   0  0  0  0  0  0  0  0  0  0  0  0
   25.5410   17.2520   14.0670 N   0  0  0  0  0  0  0  0  0  0  0  0
   26.4210   17.9860   14.9620 C   0  0  2  0  0  0  0  0  0  0  0  0
   25.9970   17.8620   16.4210 C   0  0  0  0  0  0  0  0  0  0  0  0
   26.9340   18.6840   17.2930 C   0  0  0  0  0  0  0  0  0  0  0  0
   26.9830   20.1240   16.8390 C   0  0  0  0  0  0  0  0  0  0  0  0
   27.1200   21.0580   17.6230 O   0  0  0  0  0  0  0  0  0  0  0  0
   26.8920   20.3470   15.4880 N   0  0  0  0  0  0  0  0  0  0  0  0
   26.3980   19.4630   14.5610 C   0  0  0  0  0  0  0  0  0  0  0  0
   25.9740   19.8510   13.4710 O   0  0  0  0  0  0  0  0  0  0  0  0
   24.7270   15.5300   11.7060 C   0  0  0  0  0  0  0  0  0  0  0  0
   23.8160   14.7650   10.9250 C   0  0  0  0  0  0  0  0  0  0  0  0
   23.6960   14.8270    9.5760 N   0  0  0  0  0  0  0  0  0  0  0  0
   21.0790   15.7880    5.9230 C   0  0  0  0  0  0  0  0  0  0  0  0
   20.0890   16.6460    6.0630 N   0  0  0  0  0  0  0  0  0  0  0  0
   18.8815   19.2845    8.7111 H   0  0  0  0  0  0  0  0  0  0  0  0
   19.7359   18.9616    7.1643 H   0  0  0  0  0  0  0  0  0  0  0  0
   17.9682   19.2812    7.1643 H   0  0  0  0  0  0  0  0  0  0  0  0
   18.3878   17.1085    8.9495 H   0  0  0  0  0  0  0  0  0  0  0  0
   17.6267   17.0834    7.3002 H   0  0  0  0  0  0  0  0  0  0  0  0
   20.2866   15.1941    9.0584 H   0  0  0  0  0  0  0  0  0  0  0  0
   21.4729   12.4291   11.7051 H   0  0  0  0  0  0  0  0  0  0  0  0
   24.9889   17.7750   13.3723 H   0  0  0  0  0  0  0  0  0  0  0  0
   27.4312   17.5600   14.8725 H   0  0  0  0  0  0  0  0  0  0  0  0
   24.9681   18.2336   16.5367 H   0  0  0  0  0  0  0  0  0  0  0  0
   26.0424   16.8066   16.7276 H   0  0  0  0  0  0  0  0  0  0  0  0
   26.5791   18.6481   18.3336 H   0  0  0  0  0  0  0  0  0  0  0  0
   27.9456   18.2596   17.2124 H   0  0  0  0  0  0  0  0  0  0  0  0
   27.2234   21.2576   15.1388 H   0  0  0  0  0  0  0  0  0  0  0  0
   25.4320   16.2574   11.2773 H   0  0  0  0  0  0  0  0  0  0  0  0
   21.6687   15.6561    5.0038 H   0  0  0  0  0  0  0  0  0  0  0  0
  1  2  1  0
  2  3  1  0
  3  4  2  0
  4  5  1  0
  5  6  1  0
  6  7  2  0
  6  8  2  0
  6  9  1  0
  9 10  2  0
 10 11  1  0
 11 12  2  0
 12 13  1  0
 13 14  1  0
 14 15  1  0
 15 16  2  0
 15 17  1  0
 17 18  1  0
 18 19  1  0
 19 20  1  0
 20 21  1  0
 21 22  2  0
 21 23  1  0
 23 24  1  0
 24 25  2  0
 14 26  2  0
 26 27  1  0
 27 28  2  0
  5 29  1  0
 29 30  2  0
 30  3  1  0
 28  9  1  0
 27 12  1  0
 24 18  1  0
  1 31  1  0
  1 32  1  0
  1 33  1  0
  2 34  1  0
  2 35  1  0
  4 36  1  0
 11 37  1  0
 17 38  1  0
 18 39  1  1
 19 40  1  0
 19 41  1  0
 20 42  1  0
 20 43  1  0
 23 44  1  0
 26 45  1  0
 29 46  1  0
M  END
>  <meeko>  (1464) 
{"is_sidechain": [true], "free_energy": -10.02, "intermolecular_energy": 0.0, "internal_energy": -10.02, "cluster_size": 14, "cluster_id": 1, "rank_in_cluster": 1}

>  <_RMSD_MCS_to_ref>  (1464) 
0.8593843403532807

$$$$
ligand
     RDKit          3D

 50 53  0  0  0  0  0  0  0  0999 V2000
   18.7970   18.8170    7.7190 C   0  0  0  0  0  0  0  0  0  0  0  0
   18.5280   17.3290    7.8810 C   0  0  0  0  0  0  0  0  0  0  0  0
   19.7760   16.5540    8.1200 C   0  0  0  0  0  0  0  0  0  0  0  0
   20.1400   15.8130    9.2270 C   0  0  0  0  0  0  0  0  0  0  0  0
   21.3830   15.3440    8.9180 N   0  0  0  0  0  0  0  0  0  0  0  0
   22.3610   14.3970    9.8960 S   0  0  0  0  0  6  0  0  0  0  0  0
   23.3450   15.2850   10.4770 O   0  0  0  0  0  0  0  0  0  0  0  0
   22.7220   13.2750    9.0510 O   0  0  0  0  0  0  0  0  0  0  0  0
   21.3410   13.7990   11.2130 C   0  0  0  0  0  0  0  0  0  0  0  0
   20.1220   13.1940   10.8620 C   0  0  0  0  0  0  0  0  0  0  0  0
   19.2770   12.6940   11.8490 C   0  0  0  0  0  0  0  0  0  0  0  0
   19.6450   12.7930   13.1870 C   0  0  0  0  0  0  0  0  0  0  0  0
   20.8630   13.3910   13.5330 C   0  0  0  0  0  0  0  0  0  0  0  0
   21.2390   13.5020   14.9510 C   0  0  0  0  0  0  0  0  0  0  0  0
   20.5350   13.0600   15.8480 O   0  0  0  0  0  0  0  0  0  0  0  0
   22.4980   14.1920   15.2440 C   0  0  0  0  0  0  0  0  0  0  0  0
   23.2490   14.6300   14.2250 C   0  0  0  0  0  0  0  0  0  0  0  0
   24.5050   15.3650   14.5850 C   0  0  0  0  0  0  0  0  0  0  0  0
   25.5310   14.7930   14.9320 O   0  0  0  0  0  0  0  0  0  0  0  0
   24.3960   16.7240   14.4990 N   0  0  0  0  0  0  0  0  0  0  0  0
   25.4880   17.6260   14.8260 C   0  0  2  0  0  0  0  0  0  0  0  0
   25.7730   17.6620   16.3240 C   0  0  0  0  0  0  0  0  0  0  0  0
   26.8880   18.6540   16.6080 C   0  0  0  0  0  0  0  0  0  0  0  0
   26.5520   20.0260   16.0730 C   0  0  0  0  0  0  0  0  0  0  0  0
   26.9470   21.0570   16.6110 O   0  0  0  0  0  0  0  0  0  0  0  0
   25.8160   20.0710   14.9160 N   0  0  0  0  0  0  0  0  0  0  0  0
   25.1190   19.0350   14.3470 C   0  0  0  0  0  0  0  0  0  0  0  0
   24.2680   19.2420   13.4800 O   0  0  0  0  0  0  0  0  0  0  0  0
   22.9290   14.4720   12.8820 O   0  0  0  0  0  0  0  0  0  0  0  0
   21.7250   13.8970   12.5540 C   0  0  0  0  0  0  0  0  0  0  0  0
   21.6930   15.7040    7.6470 C   0  0  0  0  0  0  0  0  0  0  0  0
   20.7630   16.4950    7.1540 N   0  0  0  0  0  0  0  0  0  0  0  0
   18.8815   19.2845    8.7111 H   0  0  0  0  0  0  0  0  0  0  0  0
   19.7359   18.9616    7.1643 H   0  0  0  0  0  0  0  0  0  0  0  0
   17.9682   19.2812    7.1643 H   0  0  0  0  0  0  0  0  0  0  0  0
   17.8511   17.1825    8.7356 H   0  0  0  0  0  0  0  0  0  0  0  0
   18.0779   16.9638    6.9461 H   0  0  0  0  0  0  0  0  0  0  0  0
   19.5609   15.6407   10.1462 H   0  0  0  0  0  0  0  0  0  0  0  0
   19.8344   13.1152    9.8032 H   0  0  0  0  0  0  0  0  0  0  0  0
   18.3224   12.2227   11.5721 H   0  0  0  0  0  0  0  0  0  0  0  0
   18.9804   12.4023   13.9716 H   0  0  0  0  0  0  0  0  0  0  0  0
   22.8212   14.3478   16.2839 H   0  0  0  0  0  0  0  0  0  0  0  0
   23.5005   17.1273   14.1887 H   0  0  0  0  0  0  0  0  0  0  0  0
   26.3967   17.2625   14.3240 H   0  0  0  0  0  0  0  0  0  0  0  0
   24.8641   17.9692   16.8621 H   0  0  0  0  0  0  0  0  0  0  0  0
   26.0805   16.6611   16.6611 H   0  0  0  0  0  0  0  0  0  0  0  0
   27.0397   18.7208   17.6954 H   0  0  0  0  0  0  0  0  0  0  0  0
   27.8021   18.3010   16.1083 H   0  0  0  0  0  0  0  0  0  0  0  0
   25.7833   20.9753   14.4240 H   0  0  0  0  0  0  0  0  0  0  0  0
   22.5940   15.3807    7.1051 H   0  0  0  0  0  0  0  0  0  0  0  0
  1  2  1  0
  2  3  1  0
  3  4  2  0
  4  5  1  0
  5  6  1  0
  6  7  2  0
  6  8  2  0
  6  9  1  0
  9 10  2  0
 10 11  1  0
 11 12  2  0
 12 13  1  0
 13 14  1  0
 14 15  2  0
 14 16  1  0
 16 17  2  0
 17 18  1  0
 18 19  2  0
 18 20  1  0
 20 21  1  0
 21 22  1  0
 22 23  1  0
 23 24  1  0
 24 25  2  0
 24 26  1  0
 26 27  1  0
 27 28  2  0
 17 29  1  0
 29 30  1  0
  5 31  1  0
 31 32  2  0
 32  3  1  0
 30  9  1  0
 30 13  2  0
 27 21  1  0
  1 33  1  0
  1 34  1  0
  1 35  1  0
  2 36  1  0
  2 37  1  0
  4 38  1  0
 10 39  1  0
 11 40  1  0
 12 41  1  0
 16 42  1  0
 20 43  1  0
 21 44  1  6
 22 45  1  0
 22 46  1  0
 23 47  1  0
 23 48  1  0
 26 49  1  0
 31 50  1  0
M  END
>  <meeko>  (1465) 
{"is_sidechain": [true], "free_energy": -10.02, "intermolecular_energy": 0.0, "internal_energy": -10.02, "cluster_size": 19, "cluster_id": 1, "rank_in_cluster": 1}

>  <_RMSD_MCS_to_ref>  (1465) 
0.7981490392707922

$$$$
ligand
     RDKit          3D

 47 50  0  0  0  0  0  0  0  0999 V2000
   18.7970   18.8170    7.7190 C   0  0  0  0  0  0  0  0  0  0  0  0
   18.5280   17.3290    7.8810 C   0  0  0  0  0  0  0  0  0  0  0  0
   19.6150   16.4960    7.2980 C   0  0  0  0  0  0  0  0  0  0  0  0
   20.5740   15.7420    7.9450 C   0  0  0  0  0  0  0  0  0  0  0  0
   21.2990   15.1810    6.9330 N   0  0  0  0  0  0  0  0  0  0  0  0
   22.7560   14.3510    7.1030 S   0  0  0  0  0  6  0  0  0  0  0  0
   23.7420   15.2340    6.5060 O   0  0  0  0  0  0  0  0  0  0  0  0
   22.4980   13.0410    6.5350 O   0  0  0  0  0  0  0  0  0  0  0  0
   23.0900   14.1820    8.7880 C   0  0  0  0  0  0  0  0  0  0  0  0
   23.8590   15.0950    9.3990 C   0  0  0  0  0  0  0  0  0  0  0  0
   24.0750   14.8360   10.7360 N   0  0  0  0  0  0  0  0  0  0  0  0
   24.8240   15.6270   11.5800 C   0  0  0  0  0  0  0  0  0  0  0  0
   25.3800   16.6660   11.2290 O   0  0  0  0  0  0  0  0  0  0  0  0
   24.9170   15.1370   12.9810 C   0  0  0  0  0  0  0  0  0  0  0  0
   25.6760   15.8190   14.0660 C   0  0  0  0  0  0  0  0  0  0  0  0
   26.1610   15.1950   15.0060 O   0  0  0  0  0  0  0  0  0  0  0  0
   25.8030   17.1770   13.9500 N   0  0  0  0  0  0  0  0  0  0  0  0
   26.5810   17.9650   14.8920 C   0  0  2  0  0  0  0  0  0  0  0  0
   26.0630   17.8110   16.3180 C   0  0  0  0  0  0  0  0  0  0  0  0
   26.9010   18.6630   17.2590 C   0  0  0  0  0  0  0  0  0  0  0  0
   26.9170   20.1080   16.8220 C   0  0  0  0  0  0  0  0  0  0  0  0
   26.9790   21.0370   17.6230 O   0  0  0  0  0  0  0  0  0  0  0  0
   26.8920   20.3420   15.4710 N   0  0  0  0  0  0  0  0  0  0  0  0
   26.5290   19.4440   14.4950 C   0  0  0  0  0  0  0  0  0  0  0  0
   26.2080   19.8300   13.3730 O   0  0  0  0  0  0  0  0  0  0  0  0
   24.2660   13.9970   13.2770 C   0  0  0  0  0  0  0  0  0  0  0  0
   23.5240   13.2390   12.3990 N   0  0  0  0  0  0  0  0  0  0  0  0
   23.4690   13.6890   11.1950 C   0  0  0  0  0  0  0  0  0  0  0  0
   22.5970   12.9190    9.8840 S   0  0  0  0  0  0  0  0  0  0  0  0
   20.8190   15.6260    5.7420 C   0  0  0  0  0  0  0  0  0  0  0  0
   19.7850   16.4190    5.9290 N   0  0  0  0  0  0  0  0  0  0  0  0
   18.8815   19.2845    8.7111 H   0  0  0  0  0  0  0  0  0  0  0  0
   19.7359   18.9616    7.1643 H   0  0  0  0  0  0  0  0  0  0  0  0
   17.9682   19.2812    7.1643 H   0  0  0  0  0  0  0  0  0  0  0  0
   18.4414   17.0990    8.9532 H   0  0  0  0  0  0  0  0  0  0  0  0
   17.5966   17.0932    7.3453 H   0  0  0  0  0  0  0  0  0  0  0  0
   20.7205   15.6209    9.0285 H   0  0  0  0  0  0  0  0  0  0  0  0
   24.2789   15.9700    8.8813 H   0  0  0  0  0  0  0  0  0  0  0  0
   25.3318   17.6564   13.1696 H   0  0  0  0  0  0  0  0  0  0  0  0
   27.6173   17.5975   14.8600 H   0  0  0  0  0  0  0  0  0  0  0  0
   25.0138   18.1383   16.3639 H   0  0  0  0  0  0  0  0  0  0  0  0
   26.1325   16.7557   16.6204 H   0  0  0  0  0  0  0  0  0  0  0  0
   26.4780   18.5997   18.2724 H   0  0  0  0  0  0  0  0  0  0  0  0
   27.9336   18.2841   17.2443 H   0  0  0  0  0  0  0  0  0  0  0  0
   27.1724   21.2820   15.1568 H   0  0  0  0  0  0  0  0  0  0  0  0
   24.3327   13.6381   14.3147 H   0  0  0  0  0  0  0  0  0  0  0  0
   21.2361   15.3607    4.7593 H   0  0  0  0  0  0  0  0  0  0  0  0
  1  2  1  0
  2  3  1  0
  3  4  2  0
  4  5  1  0
  5  6  1  0
  6  7  2  0
  6  8  2  0
  6  9  1  0
  9 10  2  0
 10 11  1  0
 11 12  1  0
 12 13  2  0
 12 14  1  0
 14 15  1  0
 15 16  2  0
 15 17  1  0
 17 18  1  0
 18 19  1  0
 19 20  1  0
 20 21  1  0
 21 22  2  0
 21 23  1  0
 23 24  1  0
 24 25  2  0
 14 26  2  0
 26 27  1  0
 27 28  2  0
 28 29  1  0
  5 30  1  0
 30 31  2  0
 31  3  1  0
 29  9  1  0
 28 11  1  0
 24 18  1  0
  1 32  1  0
  1 33  1  0
  1 34  1  0
  2 35  1  0
  2 36  1  0
  4 37  1  0
 10 38  1  0
 17 39  1  0
 18 40  1  1
 19 41  1  0
 19 42  1  0
 20 43  1  0
 20 44  1  0
 23 45  1  0
 26 46  1  0
 30 47  1  0
M  END
>  <meeko>  (1466) 
{"is_sidechain": [true], "free_energy": -10.02, "intermolecular_energy": 0.0, "internal_energy": -10.02, "cluster_size": 20, "cluster_id": 1, "rank_in_cluster": 1}

>  <_RMSD_MCS_to_ref>  (1466) 
0.9672342012149898

$$$$
ligand
     RDKit          3D

 47 50  0  0  0  0  0  0  0  0999 V2000
   18.9090   19.1540    7.5370 C   0  0  0  0  0  0  0  0  0  0  0  0
   18.7730   17.6460    7.6780 C   0  0  0  0  0  0  0  0  0  0  0  0
   20.0880   16.9720    7.8560 C   0  0  0  0  0  0  0  0  0  0  0  0
   20.6550   16.4750    9.0140 C   0  0  0  0  0  0  0  0  0  0  0  0
   21.8580   15.9700    8.6090 N   0  0  0  0  0  0  0  0  0  0  0  0
   23.0520   15.3260    9.6000 S   0  0  0  0  0  6  0  0  0  0  0  0
   23.9670   16.4160    9.8780 O   0  0  0  0  0  0  0  0  0  0  0  0
   23.4890   14.1260    8.9060 O   0  0  0  0  0  0  0  0  0  0  0  0
   22.3750   14.8070   11.1450 C   0  0  0  0  0  0  0  0  0  0  0  0
   21.4660   13.7390   11.1000 C   0  0  0  0  0  0  0  0  0  0  0  0
   20.9170   13.2560   12.2790 C   0  0  0  0  0  0  0  0  0  0  0  0
   21.2820   13.8400   13.4890 C   0  0  0  0  0  0  0  0  0  0  0  0
   22.1810   14.8970   13.5420 C   0  0  0  0  0  0  0  0  0  0  0  0
   22.4920   15.4210   14.7400 N   0  0  0  0  0  0  0  0  0  0  0  0
   23.3530   16.4700   14.7430 C   0  0  0  0  0  0  0  0  0  0  0  0
   23.9180   16.9780   13.5870 C   0  0  0  0  0  0  0  0  0  0  0  0
   24.7790   18.0660   13.5210 N   0  0  0  0  0  0  0  0  0  0  0  0
   24.9870   18.7940   14.7840 C   0  0  1  0  0  0  0  0  0  0  0  0
   26.0530   18.0500   15.5980 C   0  0  0  0  0  0  0  0  0  0  0  0
   26.3590   18.8080   16.8770 C   0  0  0  0  0  0  0  0  0  0  0  0
   26.8220   20.2120   16.5750 C   0  0  0  0  0  0  0  0  0  0  0  0
   27.5030   20.8620   17.3620 O   0  0  0  0  0  0  0  0  0  0  0  0
   26.3740   20.7620   15.4020 N   0  0  0  0  0  0  0  0  0  0  0  0
   25.4560   20.2400   14.5200 C   0  0  0  0  0  0  0  0  0  0  0  0
   25.0050   20.9540   13.6260 O   0  0  0  0  0  0  0  0  0  0  0  0
   23.6160   16.4280   12.3980 N   0  0  0  0  0  0  0  0  0  0  0  0
   22.7450   15.4020   12.3470 C   0  0  0  0  0  0  0  0  0  0  0  0
   21.9800   16.1400    7.2640 C   0  0  0  0  0  0  0  0  0  0  0  0
   20.9350   16.7810    6.7770 N   0  0  0  0  0  0  0  0  0  0  0  0
   18.9504   19.6134    8.5356 H   0  0  0  0  0  0  0  0  0  0  0  0
   19.8320   19.3891    6.9867 H   0  0  0  0  0  0  0  0  0  0  0  0
   18.0430   19.5504    6.9867 H   0  0  0  0  0  0  0  0  0  0  0  0
   18.1432   17.4284    8.5532 H   0  0  0  0  0  0  0  0  0  0  0  0
   18.3219   17.2618    6.7513 H   0  0  0  0  0  0  0  0  0  0  0  0
   20.2338   16.4840   10.0301 H   0  0  0  0  0  0  0  0  0  0  0  0
   21.1903   13.2874   10.1356 H   0  0  0  0  0  0  0  0  0  0  0  0
   20.2013   12.4209   12.2580 H   0  0  0  0  0  0  0  0  0  0  0  0
   20.8485   13.4555   14.4240 H   0  0  0  0  0  0  0  0  0  0  0  0
   23.6125   16.9359   15.7051 H   0  0  0  0  0  0  0  0  0  0  0  0
   25.2423   18.3457   12.6447 H   0  0  0  0  0  0  0  0  0  0  0  0
   24.0366   18.8408   15.3359 H   0  0  0  0  0  0  0  0  0  0  0  0
   25.6821   17.0457   15.8506 H   0  0  0  0  0  0  0  0  0  0  0  0
   26.9721   17.9709   14.9988 H   0  0  0  0  0  0  0  0  0  0  0  0
   25.4498   18.8539   17.4944 H   0  0  0  0  0  0  0  0  0  0  0  0
   27.1623   18.2814   17.4132 H   0  0  0  0  0  0  0  0  0  0  0  0
   26.7732   21.6775   15.1502 H   0  0  0  0  0  0  0  0  0  0  0  0
   22.8337   15.7905    6.6648 H   0  0  0  0  0  0  0  0  0  0  0  0
  1  2  1  0
  2  3  1  0
  3  4  2  0
  4  5  1  0
  5  6  1  0
  6  7  2  0
  6  8  2  0
  6  9  1  0
  9 10  2  0
 10 11  1  0
 11 12  2  0
 12 13  1  0
 13 14  2  0
 14 15  1  0
 15 16  2  0
 16 17  1  0
 17 18  1  0
 18 19  1  0
 19 20  1  0
 20 21  1  0
 21 22  2  0
 21 23  1  0
 23 24  1  0
 24 25  2  0
 16 26  1  0
 26 27  2  0
  5 28  1  0
 28 29  2  0
 29  3  1  0
 27  9  1  0
 27 13  1  0
 24 18  1  0
  1 30  1  0
  1 31  1  0
  1 32  1  0
  2 33  1  0
  2 34  1  0
  4 35  1  0
 10 36  1  0
 11 37  1  0
 12 38  1  0
 15 39  1  0
 17 40  1  0
 18 41  1  1
 19 42  1  0
 19 43  1  0
 20 44  1  0
 20 45  1  0
 23 46  1  0
 28 47  1  0
M  END
>  <meeko>  (1467) 
{"is_sidechain": [true], "free_energy": -10.02, "intermolecular_energy": 0.0, "internal_energy": -10.02, "cluster_size": 17, "cluster_id": 1, "rank_in_cluster": 1}

>  <_RMSD_MCS_to_ref>  (1467) 
0.5065833264791354

$$$$
ligand
     RDKit          3D

 48 51  0  0  0  0  0  0  0  0999 V2000
   18.9090   19.1540    7.5370 C   0  0  0  0  0  0  0  0  0  0  0  0
   18.7730   17.6460    7.6780 C   0  0  0  0  0  0  0  0  0  0  0  0
   19.9750   16.9250    7.1780 C   0  0  0  0  0  0  0  0  0  0  0  0
   20.9920   16.3290    7.8980 C   0  0  0  0  0  0  0  0  0  0  0  0
   21.8170   15.8090    6.9440 N   0  0  0  0  0  0  0  0  0  0  0  0
   23.3430   15.1560    7.2090 S   0  0  0  0  0  6  0  0  0  0  0  0
   23.2500   13.7580    6.8390 O   0  0  0  0  0  0  0  0  0  0  0  0
   24.2770   16.0670    6.5750 O   0  0  0  0  0  0  0  0  0  0  0  0
   23.5420   15.2670    8.9750 C   0  0  0  0  0  0  0  0  0  0  0  0
   24.2260   16.4040    9.5140 C   0  0  0  0  0  0  0  0  0  0  0  0
   24.4400   16.6000   10.8950 C   0  0  0  0  0  0  0  0  0  0  0  0
   23.9210   15.5480   11.6550 C   0  0  0  0  0  0  0  0  0  0  0  0
   23.9520   15.4080   13.0250 C   0  0  0  0  0  0  0  0  0  0  0  0
   24.5050   16.1390   14.1300 C   0  0  0  0  0  0  0  0  0  0  0  0
   24.9520   15.5790   15.1260 O   0  0  0  0  0  0  0  0  0  0  0  0
   24.5630   17.4990   13.9820 N   0  0  0  0  0  0  0  0  0  0  0  0
   25.0090   18.3840   15.0460 C   0  0  1  0  0  0  0  0  0  0  0  0
   26.2310   17.8390   15.7770 C   0  0  0  0  0  0  0  0  0  0  0  0
   26.6610   18.8300   16.8470 C   0  0  0  0  0  0  0  0  0  0  0  0
   26.9140   20.1990   16.2580 C   0  0  0  0  0  0  0  0  0  0  0  0
   27.7910   20.9460   16.6810 O   0  0  0  0  0  0  0  0  0  0  0  0
   26.0930   20.5870   15.2300 N   0  0  0  0  0  0  0  0  0  0  0  0
   25.3640   19.7420   14.4320 C   0  0  0  0  0  0  0  0  0  0  0  0
   25.0240   20.0700   13.2950 O   0  0  0  0  0  0  0  0  0  0  0  0
   23.2130   14.2730   13.2530 N   0  0  0  0  0  0  0  0  0  0  0  0
   22.8100   13.6200   12.1490 N   0  0  0  0  0  0  0  0  0  0  0  0
   23.2130   14.3950   11.1330 C   0  0  0  0  0  0  0  0  0  0  0  0
   23.0170   14.2150    9.7560 C   0  0  0  0  0  0  0  0  0  0  0  0
   21.3320   16.1230    5.7150 C   0  0  0  0  0  0  0  0  0  0  0  0
   20.2040   16.7940    5.8220 N   0  0  0  0  0  0  0  0  0  0  0  0
   18.9504   19.6134    8.5356 H   0  0  0  0  0  0  0  0  0  0  0  0
   19.8320   19.3891    6.9867 H   0  0  0  0  0  0  0  0  0  0  0  0
   18.0430   19.5504    6.9867 H   0  0  0  0  0  0  0  0  0  0  0  0
   18.6292   17.4009    8.7407 H   0  0  0  0  0  0  0  0  0  0  0  0
   17.9112   17.3262    7.0738 H   0  0  0  0  0  0  0  0  0  0  0  0
   21.1098   16.2839    8.9907 H   0  0  0  0  0  0  0  0  0  0  0  0
   24.6044   17.1643    8.8149 H   0  0  0  0  0  0  0  0  0  0  0  0
   24.9530   17.4746   11.3216 H   0  0  0  0  0  0  0  0  0  0  0  0
   24.2796   17.9113   13.0817 H   0  0  0  0  0  0  0  0  0  0  0  0
   24.1937   18.4735   15.7790 H   0  0  0  0  0  0  0  0  0  0  0  0
   25.9789   16.8771   16.2473 H   0  0  0  0  0  0  0  0  0  0  0  0
   27.0527   17.6910   15.0608 H   0  0  0  0  0  0  0  0  0  0  0  0
   25.8667   18.9069   17.6041 H   0  0  0  0  0  0  0  0  0  0  0  0
   27.5962   18.4684   17.2993 H   0  0  0  0  0  0  0  0  0  0  0  0
   26.0175   21.5968   15.0415 H   0  0  0  0  0  0  0  0  0  0  0  0
   22.9838   13.9454   14.2022 H   0  0  0  0  0  0  0  0  0  0  0  0
   22.5050   13.3409    9.3273 H   0  0  0  0  0  0  0  0  0  0  0  0
   21.8139   15.8544    4.7634 H   0  0  0  0  0  0  0  0  0  0  0  0
  1  2  1  0
  2  3  1  0
  3  4  2  0
  4  5  1  0
  5  6  1  0
  6  7  2  0
  6  8  2  0
  6  9  1  0
  9 10  1  0
 10 11  2  0
 11 12  1  0
 12 13  2  0
 13 14  1  0
 14 15  2  0
 14 16  1  0
 16 17  1  0
 17 18  1  0
 18 19  1  0
 19 20  1  0
 20 21  2  0
 20 22  1  0
 22 23  1  0
 23 24  2  0
 13 25  1  0
 25 26  1  0
 26 27  2  0
 27 28  1  0
  5 29  1  0
 29 30  2  0
 30  3  1  0
 28  9  2  0
 27 12  1  0
 23 17  1  0
  1 31  1  0
  1 32  1  0
  1 33  1  0
  2 34  1  0
  2 35  1  0
  4 36  1  0
 10 37  1  0
 11 38  1  0
 16 39  1  0
 17 40  1  1
 18 41  1  0
 18 42  1  0
 19 43  1  0
 19 44  1  0
 22 45  1  0
 25 46  1  0
 28 47  1  0
 29 48  1  0
M  END
>  <meeko>  (1468) 
{"is_sidechain": [true], "free_energy": -10.02, "intermolecular_energy": 0.0, "internal_energy": -10.02, "cluster_size": 17, "cluster_id": 1, "rank_in_cluster": 1}

>  <_RMSD_MCS_to_ref>  (1468) 
0.41739789170526526

$$$$
ligand
     RDKit          3D

 48 51  0  0  0  0  0  0  0  0999 V2000
   18.9090   19.1540    7.5370 C   0  0  0  0  0  0  0  0  0  0  0  0
   18.7730   17.6460    7.6780 C   0  0  0  0  0  0  0  0  0  0  0  0
   20.0080   16.9290    7.2610 C   0  0  0  0  0  0  0  0  0  0  0  0
   20.5920   15.8110    7.8210 C   0  0  0  0  0  0  0  0  0  0  0  0
   21.6960   15.5890    7.0550 N   0  0  0  0  0  0  0  0  0  0  0  0
   22.8820   14.4320    7.2880 S   0  0  0  0  0  6  0  0  0  0  0  0
   24.1260   15.0940    6.9420 O   0  0  0  0  0  0  0  0  0  0  0  0
   22.4460   13.2130    6.6360 O   0  0  0  0  0  0  0  0  0  0  0  0
   22.9830   14.0570    8.9910 C   0  0  0  0  0  0  0  0  0  0  0  0
   22.4920   12.9180    9.5360 N   0  0  0  0  0  0  0  0  0  0  0  0
   22.7210   13.0550   10.8570 N   0  0  0  0  0  0  0  0  0  0  0  0
   23.3720   14.2100   11.1490 C   0  0  0  0  0  0  0  0  0  0  0  0
   23.7610   14.6580   12.3590 N   0  0  0  0  0  0  0  0  0  0  0  0
   24.3550   15.9220   12.4170 C   0  0  0  0  0  0  0  0  0  0  0  0
   24.7550   16.5020   13.7450 C   0  0  0  0  0  0  0  0  0  0  0  0
   24.7760   15.8460   14.7770 O   0  0  0  0  0  0  0  0  0  0  0  0
   25.0640   17.8420   13.6840 N   0  0  0  0  0  0  0  0  0  0  0  0
   25.2860   18.6130   14.9010 C   0  0  1  0  0  0  0  0  0  0  0  0
   26.3310   17.9780   15.8130 C   0  0  0  0  0  0  0  0  0  0  0  0
   26.5500   18.8680   17.0280 C   0  0  0  0  0  0  0  0  0  0  0  0
   26.9360   20.2700   16.6170 C   0  0  0  0  0  0  0  0  0  0  0  0
   27.7190   20.9550   17.2680 O   0  0  0  0  0  0  0  0  0  0  0  0
   26.3460   20.7630   15.4810 N   0  0  0  0  0  0  0  0  0  0  0  0
   25.7670   20.0090   14.4920 C   0  0  0  0  0  0  0  0  0  0  0  0
   25.6390   20.4400   13.3450 O   0  0  0  0  0  0  0  0  0  0  0  0
   24.6000   16.6730   11.3220 C   0  0  0  0  0  0  0  0  0  0  0  0
   24.2430   16.1620    9.9610 C   0  0  0  0  0  0  0  0  0  0  0  0
   24.5350   16.7770    8.9480 O   0  0  0  0  0  0  0  0  0  0  0  0
   23.5700   14.8840    9.9710 C   0  0  0  0  0  0  0  0  0  0  0  0
   21.7570   16.5300    6.0770 C   0  0  0  0  0  0  0  0  0  0  0  0
   20.7480   17.3700    6.1790 N   0  0  0  0  0  0  0  0  0  0  0  0
   18.9504   19.6134    8.5356 H   0  0  0  0  0  0  0  0  0  0  0  0
   19.8320   19.3891    6.9867 H   0  0  0  0  0  0  0  0  0  0  0  0
   18.0430   19.5504    6.9867 H   0  0  0  0  0  0  0  0  0  0  0  0
   18.5625   17.4062    8.7307 H   0  0  0  0  0  0  0  0  0  0  0  0
   17.9539   17.3179    7.0211 H   0  0  0  0  0  0  0  0  0  0  0  0
   20.2447   15.2310    8.6888 H   0  0  0  0  0  0  0  0  0  0  0  0
   22.4349   12.3628   11.5640 H   0  0  0  0  0  0  0  0  0  0  0  0
   23.6259   14.0910   13.2082 H   0  0  0  0  0  0  0  0  0  0  0  0
   25.1393   18.3055   12.7673 H   0  0  0  0  0  0  0  0  0  0  0  0
   24.3413   18.6510   15.4633 H   0  0  0  0  0  0  0  0  0  0  0  0
   25.9790   16.9889   16.1414 H   0  0  0  0  0  0  0  0  0  0  0  0
   27.2778   17.8660   15.2644 H   0  0  0  0  0  0  0  0  0  0  0  0
   25.6203   18.9093   17.6145 H   0  0  0  0  0  0  0  0  0  0  0  0
   27.3687   18.4433   17.6274 H   0  0  0  0  0  0  0  0  0  0  0  0
   26.3369   21.7859   15.3604 H   0  0  0  0  0  0  0  0  0  0  0  0
   25.0639   17.6645   11.4305 H   0  0  0  0  0  0  0  0  0  0  0  0
   22.5405   16.5829    5.3068 H   0  0  0  0  0  0  0  0  0  0  0  0
  1  2  1  0
  2  3  1  0
  3  4  2  0
  4  5  1  0
  5  6  1  0
  6  7  2  0
  6  8  2  0
  6  9  1  0
  9 10  2  0
 10 11  1  0
 11 12  1  0
 12 13  1  0
 13 14  1  0
 14 15  1  0
 15 16  2  0
 15 17  1  0
 17 18  1  0
 18 19  1  0
 19 20  1  0
 20 21  1  0
 21 22  2  0
 21 23  1  0
 23 24  1  0
 24 25  2  0
 14 26  2  0
 26 27  1  0
 27 28  2  0
 27 29  1  0
  5 30  1  0
 30 31  2  0
 31  3  1  0
 29  9  1  0
 29 12  2  0
 24 18  1  0
  1 32  1  0
  1 33  1  0
  1 34  1  0
  2 35  1  0
  2 36  1  0
  4 37  1  0
 11 38  1  0
 13 39  1  0
 17 40  1  0
 18 41  1  1
 19 42  1  0
 19 43  1  0
 20 44  1  0
 20 45  1  0
 23 46  1  0
 26 47  1  0
 30 48  1  0
M  END
>  <meeko>  (1469) 
{"is_sidechain": [true], "free_energy": -10.02, "intermolecular_energy": 0.0, "internal_energy": -10.02, "cluster_size": 13, "cluster_id": 2, "rank_in_cluster": 1}

>  <_RMSD_MCS_to_ref>  (1469) 
0.6040890294944574

$$$$
ligand
     RDKit          3D

 47 50  0  0  0  0  0  0  0  0999 V2000
   18.9090   19.1540    7.5370 C   0  0  0  0  0  0  0  0  0  0  0  0
   18.7730   17.6460    7.6780 C   0  0  0  0  0  0  0  0  0  0  0  0
   19.8440   16.9150    6.9480 C   0  0  0  0  0  0  0  0  0  0  0  0
   21.0510   16.4380    7.4240 C   0  0  0  0  0  0  0  0  0  0  0  0
   21.6440   15.8780    6.3280 N   0  0  0  0  0  0  0  0  0  0  0  0
   23.0360   14.9370    6.3380 S   0  0  0  0  0  6  0  0  0  0  0  0
   22.6430   13.6460    5.8080 O   0  0  0  0  0  0  0  0  0  0  0  0
   24.0670   15.7490    5.7230 O   0  0  0  0  0  0  0  0  0  0  0  0
   23.4040   14.7580    8.0450 C   0  0  0  0  0  0  0  0  0  0  0  0
   23.3600   13.5010    8.6180 C   0  0  0  0  0  0  0  0  0  0  0  0
   23.6330   13.2410    9.9140 N   0  0  0  0  0  0  0  0  0  0  0  0
   23.9410   14.3310   10.6480 C   0  0  0  0  0  0  0  0  0  0  0  0
   24.3080   14.1920   12.3020 S   0  0  0  0  0  0  0  0  0  0  0  0
   24.5500   15.8790   12.4670 C   0  0  0  0  0  0  0  0  0  0  0  0
   24.9160   16.4970   13.7320 C   0  0  0  0  0  0  0  0  0  0  0  0
   25.0680   15.8500   14.7670 O   0  0  0  0  0  0  0  0  0  0  0  0
   25.0770   17.8640   13.7200 N   0  0  0  0  0  0  0  0  0  0  0  0
   25.2970   18.6290   14.9360 C   0  0  1  0  0  0  0  0  0  0  0  0
   26.3440   17.9870   15.8400 C   0  0  0  0  0  0  0  0  0  0  0  0
   26.5490   18.8510   17.0730 C   0  0  0  0  0  0  0  0  0  0  0  0
   26.9210   20.2670   16.6960 C   0  0  0  0  0  0  0  0  0  0  0  0
   27.6790   20.9510   17.3770 O   0  0  0  0  0  0  0  0  0  0  0  0
   26.3440   20.7710   15.5590 N   0  0  0  0  0  0  0  0  0  0  0  0
   25.7650   20.0370   14.5540 C   0  0  0  0  0  0  0  0  0  0  0  0
   25.6260   20.5020   13.4240 O   0  0  0  0  0  0  0  0  0  0  0  0
   24.3510   16.5300   11.2610 C   0  0  0  0  0  0  0  0  0  0  0  0
   23.9990   15.6460   10.1940 C   0  0  0  0  0  0  0  0  0  0  0  0
   23.7140   15.8690    8.8310 C   0  0  0  0  0  0  0  0  0  0  0  0
   20.8040   15.9780    5.2670 C   0  0  0  0  0  0  0  0  0  0  0  0
   19.7020   16.6120    5.6080 N   0  0  0  0  0  0  0  0  0  0  0  0
   18.9504   19.6134    8.5356 H   0  0  0  0  0  0  0  0  0  0  0  0
   19.8320   19.3891    6.9867 H   0  0  0  0  0  0  0  0  0  0  0  0
   18.0430   19.5504    6.9867 H   0  0  0  0  0  0  0  0  0  0  0  0
   18.8285   17.3834    8.7447 H   0  0  0  0  0  0  0  0  0  0  0  0
   17.8063   17.3517    7.2434 H   0  0  0  0  0  0  0  0  0  0  0  0
   21.4438   16.4960    8.4498 H   0  0  0  0  0  0  0  0  0  0  0  0
   23.0833   12.6539    7.9732 H   0  0  0  0  0  0  0  0  0  0  0  0
   25.0403   18.3615   12.8189 H   0  0  0  0  0  0  0  0  0  0  0  0
   24.3486   18.6610   15.4924 H   0  0  0  0  0  0  0  0  0  0  0  0
   26.0009   16.9876   16.1458 H   0  0  0  0  0  0  0  0  0  0  0  0
   27.2944   17.8978   15.2934 H   0  0  0  0  0  0  0  0  0  0  0  0
   25.6170   18.8688   17.6570 H   0  0  0  0  0  0  0  0  0  0  0  0
   27.3710   18.4220   17.6648 H   0  0  0  0  0  0  0  0  0  0  0  0
   26.3451   21.7951   15.4488 H   0  0  0  0  0  0  0  0  0  0  0  0
   24.4535   17.6181   11.1365 H   0  0  0  0  0  0  0  0  0  0  0  0
   23.7352   16.8820    8.4027 H   0  0  0  0  0  0  0  0  0  0  0  0
   21.0147   15.5841    4.2618 H   0  0  0  0  0  0  0  0  0  0  0  0
  1  2  1  0
  2  3  1  0
  3  4  2  0
  4  5  1  0
  5  6  1  0
  6  7  2  0
  6  8  2  0
  6  9  1  0
  9 10  2  0
 10 11  1  0
 11 12  2  0
 12 13  1  0
 13 14  1  0
 14 15  1  0
 15 16  2  0
 15 17  1  0
 17 18  1  0
 18 19  1  0
 19 20  1  0
 20 21  1  0
 21 22  2  0
 21 23  1  0
 23 24  1  0
 24 25  2  0
 14 26  2  0
 26 27  1  0
 27 28  2  0
  5 29  1  0
 29 30  2  0
 30  3  1  0
 28  9  1  0
 27 12  1  0
 24 18  1  0
  1 31  1  0
  1 32  1  0
  1 33  1  0
  2 34  1  0
  2 35  1  0
  4 36  1  0
 10 37  1  0
 17 38  1  0
 18 39  1  1
 19 40  1  0
 19 41  1  0
 20 42  1  0
 20 43  1  0
 23 44  1  0
 26 45  1  0
 28 46  1  0
 29 47  1  0
M  END
>  <meeko>  (1470) 
{"is_sidechain": [true], "free_energy": -10.02, "intermolecular_energy": 0.0, "internal_energy": -10.02, "cluster_size": 15, "cluster_id": 1, "rank_in_cluster": 1}

>  <_RMSD_MCS_to_ref>  (1470) 
0.6228196635731195

$$$$
ligand
     RDKit          3D

 46 49  0  0  0  0  0  0  0  0999 V2000
   18.9090   19.1540    7.5370 C   0  0  0  0  0  0  0  0  0  0  0  0
   18.7730   17.6460    7.6780 C   0  0  0  0  0  0  0  0  0  0  0  0
   20.0610   16.9400    7.4390 C   0  0  0  0  0  0  0  0  0  0  0  0
   21.1540   16.8210    8.2750 C   0  0  0  0  0  0  0  0  0  0  0  0
   22.0530   16.0940    7.5500 N   0  0  0  0  0  0  0  0  0  0  0  0
   23.4970   15.4460    8.1160 S   0  0  0  0  0  6  0  0  0  0  0  0
   23.8770   14.4540    7.1280 O   0  0  0  0  0  0  0  0  0  0  0  0
   24.3480   16.5680    8.4510 O   0  0  0  0  0  0  0  0  0  0  0  0
   23.0500   14.6210    9.5930 C   0  0  0  0  0  0  0  0  0  0  0  0
   22.2960   13.4630    9.5020 C   0  0  0  0  0  0  0  0  0  0  0  0
   21.8800   12.7620   10.5790 N   0  0  0  0  0  0  0  0  0  0  0  0
   22.1960   13.1620   11.7910 N   0  0  0  0  0  0  0  0  0  0  0  0
   22.9510   14.2690   11.9260 C   0  0  0  0  0  0  0  0  0  0  0  0
   23.4120   14.8420   13.4550 S   0  0  0  0  0  0  0  0  0  0  0  0
   24.2790   16.1510   12.7780 C   0  0  0  0  0  0  0  0  0  0  0  0
   24.9830   17.1330   13.5910 C   0  0  0  0  0  0  0  0  0  0  0  0
   26.1940   17.3140   13.5060 O   0  0  0  0  0  0  0  0  0  0  0  0
   24.2150   17.8520   14.4790 N   0  0  0  0  0  0  0  0  0  0  0  0
   24.8040   18.7510   15.4580 C   0  0  1  0  0  0  0  0  0  0  0  0
   25.8640   18.0620   16.3100 C   0  0  0  0  0  0  0  0  0  0  0  0
   26.4620   19.0650   17.2850 C   0  0  0  0  0  0  0  0  0  0  0  0
   27.0160   20.2700   16.5610 C   0  0  0  0  0  0  0  0  0  0  0  0
   28.0080   20.8760   16.9550 O   0  0  0  0  0  0  0  0  0  0  0  0
   26.3360   20.6810   15.4440 N   0  0  0  0  0  0  0  0  0  0  0  0
   25.4480   19.9270   14.7190 C   0  0  0  0  0  0  0  0  0  0  0  0
   25.1860   20.2000   13.5470 O   0  0  0  0  0  0  0  0  0  0  0  0
   24.2080   16.1310   11.3940 C   0  0  0  0  0  0  0  0  0  0  0  0
   23.4230   15.0480   10.8790 C   0  0  0  0  0  0  0  0  0  0  0  0
   21.5040   15.7780    6.3490 C   0  0  0  0  0  0  0  0  0  0  0  0
   20.2910   16.2760    6.2500 N   0  0  0  0  0  0  0  0  0  0  0  0
   18.9504   19.6134    8.5356 H   0  0  0  0  0  0  0  0  0  0  0  0
   19.8320   19.3891    6.9867 H   0  0  0  0  0  0  0  0  0  0  0  0
   18.0430   19.5504    6.9867 H   0  0  0  0  0  0  0  0  0  0  0  0
   18.4264   17.4154    8.6962 H   0  0  0  0  0  0  0  0  0  0  0  0
   18.0531   17.3000    6.9216 H   0  0  0  0  0  0  0  0  0  0  0  0
   21.2727   17.2209    9.2928 H   0  0  0  0  0  0  0  0  0  0  0  0
   22.0220   13.0955    8.5021 H   0  0  0  0  0  0  0  0  0  0  0  0
   23.1905   17.7497   14.4488 H   0  0  0  0  0  0  0  0  0  0  0  0
   24.0032   19.0914   16.1309 H   0  0  0  0  0  0  0  0  0  0  0  0
   25.4032   17.2355   16.8708 H   0  0  0  0  0  0  0  0  0  0  0  0
   26.6572   17.6661   15.6588 H   0  0  0  0  0  0  0  0  0  0  0  0
   25.6798   19.3953   17.9843 H   0  0  0  0  0  0  0  0  0  0  0  0
   27.2854   18.5755   17.8257 H   0  0  0  0  0  0  0  0  0  0  0  0
   26.5072   21.6434   15.1194 H   0  0  0  0  0  0  0  0  0  0  0  0
   24.7056   16.8739   10.7533 H   0  0  0  0  0  0  0  0  0  0  0  0
   22.0044   15.1875    5.5674 H   0  0  0  0  0  0  0  0  0  0  0  0
  1  2  1  0
  2  3  1  0
  3  4  2  0
  4  5  1  0
  5  6  1  0
  6  7  2  0
  6  8  2  0
  6  9  1  0
  9 10  2  0
 10 11  1  0
 11 12  2  0
 12 13  1  0
 13 14  1  0
 14 15  1  0
 15 16  1  0
 16 17  2  0
 16 18  1  0
 18 19  1  0
 19 20  1  0
 20 21  1  0
 21 22  1  0
 22 23  2  0
 22 24  1  0
 24 25  1  0
 25 26  2  0
 15 27  2  0
 27 28  1  0
  5 29  1  0
 29 30  2  0
 30  3  1  0
 28  9  1  0
 28 13  2  0
 25 19  1  0
  1 31  1  0
  1 32  1  0
  1 33  1  0
  2 34  1  0
  2 35  1  0
  4 36  1  0
 10 37  1  0
 18 38  1  0
 19 39  1  1
 20 40  1  0
 20 41  1  0
 21 42  1  0
 21 43  1  0
 24 44  1  0
 27 45  1  0
 29 46  1  0
M  END
>  <meeko>  (1471) 
{"is_sidechain": [true], "free_energy": -10.02, "intermolecular_energy": 0.0, "internal_energy": -10.02, "cluster_size": 19, "cluster_id": 1, "rank_in_cluster": 1}

>  <_RMSD_MCS_to_ref>  (1471) 
0.700739926395267

$$$$
ligand
     RDKit          3D

 46 49  0  0  0  0  0  0  0  0999 V2000
   18.9090   19.1540    7.5370 C   0  0  0  0  0  0  0  0  0  0  0  0
   18.7730   17.6460    7.6780 C   0  0  0  0  0  0  0  0  0  0  0  0
   20.0710   16.9440    7.4860 C   0  0  0  0  0  0  0  0  0  0  0  0
   20.9630   16.4900    8.4390 C   0  0  0  0  0  0  0  0  0  0  0  0
   21.9830   15.9490    7.7100 N   0  0  0  0  0  0  0  0  0  0  0  0
   23.2640   15.0570    8.3290 S   0  0  0  0  0  6  0  0  0  0  0  0
   24.4500   15.5560    7.6590 O   0  0  0  0  0  0  0  0  0  0  0  0
   22.8590   13.6670    8.2610 O   0  0  0  0  0  0  0  0  0  0  0  0
   23.3290   15.5440   10.0360 C   0  0  0  0  0  0  0  0  0  0  0  0
   22.4010   14.9900   10.9440 C   0  0  0  0  0  0  0  0  0  0  0  0
   22.4360   15.3580   12.2900 C   0  0  0  0  0  0  0  0  0  0  0  0
   23.4120   16.2580   12.6800 C   0  0  0  0  0  0  0  0  0  0  0  0
   24.3430   16.8000   11.7930 C   0  0  0  0  0  0  0  0  0  0  0  0
   24.3180   16.4490   10.4540 C   0  0  0  0  0  0  0  0  0  0  0  0
   25.2510   17.7380   12.5170 C   0  0  0  0  0  0  0  0  0  0  0  0
   24.8030   17.6110   13.8980 N   0  0  0  0  0  0  0  0  0  0  0  0
   25.2060   18.5270   14.9600 C   0  0  1  0  0  0  0  0  0  0  0  0
   26.2720   17.9320   15.8740 C   0  0  0  0  0  0  0  0  0  0  0  0
   26.5740   18.9080   17.0010 C   0  0  0  0  0  0  0  0  0  0  0  0
   26.9830   20.2580   16.4570 C   0  0  0  0  0  0  0  0  0  0  0  0
   27.8370   20.9530   16.9990 O   0  0  0  0  0  0  0  0  0  0  0  0
   26.3380   20.6830   15.3250 N   0  0  0  0  0  0  0  0  0  0  0  0
   25.7170   19.8680   14.4050 C   0  0  0  0  0  0  0  0  0  0  0  0
   25.6140   20.2190   13.2320 O   0  0  0  0  0  0  0  0  0  0  0  0
   23.6750   16.8120   14.0120 C   0  0  0  0  0  0  0  0  0  0  0  0
   23.0090   16.5910   15.0040 O   0  0  0  0  0  0  0  0  0  0  0  0
   21.6840   16.0380    6.3890 C   0  0  0  0  0  0  0  0  0  0  0  0
   20.5300   16.6490    6.2180 N   0  0  0  0  0  0  0  0  0  0  0  0
   18.9504   19.6134    8.5356 H   0  0  0  0  0  0  0  0  0  0  0  0
   19.8320   19.3891    6.9867 H   0  0  0  0  0  0  0  0  0  0  0  0
   18.0430   19.5504    6.9867 H   0  0  0  0  0  0  0  0  0  0  0  0
   18.3920   17.4172    8.6842 H   0  0  0  0  0  0  0  0  0  0  0  0
   18.0808   17.2951    6.8984 H   0  0  0  0  0  0  0  0  0  0  0  0
   20.8721   16.5506    9.5336 H   0  0  0  0  0  0  0  0  0  0  0  0
   21.6500   14.2680   10.5907 H   0  0  0  0  0  0  0  0  0  0  0  0
   21.7153   14.9482   13.0130 H   0  0  0  0  0  0  0  0  0  0  0  0
   25.0471   16.8644    9.7427 H   0  0  0  0  0  0  0  0  0  0  0  0
   26.3028   17.4337   12.4111 H   0  0  0  0  0  0  0  0  0  0  0  0
   25.2089   18.7692   12.1363 H   0  0  0  0  0  0  0  0  0  0  0  0
   24.2948   18.7036   15.5504 H   0  0  0  0  0  0  0  0  0  0  0  0
   25.9056   16.9850   16.2971 H   0  0  0  0  0  0  0  0  0  0  0  0
   27.1885   17.7441   15.2955 H   0  0  0  0  0  0  0  0  0  0  0  0
   25.6744   19.0286   17.6225 H   0  0  0  0  0  0  0  0  0  0  0  0
   27.4054   18.5055   17.5983 H   0  0  0  0  0  0  0  0  0  0  0  0
   26.3159   21.6973   15.1474 H   0  0  0  0  0  0  0  0  0  0  0  0
   22.3168   15.6537    5.5754 H   0  0  0  0  0  0  0  0  0  0  0  0
  1  2  1  0
  2  3  1  0
  3  4  2  0
  4  5  1  0
  5  6  1  0
  6  7  2  0
  6  8  2  0
  6  9  1  0
  9 10  2  0
 10 11  1  0
 11 12  2  0
 12 13  1  0
 13 14  2  0
 13 15  1  0
 15 16  1  0
 16 17  1  0
 17 18  1  0
 18 19  1  0
 19 20  1  0
 20 21  2  0
 20 22  1  0
 22 23  1  0
 23 24  2  0
 16 25  1  0
 25 26  2  0
  5 27  1  0
 27 28  2  0
 28  3  1  0
 14  9  1  0
 23 17  1  0
 25 12  1  0
  1 29  1  0
  1 30  1  0
  1 31  1  0
  2 32  1  0
  2 33  1  0
  4 34  1  0
 10 35  1  0
 11 36  1  0
 14 37  1  0
 15 38  1  0
 15 39  1  0
 17 40  1  1
 18 41  1  0
 18 42  1  0
 19 43  1  0
 19 44  1  0
 22 45  1  0
 27 46  1  0
M  END
>  <meeko>  (1472) 
{"is_sidechain": [true], "free_energy": -10.02, "intermolecular_energy": 0.0, "internal_energy": -10.02, "cluster_size": 20, "cluster_id": 1, "rank_in_cluster": 1}

>  <_RMSD_MCS_to_ref>  (1472) 
0.9318442585658947

$$$$
ligand
     RDKit          3D

 46 49  0  0  0  0  0  0  0  0999 V2000
   18.9090   19.1540    7.5370 C   0  0  0  0  0  0  0  0  0  0  0  0
   18.7730   17.6460    7.6780 C   0  0  0  0  0  0  0  0  0  0  0  0
   20.0870   16.9530    7.5900 C   0  0  0  0  0  0  0  0  0  0  0  0
   20.8200   16.3520    8.5950 C   0  0  0  0  0  0  0  0  0  0  0  0
   21.9230   15.8610    7.9570 N   0  0  0  0  0  0  0  0  0  0  0  0
   23.2860   15.2120    8.6950 S   0  0  0  0  0  6  0  0  0  0  0  0
   23.3560   13.8280    8.2720 O   0  0  0  0  0  0  0  0  0  0  0  0
   24.3540   16.1580    8.4390 O   0  0  0  0  0  0  0  0  0  0  0  0
   22.8910   15.2490   10.4220 C   0  0  0  0  0  0  0  0  0  0  0  0
   22.0270   14.2910   10.9600 C   0  0  0  0  0  0  0  0  0  0  0  0
   21.7230   14.3320   12.3210 C   0  0  0  0  0  0  0  0  0  0  0  0
   22.2700   15.3270   13.1360 C   0  0  0  0  0  0  0  0  0  0  0  0
   23.1210   16.2950   12.5900 C   0  0  0  0  0  0  0  0  0  0  0  0
   23.7170   17.3610   13.4270 C   0  0  0  0  0  0  0  0  0  0  0  0
   23.1120   17.8730   14.4510 N   0  0  0  0  0  0  0  0  0  0  0  0
   23.9610   18.8700   14.9820 O   0  0  0  0  0  0  0  0  0  0  0  0
   25.2810   18.6680   14.4530 C   0  0  2  0  0  0  0  0  0  0  0  0
   26.1120   17.8720   15.4610 C   0  0  0  0  0  0  0  0  0  0  0  0
   26.2100   18.6310   16.7810 C   0  0  0  0  0  0  0  0  0  0  0  0
   26.7170   20.0370   16.5720 C   0  0  0  0  0  0  0  0  0  0  0  0
   27.4650   20.5920   17.3710 O   0  0  0  0  0  0  0  0  0  0  0  0
   26.3000   20.6810   15.4340 N   0  0  0  0  0  0  0  0  0  0  0  0
   25.9090   20.0490   14.2760 C   0  0  0  0  0  0  0  0  0  0  0  0
   26.1130   20.5760   13.1840 O   0  0  0  0  0  0  0  0  0  0  0  0
   25.0610   17.9380   13.1410 C   0  0  0  0  0  0  0  0  0  0  0  0
   23.4320   16.2570   11.2260 C   0  0  0  0  0  0  0  0  0  0  0  0
   21.8640   16.1990    6.6430 C   0  0  0  0  0  0  0  0  0  0  0  0
   20.7530   16.8560    6.3830 N   0  0  0  0  0  0  0  0  0  0  0  0
   18.9504   19.6134    8.5356 H   0  0  0  0  0  0  0  0  0  0  0  0
   19.8320   19.3891    6.9867 H   0  0  0  0  0  0  0  0  0  0  0  0
   18.0430   19.5504    6.9867 H   0  0  0  0  0  0  0  0  0  0  0  0
   18.3183   17.4209    8.6540 H   0  0  0  0  0  0  0  0  0  0  0  0
   18.1443   17.2846    6.8509 H   0  0  0  0  0  0  0  0  0  0  0  0
   20.5719   16.2844    9.6645 H   0  0  0  0  0  0  0  0  0  0  0  0
   21.5911   13.5125   10.3167 H   0  0  0  0  0  0  0  0  0  0  0  0
   21.0498   13.5778   12.7546 H   0  0  0  0  0  0  0  0  0  0  0  0
   22.0311   15.3495   14.2095 H   0  0  0  0  0  0  0  0  0  0  0  0
   25.6333   16.8974   15.6372 H   0  0  0  0  0  0  0  0  0  0  0  0
   27.1240   17.7261   15.0554 H   0  0  0  0  0  0  0  0  0  0  0  0
   25.2128   18.6752   17.2432 H   0  0  0  0  0  0  0  0  0  0  0  0
   26.9196   18.1007   17.4331 H   0  0  0  0  0  0  0  0  0  0  0  0
   26.2782   21.7107   15.4478 H   0  0  0  0  0  0  0  0  0  0  0  0
   25.0419   18.6259   12.2829 H   0  0  0  0  0  0  0  0  0  0  0  0
   25.8407   17.2137   12.8627 H   0  0  0  0  0  0  0  0  0  0  0  0
   24.0981   17.0156   10.7890 H   0  0  0  0  0  0  0  0  0  0  0  0
   22.6373   15.9573    5.8990 H   0  0  0  0  0  0  0  0  0  0  0  0
  1  2  1  0
  2  3  1  0
  3  4  2  0
  4  5  1  0
  5  6  1  0
  6  7  2  0
  6  8  2  0
  6  9  1  0
  9 10  2  0
 10 11  1  0
 11 12  2  0
 12 13  1  0
 13 14  1  0
 14 15  2  0
 15 16  1  0
 17 16  1  1
 17 18  1  0
 18 19  1  0
 19 20  1  0
 20 21  2  0
 20 22  1  0
 22 23  1  0
 23 24  2  0
 17 25  1  0
 13 26  2  0
  5 27  1  0
 27 28  2  0
 28  3  1  0
 26  9  1  0
 25 14  1  0
 23 17  1  0
  1 29  1  0
  1 30  1  0
  1 31  1  0
  2 32  1  0
  2 33  1  0
  4 34  1  0
 10 35  1  0
 11 36  1  0
 12 37  1  0
 18 38  1  0
 18 39  1  0
 19 40  1  0
 19 41  1  0
 22 42  1  0
 25 43  1  0
 25 44  1  0
 26 45  1  0
 27 46  1  0
M  END
>  <meeko>  (1473) 
{"is_sidechain": [true], "free_energy": -10.02, "intermolecular_energy": 0.0, "internal_energy": -10.02, "cluster_size": 20, "cluster_id": 1, "rank_in_cluster": 1}

>  <_RMSD_MCS_to_ref>  (1473) 
0.6944559921262103

$$$$
ligand
     RDKit          3D

 45 48  0  0  0  0  0  0  0  0999 V2000
   18.9090   19.1540    7.5370 C   0  0  0  0  0  0  0  0  0  0  0  0
   18.7730   17.6460    7.6780 C   0  0  0  0  0  0  0  0  0  0  0  0
   20.0480   17.0040    8.0970 C   0  0  0  0  0  0  0  0  0  0  0  0
   21.3090   17.1340    7.5470 C   0  0  0  0  0  0  0  0  0  0  0  0
   22.1030   16.3560    8.3420 N   0  0  0  0  0  0  0  0  0  0  0  0
   23.7050   15.9380    8.0260 S   0  0  0  0  0  6  0  0  0  0  0  0
   24.3750   17.2040    7.7890 O   0  0  0  0  0  0  0  0  0  0  0  0
   23.6210   14.9200    6.9950 O   0  0  0  0  0  0  0  0  0  0  0  0
   24.2720   15.2740    9.4000 O   0  0  0  0  0  0  0  0  0  0  0  0
   24.2930   15.9450   10.5980 C   0  0  0  0  0  0  0  0  0  0  0  0
   25.3000   16.8200   11.0150 C   0  0  0  0  0  0  0  0  0  0  0  0
   25.2400   17.4620   12.2610 C   0  0  0  0  0  0  0  0  0  0  0  0
   24.1330   17.1870   13.0710 C   0  0  0  0  0  0  0  0  0  0  0  0
   23.1170   16.3200   12.6760 C   0  0  0  0  0  0  0  0  0  0  0  0
   23.1940   15.6880   11.4270 C   0  0  0  0  0  0  0  0  0  0  0  0
   22.1420   16.2330   13.6350 N   0  0  0  0  0  0  0  0  0  0  0  0
   22.5440   17.0140   14.6110 C   0  0  0  0  0  0  0  0  0  0  0  0
   23.7380   17.6180   14.3200 N   0  0  0  0  0  0  0  0  0  0  0  0
   24.4190   18.6190   15.1350 C   0  0  1  0  0  0  0  0  0  0  0  0
   25.5460   17.9760   15.9450 C   0  0  0  0  0  0  0  0  0  0  0  0
   26.2140   19.0230   16.8220 C   0  0  0  0  0  0  0  0  0  0  0  0
   26.7270   20.1780   15.9980 C   0  0  0  0  0  0  0  0  0  0  0  0
   27.6530   20.8920   16.3700 O   0  0  0  0  0  0  0  0  0  0  0  0
   26.0560   20.4370   14.8290 N   0  0  0  0  0  0  0  0  0  0  0  0
   24.9490   19.7940   14.3210 C   0  0  0  0  0  0  0  0  0  0  0  0
   24.4160   20.2140   13.2970 O   0  0  0  0  0  0  0  0  0  0  0  0
   21.3290   15.7300    9.2650 C   0  0  0  0  0  0  0  0  0  0  0  0
   20.0770   16.1240    9.1620 N   0  0  0  0  0  0  0  0  0  0  0  0
   18.9504   19.6134    8.5356 H   0  0  0  0  0  0  0  0  0  0  0  0
   19.8320   19.3891    6.9867 H   0  0  0  0  0  0  0  0  0  0  0  0
   18.0430   19.5504    6.9867 H   0  0  0  0  0  0  0  0  0  0  0  0
   18.0023   17.4287    8.4322 H   0  0  0  0  0  0  0  0  0  0  0  0
   18.4966   17.2382    6.6945 H   0  0  0  0  0  0  0  0  0  0  0  0
   21.6058   17.7278    6.6699 H   0  0  0  0  0  0  0  0  0  0  0  0
   26.1574   17.0092   10.3524 H   0  0  0  0  0  0  0  0  0  0  0  0
   26.0309   18.1532   12.5876 H   0  0  0  0  0  0  0  0  0  0  0  0
   22.4008   14.9986   11.1021 H   0  0  0  0  0  0  0  0  0  0  0  0
   21.9890   17.1648   15.5487 H   0  0  0  0  0  0  0  0  0  0  0  0
   23.6644   19.0288   15.8224 H   0  0  0  0  0  0  0  0  0  0  0  0
   25.1306   17.1794   16.5798 H   0  0  0  0  0  0  0  0  0  0  0  0
   26.2910   17.5513   15.2560 H   0  0  0  0  0  0  0  0  0  0  0  0
   25.4821   19.3999   17.5516 H   0  0  0  0  0  0  0  0  0  0  0  0
   27.0671   18.5549   17.3349 H   0  0  0  0  0  0  0  0  0  0  0  0
   26.4275   21.2105   14.2593 H   0  0  0  0  0  0  0  0  0  0  0  0
   21.6967   14.9958    9.9970 H   0  0  0  0  0  0  0  0  0  0  0  0
  1  2  1  0
  2  3  1  0
  3  4  2  0
  4  5  1  0
  5  6  1  0
  6  7  2  0
  6  8  2  0
  6  9  1  0
  9 10  1  0
 10 11  2  0
 11 12  1  0
 12 13  2  0
 13 14  1  0
 14 15  2  0
 14 16  1  0
 16 17  2  0
 17 18  1  0
 18 19  1  0
 19 20  1  0
 20 21  1  0
 21 22  1  0
 22 23  2  0
 22 24  1  0
 24 25  1  0
 25 26  2  0
  5 27  1  0
 27 28  2  0
 28  3  1  0
 15 10  1  0
 25 19  1  0
 18 13  1  0
  1 29  1  0
  1 30  1  0
  1 31  1  0
  2 32  1  0
  2 33  1  0
  4 34  1  0
 11 35  1  0
 12 36  1  0
 15 37  1  0
 17 38  1  0
 19 39  1  1
 20 40  1  0
 20 41  1  0
 21 42  1  0
 21 43  1  0
 24 44  1  0
 27 45  1  0
M  END
>  <meeko>  (1474) 
{"is_sidechain": [true], "free_energy": -10.02, "intermolecular_energy": 0.0, "internal_energy": -10.02, "cluster_size": 20, "cluster_id": 1, "rank_in_cluster": 1}

>  <_RMSD_MCS_to_ref>  (1474) 
0.6338461958551144

$$$$
ligand
     RDKit          3D

 45 48  0  0  0  0  0  0  0  0999 V2000
   18.9090   19.1540    7.5370 C   0  0  0  0  0  0  0  0  0  0  0  0
   18.7730   17.6460    7.6780 C   0  0  0  0  0  0  0  0  0  0  0  0
   20.0840   16.9510    7.5710 C   0  0  0  0  0  0  0  0  0  0  0  0
   20.8330   16.3500    8.5640 C   0  0  0  0  0  0  0  0  0  0  0  0
   21.9260   15.8580    7.9090 N   0  0  0  0  0  0  0  0  0  0  0  0
   23.2960   15.2130    8.6250 S   0  0  0  0  0  6  0  0  0  0  0  0
   24.3960   16.0790    8.2510 O   0  0  0  0  0  0  0  0  0  0  0  0
   23.2740   13.7890    8.3590 O   0  0  0  0  0  0  0  0  0  0  0  0
   23.1760   15.3460   10.3360 C   0  0  0  0  0  0  0  0  0  0  0  0
   23.5780   16.4670   11.1090 C   0  0  0  0  0  0  0  0  0  0  0  0
   23.3160   16.1530   12.4280 C   0  0  0  0  0  0  0  0  0  0  0  0
   23.4900   16.8510   13.6640 C   0  0  0  0  0  0  0  0  0  0  0  0
   24.0270   18.1150   13.7110 N   0  0  0  0  0  0  0  0  0  0  0  0
   25.2560   18.4210   14.4390 C   0  0  2  0  0  0  0  0  0  0  0  0
   25.0870   18.1140   15.9220 C   0  0  0  0  0  0  0  0  0  0  0  0
   26.3520   18.4970   16.6720 C   0  0  0  0  0  0  0  0  0  0  0  0
   26.7010   19.9500   16.4520 C   0  0  0  0  0  0  0  0  0  0  0  0
   27.2650   20.6290   17.3040 O   0  0  0  0  0  0  0  0  0  0  0  0
   26.3910   20.4750   15.2220 N   0  0  0  0  0  0  0  0  0  0  0  0
   25.5750   19.9130   14.2730 C   0  0  0  0  0  0  0  0  0  0  0  0
   25.1330   20.5820   13.3380 O   0  0  0  0  0  0  0  0  0  0  0  0
   23.1200   16.2450   14.7510 N   0  0  0  0  0  0  0  0  0  0  0  0
   22.5860   14.9810   14.6700 C   0  0  0  0  0  0  0  0  0  0  0  0
   22.3980   14.2790   13.5970 N   0  0  0  0  0  0  0  0  0  0  0  0
   22.7790   14.9010   12.4750 N   0  0  0  0  0  0  0  0  0  0  0  0
   22.6900   14.3910   11.2080 C   0  0  0  0  0  0  0  0  0  0  0  0
   21.8510   16.2050    6.5990 C   0  0  0  0  0  0  0  0  0  0  0  0
   20.7330   16.8570    6.3550 N   0  0  0  0  0  0  0  0  0  0  0  0
   18.9504   19.6134    8.5356 H   0  0  0  0  0  0  0  0  0  0  0  0
   19.8320   19.3891    6.9867 H   0  0  0  0  0  0  0  0  0  0  0  0
   18.0430   19.5504    6.9867 H   0  0  0  0  0  0  0  0  0  0  0  0
   18.3316   17.4204    8.6600 H   0  0  0  0  0  0  0  0  0  0  0  0
   18.1325   17.2867    6.8590 H   0  0  0  0  0  0  0  0  0  0  0  0
   20.6019   16.2829    9.6374 H   0  0  0  0  0  0  0  0  0  0  0  0
   24.0135   17.4036   10.7307 H   0  0  0  0  0  0  0  0  0  0  0  0
   23.5440   18.8766   13.2134 H   0  0  0  0  0  0  0  0  0  0  0  0
   26.0734   17.8047   14.0363 H   0  0  0  0  0  0  0  0  0  0  0  0
   24.2378   18.6889   16.3199 H   0  0  0  0  0  0  0  0  0  0  0  0
   24.8982   17.0382   16.0520 H   0  0  0  0  0  0  0  0  0  0  0  0
   26.1974   18.3243   17.7473 H   0  0  0  0  0  0  0  0  0  0  0  0
   27.1803   17.8796   16.2942 H   0  0  0  0  0  0  0  0  0  0  0  0
   26.8145   21.3842   14.9875 H   0  0  0  0  0  0  0  0  0  0  0  0
   22.2854   14.5144   15.6197 H   0  0  0  0  0  0  0  0  0  0  0  0
   22.3014   13.3992   10.9334 H   0  0  0  0  0  0  0  0  0  0  0  0
   22.6180   15.9736    5.8452 H   0  0  0  0  0  0  0  0  0  0  0  0
  1  2  1  0
  2  3  1  0
  3  4  2  0
  4  5  1  0
  5  6  1  0
  6  7  2  0
  6  8  2  0
  6  9  1  0
  9 10  1  0
 10 11  2  0
 11 12  1  0
 12 13  1  0
 13 14  1  0
 14 15  1  0
 15 16  1  0
 16 17  1  0
 17 18  2  0
 17 19  1  0
 19 20  1  0
 20 21  2  0
 12 22  2  0
 22 23  1  0
 23 24  2  0
 24 25  1  0
 25 26  1  0
  5 27  1  0
 27 28  2  0
 28  3  1  0
 26  9  2  0
 25 11  1  0
 20 14  1  0
  1 29  1  0
  1 30  1  0
  1 31  1  0
  2 32  1  0
  2 33  1  0
  4 34  1  0
 10 35  1  0
 13 36  1  0
 14 37  1  6
 15 38  1  0
 15 39  1  0
 16 40  1  0
 16 41  1  0
 19 42  1  0
 23 43  1  0
 26 44  1  0
 27 45  1  0
M  END
>  <meeko>  (1475) 
{"is_sidechain": [true], "free_energy": -10.02, "intermolecular_energy": 0.0, "internal_energy": -10.02, "cluster_size": 20, "cluster_id": 1, "rank_in_cluster": 1}

>  <_RMSD_MCS_to_ref>  (1475) 
0.5730267591192113

$$$$
ligand
     RDKit          3D

 45 47  0  0  0  0  0  0  0  0999 V2000
   18.9090   19.1540    7.5370 C   0  0  0  0  0  0  0  0  0  0  0  0
   18.7730   17.6460    7.6780 C   0  0  0  0  0  0  0  0  0  0  0  0
   20.0890   16.9550    7.6120 C   0  0  0  0  0  0  0  0  0  0  0  0
   21.0620   16.8450    8.5850 C   0  0  0  0  0  0  0  0  0  0  0  0
   22.0580   16.1280    7.9860 N   0  0  0  0  0  0  0  0  0  0  0  0
   23.3800   15.4350    8.7750 S   0  0  0  0  0  6  0  0  0  0  0  0
   23.5070   14.1190    8.1730 O   0  0  0  0  0  0  0  0  0  0  0  0
   24.4390   16.4180    8.6370 O   0  0  0  0  0  0  0  0  0  0  0  0
   22.9250   15.2940   10.4560 C   0  0  0  0  0  0  0  0  0  0  0  0
   21.7530   14.7210   10.7680 C   0  0  0  0  0  0  0  0  0  0  0  0
   21.3660   14.6150   12.0820 N   0  0  0  0  0  0  0  0  0  0  0  0
   22.1140   15.0690   13.1480 C   0  0  0  0  0  0  0  0  0  0  0  0
   21.7150   14.9510   14.3040 O   0  0  0  0  0  0  0  0  0  0  0  0
   23.4270   15.7040   12.8150 C   0  0  0  0  0  0  0  0  0  0  0  0
   24.3630   16.2580   13.8370 C   0  0  0  0  0  0  0  0  0  0  0  0
   24.9850   15.5240   14.6010 O   0  0  0  0  0  0  0  0  0  0  0  0
   24.4860   17.6260   13.8560 N   0  0  0  0  0  0  0  0  0  0  0  0
   25.5940   18.2620   14.5500 C   0  0  2  0  0  0  0  0  0  0  0  0
   25.5390   17.9630   16.0430 C   0  0  0  0  0  0  0  0  0  0  0  0
   26.7050   18.6490   16.7400 C   0  0  0  0  0  0  0  0  0  0  0  0
   26.7140   20.1330   16.4620 C   0  0  0  0  0  0  0  0  0  0  0  0
   27.0910   20.9550   17.2920 O   0  0  0  0  0  0  0  0  0  0  0  0
   26.3010   20.5270   15.2140 N   0  0  0  0  0  0  0  0  0  0  0  0
   25.5390   19.7840   14.3430 C   0  0  0  0  0  0  0  0  0  0  0  0
   24.8770   20.3370   13.4660 O   0  0  0  0  0  0  0  0  0  0  0  0
   23.7820   15.7900   11.5170 C   0  0  0  0  0  0  0  0  0  0  0  0
   21.6630   15.7810    6.7340 C   0  0  0  0  0  0  0  0  0  0  0  0
   20.4750   16.2820    6.4690 N   0  0  0  0  0  0  0  0  0  0  0  0
   18.9504   19.6134    8.5356 H   0  0  0  0  0  0  0  0  0  0  0  0
   19.8320   19.3891    6.9867 H   0  0  0  0  0  0  0  0  0  0  0  0
   18.0430   19.5504    6.9867 H   0  0  0  0  0  0  0  0  0  0  0  0
   18.3032   17.4216    8.6470 H   0  0  0  0  0  0  0  0  0  0  0  0
   18.1581   17.2825    6.8415 H   0  0  0  0  0  0  0  0  0  0  0  0
   21.0401   17.2441    9.6098 H   0  0  0  0  0  0  0  0  0  0  0  0
   21.1007   14.3354    9.9706 H   0  0  0  0  0  0  0  0  0  0  0  0
   20.4601   14.1683   12.2837 H   0  0  0  0  0  0  0  0  0  0  0  0
   23.7859   18.2073   13.3735 H   0  0  0  0  0  0  0  0  0  0  0  0
   26.5313   17.8613   14.1366 H   0  0  0  0  0  0  0  0  0  0  0  0
   24.5917   18.3381   16.4576 H   0  0  0  0  0  0  0  0  0  0  0  0
   25.6038   16.8765   16.2024 H   0  0  0  0  0  0  0  0  0  0  0  0
   26.6189   18.4882   17.8248 H   0  0  0  0  0  0  0  0  0  0  0  0
   27.6413   18.2181   16.3558 H   0  0  0  0  0  0  0  0  0  0  0  0
   26.5881   21.4653   14.9009 H   0  0  0  0  0  0  0  0  0  0  0  0
   24.7471   16.2484   11.2553 H   0  0  0  0  0  0  0  0  0  0  0  0
   22.2535   15.1668    6.0382 H   0  0  0  0  0  0  0  0  0  0  0  0
  1  2  1  0
  2  3  1  0
  3  4  2  0
  4  5  1  0
  5  6  1  0
  6  7  2  0
  6  8  2  0
  6  9  1  0
  9 10  2  0
 10 11  1  0
 11 12  1  0
 12 13  2  0
 12 14  1  0
 14 15  1  0
 15 16  2  0
 15 17  1  0
 17 18  1  0
 18 19  1  0
 19 20  1  0
 20 21  1  0
 21 22  2  0
 21 23  1  0
 23 24  1  0
 24 25  2  0
 14 26  2  0
  5 27  1  0
 27 28  2  0
 28  3  1  0
 26  9  1  0
 24 18  1  0
  1 29  1  0
  1 30  1  0
  1 31  1  0
  2 32  1  0
  2 33  1  0
  4 34  1  0
 10 35  1  0
 11 36  1  0
 17 37  1  0
 18 38  1  6
 19 39  1  0
 19 40  1  0
 20 41  1  0
 20 42  1  0
 23 43  1  0
 26 44  1  0
 27 45  1  0
M  END
>  <meeko>  (1476) 
{"is_sidechain": [true], "free_energy": -10.02, "intermolecular_energy": 0.0, "internal_energy": -10.02, "cluster_size": 20, "cluster_id": 1, "rank_in_cluster": 1}

>  <_RMSD_MCS_to_ref>  (1476) 
0.4581696677481436

$$$$
ligand
     RDKit          3D

 59 63  0  0  0  0  0  0  0  0999 V2000
   18.8250   19.0170    7.5350 C   0  0  0  0  0  0  0  0  0  0  0  0
   18.5200   17.5420    7.7330 C   0  0  0  0  0  0  0  0  0  0  0  0
   19.7440   16.6990    7.6610 C   0  0  0  0  0  0  0  0  0  0  0  0
   20.2100   15.7670    8.5680 C   0  0  0  0  0  0  0  0  0  0  0  0
   21.3540   15.2870    7.9980 N   0  0  0  0  0  0  0  0  0  0  0  0
   22.5060   14.3200    8.7530 S   0  0  0  0  0  6  0  0  0  0  0  0
   21.9600   12.9780    8.7710 O   0  0  0  0  0  0  0  0  0  0  0  0
   23.7610   14.6500    8.1060 O   0  0  0  0  0  0  0  0  0  0  0  0
   22.5390   14.9300   10.4170 C   0  0  0  0  0  0  0  0  0  0  0  0
   21.6440   14.3820   11.3610 C   0  0  0  0  0  0  0  0  0  0  0  0
   21.5940   14.8780   12.6730 C   0  0  0  0  0  0  0  0  0  0  0  0
   20.6440   14.3320   13.6410 C   0  0  0  0  0  0  0  0  0  0  0  0
   19.3400   14.1490   13.3800 C   0  0  0  0  0  0  0  0  0  0  0  0
   18.6030   14.4790   12.1110 C   0  0  0  0  0  0  0  0  0  0  0  0
   17.1500   14.4420   12.5650 C   0  0  0  0  0  0  0  0  0  0  0  0
   17.1230   13.3960   13.5890 N   0  0  0  0  0  0  0  0  0  0  0  0
   18.3570   13.5780   14.3600 C   0  0  0  0  0  0  0  0  0  0  0  0
   22.4730   15.8930   13.0140 C   0  0  0  0  0  0  0  0  0  0  0  0
   23.3660   16.4020   12.0680 C   0  0  0  0  0  0  0  0  0  0  0  0
   23.4290   15.9460   10.7650 C   0  0  0  0  0  0  0  0  0  0  0  0
   24.1600   17.4560   12.7060 C   0  0  0  0  0  0  0  0  0  0  0  0
   25.0650   18.0640   12.1710 O   0  0  0  0  0  0  0  0  0  0  0  0
   23.6710   17.6030   13.9940 N   0  0  0  0  0  0  0  0  0  0  0  0
   24.3840   18.3790   15.0030 C   0  0  1  0  0  0  0  0  0  0  0  0
   25.6370   17.6700   15.5090 C   0  0  0  0  0  0  0  0  0  0  0  0
   26.2740   18.4980   16.6140 C   0  0  0  0  0  0  0  0  0  0  0  0
   26.5720   19.9020   16.1390 C   0  0  0  0  0  0  0  0  0  0  0  0
   27.5710   20.5180   16.4950 O   0  0  0  0  0  0  0  0  0  0  0  0
   25.6550   20.4680   15.2890 N   0  0  0  0  0  0  0  0  0  0  0  0
   24.7750   19.7760   14.4900 C   0  0  0  0  0  0  0  0  0  0  0  0
   24.3660   20.2700   13.4420 O   0  0  0  0  0  0  0  0  0  0  0  0
   22.6610   16.6020   14.3170 C   0  0  0  0  0  0  0  0  0  0  0  0
   21.5720   15.9340    6.8230 C   0  0  0  0  0  0  0  0  0  0  0  0
   20.6070   16.7980    6.5870 N   0  0  0  0  0  0  0  0  0  0  0  0
   18.9260   19.5054    8.5155 H   0  0  0  0  0  0  0  0  0  0  0  0
   19.7645   19.1250    6.9731 H   0  0  0  0  0  0  0  0  0  0  0  0
   18.0054   19.4887    6.9731 H   0  0  0  0  0  0  0  0  0  0  0  0
   18.0542   17.4062    8.7202 H   0  0  0  0  0  0  0  0  0  0  0  0
   17.8449   17.2258    6.9242 H   0  0  0  0  0  0  0  0  0  0  0  0
   19.7617   15.4777    9.5299 H   0  0  0  0  0  0  0  0  0  0  0  0
   20.9787   13.5575   11.0652 H   0  0  0  0  0  0  0  0  0  0  0  0
   21.0183   14.0560   14.6379 H   0  0  0  0  0  0  0  0  0  0  0  0
   18.8789   15.4760   11.7371 H   0  0  0  0  0  0  0  0  0  0  0  0
   18.8240   13.7926   11.2804 H   0  0  0  0  0  0  0  0  0  0  0  0
   16.8484   15.4113   12.9887 H   0  0  0  0  0  0  0  0  0  0  0  0
   16.4538   14.2410   11.7374 H   0  0  0  0  0  0  0  0  0  0  0  0
   16.2984   13.5067   14.1963 H   0  0  0  0  0  0  0  0  0  0  0  0
   18.1930   14.2749   15.1952 H   0  0  0  0  0  0  0  0  0  0  0  0
   18.7122   12.6363   14.8039 H   0  0  0  0  0  0  0  0  0  0  0  0
   24.1438   16.3626   10.0401 H   0  0  0  0  0  0  0  0  0  0  0  0
   23.6770   18.4858   15.8389 H   0  0  0  0  0  0  0  0  0  0  0  0
   25.3646   16.6797   15.9029 H   0  0  0  0  0  0  0  0  0  0  0  0
   26.3513   17.5503   14.6811 H   0  0  0  0  0  0  0  0  0  0  0  0
   25.5842   18.5469   17.4694 H   0  0  0  0  0  0  0  0  0  0  0  0
   27.2203   18.0201   16.9074 H   0  0  0  0  0  0  0  0  0  0  0  0
   25.6232   21.4966   15.2459 H   0  0  0  0  0  0  0  0  0  0  0  0
   23.0202   15.9128   15.0954 H   0  0  0  0  0  0  0  0  0  0  0  0
   21.7316   17.0329   14.7177 H   0  0  0  0  0  0  0  0  0  0  0  0
   22.4338   15.7602    6.1618 H   0  0  0  0  0  0  0  0  0  0  0  0
  1  2  1  0
  2  3  1  0
  3  4  2  0
  4  5  1  0
  5  6  1  0
  6  7  2  0
  6  8  2  0
  6  9  1  0
  9 10  2  0
 10 11  1  0
 11 12  1  0
 12 13  2  0
 13 14  1  0
 14 15  1  0
 15 16  1  0
 16 17  1  0
 11 18  2  0
 18 19  1  0
 19 20  2  0
 19 21  1  0
 21 22  2  0
 21 23  1  0
 23 24  1  0
 24 25  1  0
 25 26  1  0
 26 27  1  0
 27 28  2  0
 27 29  1  0
 29 30  1  0
 30 31  2  0
 23 32  1  0
  5 33  1  0
 33 34  2  0
 34  3  1  0
 20  9  1  0
 30 24  1  0
 17 13  1  0
 32 18  1  0
  1 35  1  0
  1 36  1  0
  1 37  1  0
  2 38  1  0
  2 39  1  0
  4 40  1  0
 10 41  1  0
 12 42  1  0
 14 43  1  0
 14 44  1  0
 15 45  1  0
 15 46  1  0
 16 47  1  0
 17 48  1  0
 17 49  1  0
 20 50  1  0
 24 51  1  1
 25 52  1  0
 25 53  1  0
 26 54  1  0
 26 55  1  0
 29 56  1  0
 32 57  1  0
 32 58  1  0
 33 59  1  0
M  END
>  <meeko>  (1477) 
{"is_sidechain": [true], "free_energy": -10.01, "intermolecular_energy": 0.0, "internal_energy": -10.01, "cluster_size": 5, "cluster_id": 1, "rank_in_cluster": 1}

>  <_RMSD_MCS_to_ref>  (1477) 
1.7861638907010873

$$$$
ligand
     RDKit          3D

 48 51  0  0  0  0  0  0  0  0999 V2000
   18.8250   19.0180    7.5350 C   0  0  0  0  0  0  0  0  0  0  0  0
   18.5200   17.5410    7.7330 C   0  0  0  0  0  0  0  0  0  0  0  0
   19.6880   16.7960    8.2770 C   0  0  0  0  0  0  0  0  0  0  0  0
   19.8680   16.2670    9.5400 C   0  0  0  0  0  0  0  0  0  0  0  0
   21.1040   15.6910    9.4870 N   0  0  0  0  0  0  0  0  0  0  0  0
   21.8370   14.7620   10.6800 S   0  0  0  0  0  6  0  0  0  0  0  0
   22.2800   13.5370   10.0430 O   0  0  0  0  0  0  0  0  0  0  0  0
   20.8760   14.7520   11.7680 O   0  0  0  0  0  0  0  0  0  0  0  0
   23.2510   15.7090   11.1770 C   0  0  0  0  0  0  0  0  0  0  0  0
   23.1460   16.3990   12.3880 C   0  0  0  0  0  0  0  0  0  0  0  0
   24.1910   17.2020   12.7970 C   0  0  0  0  0  0  0  0  0  0  0  0
   24.0860   17.8560   14.0290 N   0  0  0  0  0  0  0  0  0  0  0  0
   25.3530   18.3040   14.6310 C   0  0  2  0  0  0  0  0  0  0  0  0
   25.3120   18.1100   16.1440 C   0  0  0  0  0  0  0  0  0  0  0  0
   26.5880   18.6550   16.7660 C   0  0  0  0  0  0  0  0  0  0  0  0
   26.7860   20.1100   16.4210 C   0  0  0  0  0  0  0  0  0  0  0  0
   27.3950   20.8830   17.1530 O   0  0  0  0  0  0  0  0  0  0  0  0
   26.2970   20.5250   15.2080 N   0  0  0  0  0  0  0  0  0  0  0  0
   25.5410   19.7990   14.3200 C   0  0  0  0  0  0  0  0  0  0  0  0
   25.0700   20.3280   13.3120 O   0  0  0  0  0  0  0  0  0  0  0  0
   25.3110   17.3120   12.0640 N   0  0  0  0  0  0  0  0  0  0  0  0
   25.4330   16.6360   10.9100 C   0  0  0  0  0  0  0  0  0  0  0  0
   26.6180   16.7940   10.2050 C   0  0  0  0  0  0  0  0  0  0  0  0
   26.8590   16.1320    9.0020 C   0  0  0  0  0  0  0  0  0  0  0  0
   25.8960   15.2810    8.4890 C   0  0  0  0  0  0  0  0  0  0  0  0
   24.6960   15.1060    9.1780 C   0  0  0  0  0  0  0  0  0  0  0  0
   24.4300   15.7900   10.3960 C   0  0  0  0  0  0  0  0  0  0  0  0
   21.6350   15.8850    8.2520 C   0  0  0  0  0  0  0  0  0  0  0  0
   20.7910   16.5430    7.4860 N   0  0  0  0  0  0  0  0  0  0  0  0
   18.9258   19.5062    8.5155 H   0  0  0  0  0  0  0  0  0  0  0  0
   19.7645   19.1263    6.9731 H   0  0  0  0  0  0  0  0  0  0  0  0
   18.0053   19.4896    6.9731 H   0  0  0  0  0  0  0  0  0  0  0  0
   17.6789   17.4436    8.4352 H   0  0  0  0  0  0  0  0  0  0  0  0
   18.2720   17.1118    6.7510 H   0  0  0  0  0  0  0  0  0  0  0  0
   19.1743   16.3019   10.3929 H   0  0  0  0  0  0  0  0  0  0  0  0
   22.2418   16.3031   13.0071 H   0  0  0  0  0  0  0  0  0  0  0  0
   23.1774   18.0146   14.4874 H   0  0  0  0  0  0  0  0  0  0  0  0
   26.1854   17.7161   14.2169 H   0  0  0  0  0  0  0  0  0  0  0  0
   24.4455   18.6465   16.5580 H   0  0  0  0  0  0  0  0  0  0  0  0
   25.2257   17.0372   16.3712 H   0  0  0  0  0  0  0  0  0  0  0  0
   26.5269   18.5508   17.8593 H   0  0  0  0  0  0  0  0  0  0  0  0
   27.4401   18.0842   16.3685 H   0  0  0  0  0  0  0  0  0  0  0  0
   26.5225   21.4913   14.9317 H   0  0  0  0  0  0  0  0  0  0  0  0
   27.3921   17.4633   10.6085 H   0  0  0  0  0  0  0  0  0  0  0  0
   27.8068   16.2849    8.4651 H   0  0  0  0  0  0  0  0  0  0  0  0
   26.0756   14.7464    7.5446 H   0  0  0  0  0  0  0  0  0  0  0  0
   23.9372   14.4225    8.7694 H   0  0  0  0  0  0  0  0  0  0  0  0
   22.6308   15.5405    7.9363 H   0  0  0  0  0  0  0  0  0  0  0  0
  1  2  1  0
  2  3  1  0
  3  4  2  0
  4  5  1  0
  5  6  1  0
  6  7  2  0
  6  8  2  0
  6  9  1  0
  9 10  2  0
 10 11  1  0
 11 12  1  0
 12 13  1  0
 13 14  1  0
 14 15  1  0
 15 16  1  0
 16 17  2  0
 16 18  1  0
 18 19  1  0
 19 20  2  0
 11 21  2  0
 21 22  1  0
 22 23  2  0
 23 24  1  0
 24 25  2  0
 25 26  1  0
 26 27  2  0
  5 28  1  0
 28 29  2  0
 29  3  1  0
 27  9  1  0
 19 13  1  0
 27 22  1  0
  1 30  1  0
  1 31  1  0
  1 32  1  0
  2 33  1  0
  2 34  1  0
  4 35  1  0
 10 36  1  0
 12 37  1  0
 13 38  1  6
 14 39  1  0
 14 40  1  0
 15 41  1  0
 15 42  1  0
 18 43  1  0
 23 44  1  0
 24 45  1  0
 25 46  1  0
 26 47  1  0
 28 48  1  0
M  END
>  <meeko>  (1478) 
{"is_sidechain": [true], "free_energy": -10.01, "intermolecular_energy": 0.0, "internal_energy": -10.01, "cluster_size": 16, "cluster_id": 1, "rank_in_cluster": 1}

>  <_RMSD_MCS_to_ref>  (1478) 
0.46883081525570974

$$$$
ligand
     RDKit          3D

 46 49  0  0  0  0  0  0  0  0999 V2000
   18.8250   19.0180    7.5350 C   0  0  0  0  0  0  0  0  0  0  0  0
   18.5200   17.5410    7.7330 C   0  0  0  0  0  0  0  0  0  0  0  0
   19.7270   16.7670    8.1300 C   0  0  0  0  0  0  0  0  0  0  0  0
   20.0930   16.3190    9.3840 C   0  0  0  0  0  0  0  0  0  0  0  0
   21.2790   15.6790    9.1800 N   0  0  0  0  0  0  0  0  0  0  0  0
   22.3110   15.0810   10.3590 S   0  0  0  0  0  6  0  0  0  0  0  0
   22.1380   13.6390   10.3190 O   0  0  0  0  0  0  0  0  0  0  0  0
   22.0120   15.8180   11.5760 O   0  0  0  0  0  0  0  0  0  0  0  0
   23.9230   15.5140    9.7330 C   0  0  0  0  0  0  0  0  0  0  0  0
   24.0700   15.1840    8.4160 N   0  0  0  0  0  0  0  0  0  0  0  0
   25.2650   15.4470    7.8500 C   0  0  0  0  0  0  0  0  0  0  0  0
   26.3210   16.0250    8.5330 C   0  0  0  0  0  0  0  0  0  0  0  0
   26.1410   16.3560    9.8760 C   0  0  0  0  0  0  0  0  0  0  0  0
   24.9190   16.0970   10.5060 C   0  0  0  0  0  0  0  0  0  0  0  0
   24.7510   16.4900   11.8740 C   0  0  0  0  0  0  0  0  0  0  0  0
   25.0710   17.7130   12.4120 C   0  0  0  0  0  0  0  0  0  0  0  0
   24.7840   17.5610   13.7390 N   0  0  0  0  0  0  0  0  0  0  0  0
   25.0920   18.4460   14.8510 C   0  0  1  0  0  0  0  0  0  0  0  0
   26.1730   17.8360   15.7460 C   0  0  0  0  0  0  0  0  0  0  0  0
   26.4430   18.7550   16.9270 C   0  0  0  0  0  0  0  0  0  0  0  0
   26.8250   20.1400   16.4640 C   0  0  0  0  0  0  0  0  0  0  0  0
   27.5150   20.8940   17.1410 O   0  0  0  0  0  0  0  0  0  0  0  0
   26.3060   20.5450   15.2590 N   0  0  0  0  0  0  0  0  0  0  0  0
   25.5030   19.8340   14.3930 C   0  0  0  0  0  0  0  0  0  0  0  0
   25.1290   20.3540   13.3450 O   0  0  0  0  0  0  0  0  0  0  0  0
   24.2950   16.3300   13.9920 N   0  0  0  0  0  0  0  0  0  0  0  0
   24.2590   15.6680   12.8430 N   0  0  0  0  0  0  0  0  0  0  0  0
   21.6120   15.7700    7.8660 C   0  0  0  0  0  0  0  0  0  0  0  0
   20.6810   16.4170    7.1960 N   0  0  0  0  0  0  0  0  0  0  0  0
   18.9258   19.5062    8.5155 H   0  0  0  0  0  0  0  0  0  0  0  0
   19.7645   19.1263    6.9731 H   0  0  0  0  0  0  0  0  0  0  0  0
   18.0053   19.4896    6.9731 H   0  0  0  0  0  0  0  0  0  0  0  0
   17.7586   17.4388    8.5203 H   0  0  0  0  0  0  0  0  0  0  0  0
   18.1606   17.1386    6.7744 H   0  0  0  0  0  0  0  0  0  0  0  0
   19.5506   16.4491   10.3321 H   0  0  0  0  0  0  0  0  0  0  0  0
   25.4082   15.1888    6.7904 H   0  0  0  0  0  0  0  0  0  0  0  0
   27.2793   16.2187    8.0288 H   0  0  0  0  0  0  0  0  0  0  0  0
   26.9618   16.8218   10.4411 H   0  0  0  0  0  0  0  0  0  0  0  0
   25.4643   18.6021   11.8973 H   0  0  0  0  0  0  0  0  0  0  0  0
   24.1658   18.5586   15.4337 H   0  0  0  0  0  0  0  0  0  0  0  0
   25.8321   16.8575   16.1152 H   0  0  0  0  0  0  0  0  0  0  0  0
   27.0982   17.7109   15.1642 H   0  0  0  0  0  0  0  0  0  0  0  0
   25.5356   18.8208   17.5454 H   0  0  0  0  0  0  0  0  0  0  0  0
   27.2789   18.3389   17.5085 H   0  0  0  0  0  0  0  0  0  0  0  0
   26.5475   21.5021   14.9646 H   0  0  0  0  0  0  0  0  0  0  0  0
   22.5317   15.3601    7.4232 H   0  0  0  0  0  0  0  0  0  0  0  0
  1  2  1  0
  2  3  1  0
  3  4  2  0
  4  5  1  0
  5  6  1  0
  6  7  2  0
  6  8  2  0
  6  9  1  0
  9 10  2  0
 10 11  1  0
 11 12  2  0
 12 13  1  0
 13 14  2  0
 14 15  1  0
 15 16  2  0
 16 17  1  0
 17 18  1  0
 18 19  1  0
 19 20  1  0
 20 21  1  0
 21 22  2  0
 21 23  1  0
 23 24  1  0
 24 25  2  0
 17 26  1  0
 26 27  2  0
  5 28  1  0
 28 29  2  0
 29  3  1  0
 14  9  1  0
 27 15  1  0
 24 18  1  0
  1 30  1  0
  1 31  1  0
  1 32  1  0
  2 33  1  0
  2 34  1  0
  4 35  1  0
 11 36  1  0
 12 37  1  0
 13 38  1  0
 16 39  1  0
 18 40  1  1
 19 41  1  0
 19 42  1  0
 20 43  1  0
 20 44  1  0
 23 45  1  0
 28 46  1  0
M  END
>  <meeko>  (1479) 
{"is_sidechain": [true], "free_energy": -10.01, "intermolecular_energy": 0.0, "internal_energy": -10.01, "cluster_size": 11, "cluster_id": 1, "rank_in_cluster": 1}

>  <_RMSD_MCS_to_ref>  (1479) 
0.33140123382054204

$$$$
ligand
     RDKit          3D

 53 57  0  0  0  0  0  0  0  0999 V2000
   18.8250   19.0170    7.5350 C   0  0  0  0  0  0  0  0  0  0  0  0
   18.5200   17.5420    7.7330 C   0  0  0  0  0  0  0  0  0  0  0  0
   19.7200   16.6860    7.5240 C   0  0  0  0  0  0  0  0  0  0  0  0
   20.5740   16.1420    8.4630 C   0  0  0  0  0  0  0  0  0  0  0  0
   21.4870   15.4490    7.7220 N   0  0  0  0  0  0  0  0  0  0  0  0
   22.7970   14.5990    8.3360 S   0  0  0  0  0  6  0  0  0  0  0  0
   22.2640   13.2760    8.6060 O   0  0  0  0  0  0  0  0  0  0  0  0
   23.9090   14.8020    7.4290 O   0  0  0  0  0  0  0  0  0  0  0  0
   23.1980   15.3660    9.8930 C   0  0  0  0  0  0  0  0  0  0  0  0
   22.1480   15.4740   10.8410 C   0  0  0  0  0  0  0  0  0  0  0  0
   22.3630   16.0660   12.0850 C   0  0  0  0  0  0  0  0  0  0  0  0
   23.6360   16.5260   12.3530 C   0  0  0  0  0  0  0  0  0  0  0  0
   24.6870   16.4240   11.4420 C   0  0  0  0  0  0  0  0  0  0  0  0
   24.4910   15.8420   10.1900 C   0  0  0  0  0  0  0  0  0  0  0  0
   25.6130   15.7540    9.2890 C   0  0  0  0  0  0  0  0  0  0  0  0
   26.5540   14.7270    9.0680 C   0  0  0  0  0  0  0  0  0  0  0  0
   27.4550   15.0600    8.1420 N   0  0  0  0  0  0  0  0  0  0  0  0
   27.0850   16.2930    7.7570 N   0  0  0  0  0  0  0  0  0  0  0  0
   26.0090   16.7720    8.4500 C   0  0  0  0  0  0  0  0  0  0  0  0
   25.9250   17.0160   12.0400 C   0  0  0  0  0  0  0  0  0  0  0  0
   25.4920   17.3860   13.3820 N   0  0  0  0  0  0  0  0  0  0  0  0
   26.2660   18.2540   14.2620 C   0  0  1  0  0  0  0  0  0  0  0  0
   25.7630   19.6930   14.2580 C   0  0  0  0  0  0  0  0  0  0  0  0
   26.6690   20.5480   15.1320 C   0  0  0  0  0  0  0  0  0  0  0  0
   26.7660   19.9840   16.5310 C   0  0  0  0  0  0  0  0  0  0  0  0
   26.8450   20.7000   17.5250 O   0  0  0  0  0  0  0  0  0  0  0  0
   26.7810   18.6170   16.6430 N   0  0  0  0  0  0  0  0  0  0  0  0
   26.2830   17.7350   15.7110 C   0  0  0  0  0  0  0  0  0  0  0  0
   25.8800   16.6270   16.0560 O   0  0  0  0  0  0  0  0  0  0  0  0
   24.1340   17.1840   13.5650 C   0  0  0  0  0  0  0  0  0  0  0  0
   23.4520   17.4840   14.5250 O   0  0  0  0  0  0  0  0  0  0  0  0
   21.1660   15.5480    6.4080 C   0  0  0  0  0  0  0  0  0  0  0  0
   20.1110   16.3230    6.2500 N   0  0  0  0  0  0  0  0  0  0  0  0
   18.9260   19.5054    8.5155 H   0  0  0  0  0  0  0  0  0  0  0  0
   19.7645   19.1250    6.9731 H   0  0  0  0  0  0  0  0  0  0  0  0
   18.0054   19.4887    6.9731 H   0  0  0  0  0  0  0  0  0  0  0  0
   18.1516   17.3911    8.7584 H   0  0  0  0  0  0  0  0  0  0  0  0
   17.7641   17.2509    6.9888 H   0  0  0  0  0  0  0  0  0  0  0  0
   20.5288   16.2438    9.5573 H   0  0  0  0  0  0  0  0  0  0  0  0
   21.1499   15.0851   10.5910 H   0  0  0  0  0  0  0  0  0  0  0  0
   21.5519   16.1623   12.8218 H   0  0  0  0  0  0  0  0  0  0  0  0
   26.5460   13.7630    9.5978 H   0  0  0  0  0  0  0  0  0  0  0  0
   27.5637   16.8232    7.0150 H   0  0  0  0  0  0  0  0  0  0  0  0
   25.5520   17.7682    8.3567 H   0  0  0  0  0  0  0  0  0  0  0  0
   26.7394   16.2775   12.0762 H   0  0  0  0  0  0  0  0  0  0  0  0
   26.3246   17.8629   11.4629 H   0  0  0  0  0  0  0  0  0  0  0  0
   27.2891   18.2400   13.8582 H   0  0  0  0  0  0  0  0  0  0  0  0
   25.7721   20.0820   13.2291 H   0  0  0  0  0  0  0  0  0  0  0  0
   24.7365   19.7243   14.6520 H   0  0  0  0  0  0  0  0  0  0  0  0
   27.6742   20.5779   14.6862 H   0  0  0  0  0  0  0  0  0  0  0  0
   26.2424   21.5601   15.1922 H   0  0  0  0  0  0  0  0  0  0  0  0
   27.1996   18.2174   17.4951 H   0  0  0  0  0  0  0  0  0  0  0  0
   21.7089   15.0520    5.5899 H   0  0  0  0  0  0  0  0  0  0  0  0
  1  2  1  0
  2  3  1  0
  3  4  2  0
  4  5  1  0
  5  6  1  0
  6  7  2  0
  6  8  2  0
  6  9  1  0
  9 10  2  0
 10 11  1  0
 11 12  2  0
 12 13  1  0
 13 14  2  0
 14 15  1  0
 15 16  1  0
 16 17  2  0
 17 18  1  0
 18 19  1  0
 13 20  1  0
 20 21  1  0
 21 22  1  0
 22 23  1  0
 23 24  1  0
 24 25  1  0
 25 26  2  0
 25 27  1  0
 27 28  1  0
 28 29  2  0
 21 30  1  0
 30 31  2  0
  5 32  1  0
 32 33  2  0
 33  3  1  0
 14  9  1  0
 19 15  2  0
 28 22  1  0
 30 12  1  0
  1 34  1  0
  1 35  1  0
  1 36  1  0
  2 37  1  0
  2 38  1  0
  4 39  1  0
 10 40  1  0
 11 41  1  0
 16 42  1  0
 18 43  1  0
 19 44  1  0
 20 45  1  0
 20 46  1  0
 22 47  1  6
 23 48  1  0
 23 49  1  0
 24 50  1  0
 24 51  1  0
 27 52  1  0
 32 53  1  0
M  END
>  <meeko>  (1480) 
{"is_sidechain": [true], "free_energy": -10.01, "intermolecular_energy": 0.0, "internal_energy": -10.01, "cluster_size": 10, "cluster_id": 1, "rank_in_cluster": 1}

>  <_RMSD_MCS_to_ref>  (1480) 
1.7958243077886116

$$$$
ligand
     RDKit          3D

 48 51  0  0  0  0  0  0  0  0999 V2000
   18.7970   18.8170    7.7190 C   0  0  0  0  0  0  0  0  0  0  0  0
   18.5280   17.3290    7.8810 C   0  0  0  0  0  0  0  0  0  0  0  0
   19.6220   16.4940    7.3150 C   0  0  0  0  0  0  0  0  0  0  0  0
   20.7610   16.0190    7.9330 C   0  0  0  0  0  0  0  0  0  0  0  0
   21.3880   15.2870    6.9640 N   0  0  0  0  0  0  0  0  0  0  0  0
   22.9630   14.6830    7.0530 S   0  0  0  0  0  6  0  0  0  0  0  0
   23.7920   15.7640    6.5510 O   0  0  0  0  0  0  0  0  0  0  0  0
   22.8940   13.4120    6.3510 O   0  0  0  0  0  0  0  0  0  0  0  0
   23.2830   14.4060    8.7430 C   0  0  0  0  0  0  0  0  0  0  0  0
   22.8040   13.2090    9.4270 C   0  0  0  0  0  0  0  0  0  0  0  0
   23.0420   13.0110   10.7370 C   0  0  0  0  0  0  0  0  0  0  0  0
   23.7760   13.9860   11.4680 C   0  0  0  0  0  0  0  0  0  0  0  0
   24.1880   14.1070   12.7710 C   0  0  0  0  0  0  0  0  0  0  0  0
   24.8880   15.3350   12.8270 C   0  0  0  0  0  0  0  0  0  0  0  0
   25.5350   15.9270   14.0070 C   0  0  0  0  0  0  0  0  0  0  0  0
   25.8400   15.2720   15.0000 O   0  0  0  0  0  0  0  0  0  0  0  0
   25.7740   17.2750   13.8880 N   0  0  0  0  0  0  0  0  0  0  0  0
   26.5550   18.0190   14.8570 C   0  0  2  0  0  0  0  0  0  0  0  0
   26.0200   17.8450   16.2750 C   0  0  0  0  0  0  0  0  0  0  0  0
   26.8640   18.6630   17.2400 C   0  0  0  0  0  0  0  0  0  0  0  0
   26.9090   20.1170   16.8330 C   0  0  0  0  0  0  0  0  0  0  0  0
   26.9830   21.0280   17.6520 O   0  0  0  0  0  0  0  0  0  0  0  0
   26.8970   20.3790   15.4860 N   0  0  0  0  0  0  0  0  0  0  0  0
   26.5280   19.5070   14.4900 C   0  0  0  0  0  0  0  0  0  0  0  0
   26.2200   19.9200   13.3730 O   0  0  0  0  0  0  0  0  0  0  0  0
   24.9120   15.9440   11.6250 N   0  0  0  0  0  0  0  0  0  0  0  0
   24.2340   15.1170   10.7930 N   0  0  0  0  0  0  0  0  0  0  0  0
   23.9850   15.3190    9.4370 C   0  0  0  0  0  0  0  0  0  0  0  0
   20.6820   15.3850    5.8070 C   0  0  0  0  0  0  0  0  0  0  0  0
   19.5930   16.1030    5.9900 N   0  0  0  0  0  0  0  0  0  0  0  0
   18.8815   19.2845    8.7111 H   0  0  0  0  0  0  0  0  0  0  0  0
   19.7359   18.9616    7.1643 H   0  0  0  0  0  0  0  0  0  0  0  0
   17.9682   19.2812    7.1643 H   0  0  0  0  0  0  0  0  0  0  0  0
   18.4276   17.1020    8.9526 H   0  0  0  0  0  0  0  0  0  0  0  0
   17.6044   17.0916    7.3326 H   0  0  0  0  0  0  0  0  0  0  0  0
   21.0892   16.1904    8.9688 H   0  0  0  0  0  0  0  0  0  0  0  0
   22.2378   12.4544    8.8613 H   0  0  0  0  0  0  0  0  0  0  0  0
   22.6724   12.1039   11.2375 H   0  0  0  0  0  0  0  0  0  0  0  0
   24.0118   13.4005   13.5955 H   0  0  0  0  0  0  0  0  0  0  0  0
   25.3827   17.7769   13.0781 H   0  0  0  0  0  0  0  0  0  0  0  0
   27.5834   17.6294   14.8323 H   0  0  0  0  0  0  0  0  0  0  0  0
   24.9763   18.1899   16.3179 H   0  0  0  0  0  0  0  0  0  0  0  0
   26.0674   16.7827   16.5567 H   0  0  0  0  0  0  0  0  0  0  0  0
   26.4311   18.5864   18.2483 H   0  0  0  0  0  0  0  0  0  0  0  0
   27.8900   18.2666   17.2259 H   0  0  0  0  0  0  0  0  0  0  0  0
   27.1934   21.3209   15.1930 H   0  0  0  0  0  0  0  0  0  0  0  0
   24.3616   16.2228    8.9357 H   0  0  0  0  0  0  0  0  0  0  0  0
   20.9785   14.9285    4.8511 H   0  0  0  0  0  0  0  0  0  0  0  0
  1  2  1  0
  2  3  1  0
  3  4  2  0
  4  5  1  0
  5  6  1  0
  6  7  2  0
  6  8  2  0
  6  9  1  0
  9 10  1  0
 10 11  2  0
 11 12  1  0
 12 13  2  0
 13 14  1  0
 14 15  1  0
 15 16  2  0
 15 17  1  0
 17 18  1  0
 18 19  1  0
 19 20  1  0
 20 21  1  0
 21 22  2  0
 21 23  1  0
 23 24  1  0
 24 25  2  0
 14 26  2  0
 26 27  1  0
 27 28  1  0
  5 29  1  0
 29 30  2  0
 30  3  1  0
 28  9  2  0
 27 12  1  0
 24 18  1  0
  1 31  1  0
  1 32  1  0
  1 33  1  0
  2 34  1  0
  2 35  1  0
  4 36  1  0
 10 37  1  0
 11 38  1  0
 13 39  1  0
 17 40  1  0
 18 41  1  1
 19 42  1  0
 19 43  1  0
 20 44  1  0
 20 45  1  0
 23 46  1  0
 28 47  1  0
 29 48  1  0
M  END
>  <meeko>  (1481) 
{"is_sidechain": [true], "free_energy": -10.01, "intermolecular_energy": 0.0, "internal_energy": -10.01, "cluster_size": 17, "cluster_id": 1, "rank_in_cluster": 1}

>  <_RMSD_MCS_to_ref>  (1481) 
0.9520732931636902

$$$$
ligand
     RDKit          3D

 47 50  0  0  0  0  0  0  0  0999 V2000
   18.7970   18.8170    7.7190 C   0  0  0  0  0  0  0  0  0  0  0  0
   18.5280   17.3290    7.8810 C   0  0  0  0  0  0  0  0  0  0  0  0
   19.7850   16.5430    8.0020 C   0  0  0  0  0  0  0  0  0  0  0  0
   20.1210   15.5770    8.9300 C   0  0  0  0  0  0  0  0  0  0  0  0
   21.3780   15.1870    8.5660 N   0  0  0  0  0  0  0  0  0  0  0  0
   22.3310   14.0610    9.3840 S   0  0  0  0  0  6  0  0  0  0  0  0
   21.4530   13.5790   10.4410 O   0  0  0  0  0  0  0  0  0  0  0  0
   22.8010   13.1430    8.3620 O   0  0  0  0  0  0  0  0  0  0  0  0
   23.6880   14.8420   10.1130 C   0  0  0  0  0  0  0  0  0  0  0  0
   23.5050   15.4830   11.2780 C   0  0  0  0  0  0  0  0  0  0  0  0
   24.7020   16.1150   11.8930 C   0  0  0  0  0  0  0  0  0  0  0  0
   24.4790   16.8530   13.2170 C   0  0  0  0  0  0  0  0  0  0  0  0
   23.3530   17.0100   13.6600 O   0  0  0  0  0  0  0  0  0  0  0  0
   25.6360   17.3030   13.8020 N   0  0  0  0  0  0  0  0  0  0  0  0
   25.6300   18.1780   14.9600 C   0  0  1  0  0  0  0  0  0  0  0  0
   26.4950   17.6360   16.0930 C   0  0  0  0  0  0  0  0  0  0  0  0
   26.4730   18.6090   17.2610 C   0  0  0  0  0  0  0  0  0  0  0  0
   26.9110   19.9910   16.8330 C   0  0  0  0  0  0  0  0  0  0  0  0
   27.5270   20.7460   17.5780 O   0  0  0  0  0  0  0  0  0  0  0  0
   26.5570   20.3810   15.5660 N   0  0  0  0  0  0  0  0  0  0  0  0
   26.1540   19.5570   14.5440 C   0  0  0  0  0  0  0  0  0  0  0  0
   26.2010   19.9290   13.3730 O   0  0  0  0  0  0  0  0  0  0  0  0
   25.9090   16.0890   11.4040 N   0  0  0  0  0  0  0  0  0  0  0  0
   25.9940   15.4060   10.2330 N   0  0  0  0  0  0  0  0  0  0  0  0
   27.1370   15.2230    9.5080 C   0  0  0  0  0  0  0  0  0  0  0  0
   26.7650   14.4820    8.4120 C   0  0  0  0  0  0  0  0  0  0  0  0
   25.4210   14.2070    8.4460 N   0  0  0  0  0  0  0  0  0  0  0  0
   24.9740   14.7740    9.5440 C   0  0  0  0  0  0  0  0  0  0  0  0
   21.7800   15.9170    7.4950 C   0  0  0  0  0  0  0  0  0  0  0  0
   20.8240   16.7380    7.1110 N   0  0  0  0  0  0  0  0  0  0  0  0
   18.8815   19.2845    8.7111 H   0  0  0  0  0  0  0  0  0  0  0  0
   19.7359   18.9616    7.1643 H   0  0  0  0  0  0  0  0  0  0  0  0
   17.9682   19.2812    7.1643 H   0  0  0  0  0  0  0  0  0  0  0  0
   17.9243   17.1743    8.7875 H   0  0  0  0  0  0  0  0  0  0  0  0
   17.9962   16.9812    6.9831 H   0  0  0  0  0  0  0  0  0  0  0  0
   19.5149   15.2066    9.7699 H   0  0  0  0  0  0  0  0  0  0  0  0
   22.5156   15.5382   11.7555 H   0  0  0  0  0  0  0  0  0  0  0  0
   26.5402   17.0096   13.4054 H   0  0  0  0  0  0  0  0  0  0  0  0
   24.5960   18.2443   15.3295 H   0  0  0  0  0  0  0  0  0  0  0  0
   26.1018   16.6622   16.4202 H   0  0  0  0  0  0  0  0  0  0  0  0
   27.5289   17.5148   15.7376 H   0  0  0  0  0  0  0  0  0  0  0  0
   25.4499   18.6653   17.6612 H   0  0  0  0  0  0  0  0  0  0  0  0
   27.1719   18.2456   18.0288 H   0  0  0  0  0  0  0  0  0  0  0  0
   26.5975   21.3897   15.3616 H   0  0  0  0  0  0  0  0  0  0  0  0
   28.1446   15.5916    9.7506 H   0  0  0  0  0  0  0  0  0  0  0  0
   27.4505   14.1543    7.6166 H   0  0  0  0  0  0  0  0  0  0  0  0
   22.7662   15.8347    7.0147 H   0  0  0  0  0  0  0  0  0  0  0  0
  1  2  1  0
  2  3  1  0
  3  4  2  0
  4  5  1  0
  5  6  1  0
  6  7  2  0
  6  8  2  0
  6  9  1  0
  9 10  2  0
 10 11  1  0
 11 12  1  0
 12 13  2  0
 12 14  1  0
 14 15  1  0
 15 16  1  0
 16 17  1  0
 17 18  1  0
 18 19  2  0
 18 20  1  0
 20 21  1  0
 21 22  2  0
 11 23  2  0
 23 24  1  0
 24 25  1  0
 25 26  2  0
 26 27  1  0
 27 28  2  0
  5 29  1  0
 29 30  2  0
 30  3  1  0
 28  9  1  0
 21 15  1  0
 28 24  1  0
  1 31  1  0
  1 32  1  0
  1 33  1  0
  2 34  1  0
  2 35  1  0
  4 36  1  0
 10 37  1  0
 14 38  1  0
 15 39  1  1
 16 40  1  0
 16 41  1  0
 17 42  1  0
 17 43  1  0
 20 44  1  0
 25 45  1  0
 26 46  1  0
 29 47  1  0
M  END
>  <meeko>  (1482) 
{"is_sidechain": [true], "free_energy": -10.01, "intermolecular_energy": 0.0, "internal_energy": -10.01, "cluster_size": 9, "cluster_id": 1, "rank_in_cluster": 1}

>  <_RMSD_MCS_to_ref>  (1482) 
0.6720832455052635

$$$$
ligand
     RDKit          3D

 48 51  0  0  0  0  0  0  0  0999 V2000
   18.7970   18.8170    7.7190 C   0  0  0  0  0  0  0  0  0  0  0  0
   18.5280   17.3290    7.8810 C   0  0  0  0  0  0  0  0  0  0  0  0
   19.5900   16.4940    7.2570 C   0  0  0  0  0  0  0  0  0  0  0  0
   20.7230   15.9560    7.8360 C   0  0  0  0  0  0  0  0  0  0  0  0
   21.3490   15.3090    6.8080 N   0  0  0  0  0  0  0  0  0  0  0  0
   22.6750   14.2870    6.9480 S   0  0  0  0  0  6  0  0  0  0  0  0
   23.7930   15.0060    6.3690 O   0  0  0  0  0  0  0  0  0  0  0  0
   22.2340   13.0000    6.4470 O   0  0  0  0  0  0  0  0  0  0  0  0
   22.9210   14.1660    8.6990 C   0  0  0  0  0  0  0  0  0  0  0  0
   22.2540   13.1830    9.4220 C   0  0  0  0  0  0  0  0  0  0  0  0
   22.4470   13.0840   10.8030 C   0  0  0  0  0  0  0  0  0  0  0  0
   23.3270   13.9820   11.4380 C   0  0  0  0  0  0  0  0  0  0  0  0
   23.7120   14.0420   13.1150 S   0  0  0  0  0  0  0  0  0  0  0  0
   24.7850   15.3560   12.9150 C   0  0  0  0  0  0  0  0  0  0  0  0
   25.5100   15.9530   14.0270 C   0  0  0  0  0  0  0  0  0  0  0  0
   25.9590   15.2920   14.9620 O   0  0  0  0  0  0  0  0  0  0  0  0
   25.6800   17.3180   13.9800 N   0  0  0  0  0  0  0  0  0  0  0  0
   26.5110   18.0290   14.9370 C   0  0  2  0  0  0  0  0  0  0  0  0
   26.0050   17.8750   16.3670 C   0  0  0  0  0  0  0  0  0  0  0  0
   26.8970   18.6690   17.3100 C   0  0  0  0  0  0  0  0  0  0  0  0
   26.9800   20.1200   16.8940 C   0  0  0  0  0  0  0  0  0  0  0  0
   27.0850   21.0330   17.7070 O   0  0  0  0  0  0  0  0  0  0  0  0
   26.9610   20.3740   15.5460 N   0  0  0  0  0  0  0  0  0  0  0  0
   26.5190   19.5170   14.5700 C   0  0  0  0  0  0  0  0  0  0  0  0
   26.1660   19.9340   13.4680 O   0  0  0  0  0  0  0  0  0  0  0  0
   24.8500   15.7430   11.5910 C   0  0  0  0  0  0  0  0  0  0  0  0
   24.0140   14.9650   10.7240 C   0  0  0  0  0  0  0  0  0  0  0  0
   23.8080   15.0520    9.3260 C   0  0  0  0  0  0  0  0  0  0  0  0
   20.5900   15.4190    5.6860 C   0  0  0  0  0  0  0  0  0  0  0  0
   19.5170   16.1440    5.9240 N   0  0  0  0  0  0  0  0  0  0  0  0
   18.8815   19.2845    8.7111 H   0  0  0  0  0  0  0  0  0  0  0  0
   19.7359   18.9616    7.1643 H   0  0  0  0  0  0  0  0  0  0  0  0
   17.9682   19.2812    7.1643 H   0  0  0  0  0  0  0  0  0  0  0  0
   18.4769   17.0931    8.9542 H   0  0  0  0  0  0  0  0  0  0  0  0
   17.5784   17.1007    7.3750 H   0  0  0  0  0  0  0  0  0  0  0  0
   21.0471   16.0312    8.8845 H   0  0  0  0  0  0  0  0  0  0  0  0
   21.5763   12.4851    8.9085 H   0  0  0  0  0  0  0  0  0  0  0  0
   21.9187   12.3152   11.3859 H   0  0  0  0  0  0  0  0  0  0  0  0
   25.2020   17.8538   13.2415 H   0  0  0  0  0  0  0  0  0  0  0  0
   27.5230   17.6003   14.8920 H   0  0  0  0  0  0  0  0  0  0  0  0
   24.9738   18.2522   16.4335 H   0  0  0  0  0  0  0  0  0  0  0  0
   26.0263   16.8124   16.6506 H   0  0  0  0  0  0  0  0  0  0  0  0
   26.4842   18.6109   18.3280 H   0  0  0  0  0  0  0  0  0  0  0  0
   27.9089   18.2390   17.2760 H   0  0  0  0  0  0  0  0  0  0  0  0
   27.3107   21.2926   15.2383 H   0  0  0  0  0  0  0  0  0  0  0  0
   25.4829   16.5694   11.2354 H   0  0  0  0  0  0  0  0  0  0  0  0
   24.3413   15.8110    8.7348 H   0  0  0  0  0  0  0  0  0  0  0  0
   20.8375   14.9657    4.7148 H   0  0  0  0  0  0  0  0  0  0  0  0
  1  2  1  0
  2  3  1  0
  3  4  2  0
  4  5  1  0
  5  6  1  0
  6  7  2  0
  6  8  2  0
  6  9  1  0
  9 10  2  0
 10 11  1  0
 11 12  2  0
 12 13  1  0
 13 14  1  0
 14 15  1  0
 15 16  2  0
 15 17  1  0
 17 18  1  0
 18 19  1  0
 19 20  1  0
 20 21  1  0
 21 22  2  0
 21 23  1  0
 23 24  1  0
 24 25  2  0
 14 26  2  0
 26 27  1  0
 27 28  2  0
  5 29  1  0
 29 30  2  0
 30  3  1  0
 28  9  1  0
 27 12  1  0
 24 18  1  0
  1 31  1  0
  1 32  1  0
  1 33  1  0
  2 34  1  0
  2 35  1  0
  4 36  1  0
 10 37  1  0
 11 38  1  0
 17 39  1  0
 18 40  1  1
 19 41  1  0
 19 42  1  0
 20 43  1  0
 20 44  1  0
 23 45  1  0
 26 46  1  0
 28 47  1  0
 29 48  1  0
M  END
>  <meeko>  (1483) 
{"is_sidechain": [true], "free_energy": -10.01, "intermolecular_energy": 0.0, "internal_energy": -10.01, "cluster_size": 13, "cluster_id": 1, "rank_in_cluster": 1}

>  <_RMSD_MCS_to_ref>  (1483) 
0.9357654620683531

$$$$
ligand
     RDKit          3D

 47 50  0  0  0  0  0  0  0  0999 V2000
   18.7970   18.8170    7.7190 C   0  0  0  0  0  0  0  0  0  0  0  0
   18.5280   17.3290    7.8810 C   0  0  0  0  0  0  0  0  0  0  0  0
   19.7560   16.5120    7.6780 C   0  0  0  0  0  0  0  0  0  0  0  0
   20.7390   16.1790    8.5880 C   0  0  0  0  0  0  0  0  0  0  0  0
   21.6380   15.4510    7.8600 N   0  0  0  0  0  0  0  0  0  0  0  0
   22.8970   14.5380    8.4960 S   0  0  0  0  0  6  0  0  0  0  0  0
   22.7800   13.2290    7.8890 O   0  0  0  0  0  0  0  0  0  0  0  0
   24.0780   15.3700    8.3940 O   0  0  0  0  0  0  0  0  0  0  0  0
   22.5960   14.3090   10.2290 C   0  0  0  0  0  0  0  0  0  0  0  0
   21.6350   13.6240   10.9370 C   0  0  0  0  0  0  0  0  0  0  0  0
   21.7970   13.7330   12.3610 C   0  0  0  0  0  0  0  0  0  0  0  0
   21.0110   13.1920   13.3930 C   0  0  0  0  0  0  0  0  0  0  0  0
   21.3060   13.4160   14.6890 N   0  0  0  0  0  0  0  0  0  0  0  0
   22.3860   14.1660   14.9900 C   0  0  0  0  0  0  0  0  0  0  0  0
   23.2470   14.7320   14.0560 C   0  0  0  0  0  0  0  0  0  0  0  0
   24.3920   15.5180   14.5630 C   0  0  0  0  0  0  0  0  0  0  0  0
   25.3850   14.9400   14.9920 O   0  0  0  0  0  0  0  0  0  0  0  0
   24.3140   16.8860   14.4930 N   0  0  0  0  0  0  0  0  0  0  0  0
   25.4400   17.7420   14.8440 C   0  0  2  0  0  0  0  0  0  0  0  0
   25.7510   17.6990   16.3360 C   0  0  0  0  0  0  0  0  0  0  0  0
   26.9090   18.6370   16.6390 C   0  0  0  0  0  0  0  0  0  0  0  0
   26.6170   20.0410   16.1650 C   0  0  0  0  0  0  0  0  0  0  0  0
   27.0300   21.0350   16.7540 O   0  0  0  0  0  0  0  0  0  0  0  0
   25.8850   20.1600   15.0100 N   0  0  0  0  0  0  0  0  0  0  0  0
   25.1040   19.1820   14.4460 C   0  0  0  0  0  0  0  0  0  0  0  0
   24.1990   19.4630   13.6610 O   0  0  0  0  0  0  0  0  0  0  0  0
   22.9190   14.5070   12.7030 C   0  0  0  0  0  0  0  0  0  0  0  0
   23.6990   15.0780   11.2680 S   0  0  0  0  0  0  0  0  0  0  0  0
   21.1710   15.3080    6.5930 C   0  0  0  0  0  0  0  0  0  0  0  0
   20.0290   15.9470    6.4470 N   0  0  0  0  0  0  0  0  0  0  0  0
   18.8815   19.2845    8.7111 H   0  0  0  0  0  0  0  0  0  0  0  0
   19.7359   18.9616    7.1643 H   0  0  0  0  0  0  0  0  0  0  0  0
   17.9682   19.2812    7.1643 H   0  0  0  0  0  0  0  0  0  0  0  0
   18.1443   17.1464    8.8956 H   0  0  0  0  0  0  0  0  0  0  0  0
   17.7941   17.0325    7.1171 H   0  0  0  0  0  0  0  0  0  0  0  0
   20.7877   16.4400    9.6555 H   0  0  0  0  0  0  0  0  0  0  0  0
   20.8252   13.0513   10.4614 H   0  0  0  0  0  0  0  0  0  0  0  0
   20.1378   12.5735   13.1380 H   0  0  0  0  0  0  0  0  0  0  0  0
   22.6019   14.3432   16.0540 H   0  0  0  0  0  0  0  0  0  0  0  0
   23.4333   17.3210   14.1831 H   0  0  0  0  0  0  0  0  0  0  0  0
   26.3271   17.3764   14.3061 H   0  0  0  0  0  0  0  0  0  0  0  0
   24.8642   18.0154   16.9048 H   0  0  0  0  0  0  0  0  0  0  0  0
   26.0245   16.6733   16.6244 H   0  0  0  0  0  0  0  0  0  0  0  0
   27.0813   18.6542   17.7253 H   0  0  0  0  0  0  0  0  0  0  0  0
   27.8005   18.2702   16.1091 H   0  0  0  0  0  0  0  0  0  0  0  0
   25.9254   21.0660   14.5218 H   0  0  0  0  0  0  0  0  0  0  0  0
   21.6762   14.7379    5.7994 H   0  0  0  0  0  0  0  0  0  0  0  0
  1  2  1  0
  2  3  1  0
  3  4  2  0
  4  5  1  0
  5  6  1  0
  6  7  2  0
  6  8  2  0
  6  9  1  0
  9 10  2  0
 10 11  1  0
 11 12  2  0
 12 13  1  0
 13 14  2  0
 14 15  1  0
 15 16  1  0
 16 17  2  0
 16 18  1  0
 18 19  1  0
 19 20  1  0
 20 21  1  0
 21 22  1  0
 22 23  2  0
 22 24  1  0
 24 25  1  0
 25 26  2  0
 15 27  2  0
 27 28  1  0
  5 29  1  0
 29 30  2  0
 30  3  1  0
 28  9  1  0
 27 11  1  0
 25 19  1  0
  1 31  1  0
  1 32  1  0
  1 33  1  0
  2 34  1  0
  2 35  1  0
  4 36  1  0
 10 37  1  0
 12 38  1  0
 14 39  1  0
 18 40  1  0
 19 41  1  6
 20 42  1  0
 20 43  1  0
 21 44  1  0
 21 45  1  0
 24 46  1  0
 29 47  1  0
M  END
>  <meeko>  (1484) 
{"is_sidechain": [true], "free_energy": -10.01, "intermolecular_energy": 0.0, "internal_energy": -10.01, "cluster_size": 17, "cluster_id": 1, "rank_in_cluster": 1}

>  <_RMSD_MCS_to_ref>  (1484) 
0.7036080821972789

$$$$
ligand
     RDKit          3D

 54 58  0  0  0  0  0  0  0  0999 V2000
   18.9090   19.1540    7.5370 C   0  0  0  0  0  0  0  0  0  0  0  0
   18.7730   17.6460    7.6780 C   0  0  0  0  0  0  0  0  0  0  0  0
   19.6880   16.9110    6.7620 C   0  0  0  0  0  0  0  0  0  0  0  0
   20.4390   15.7790    7.0080 C   0  0  0  0  0  0  0  0  0  0  0  0
   21.0640   15.5280    5.8210 N   0  0  0  0  0  0  0  0  0  0  0  0
   22.2790   14.3950    5.5640 S   0  0  0  0  0  6  0  0  0  0  0  0
   21.7410   13.1210    5.9980 O   0  0  0  0  0  0  0  0  0  0  0  0
   22.7480   14.6250    4.2120 O   0  0  0  0  0  0  0  0  0  0  0  0
   23.5550   14.8810    6.6960 C   0  0  0  0  0  0  0  0  0  0  0  0
   24.8170   15.2240    6.1990 C   0  0  0  0  0  0  0  0  0  0  0  0
   25.8270   15.6070    7.0840 C   0  0  0  0  0  0  0  0  0  0  0  0
   25.5690   15.6720    8.4530 C   0  0  0  0  0  0  0  0  0  0  0  0
   24.3010   15.3350    8.9350 C   0  0  0  0  0  0  0  0  0  0  0  0
   23.2800   14.9380    8.0690 C   0  0  0  0  0  0  0  0  0  0  0  0
   24.1350   15.3960   10.3210 N   0  0  0  0  0  0  0  0  0  0  0  0
   23.0880   15.0120   11.1150 C   0  0  0  0  0  0  0  0  0  0  0  0
   23.3410   15.2240   12.3900 N   0  0  0  0  0  0  0  0  0  0  0  0
   24.6050   15.7940   12.4260 C   0  0  0  0  0  0  0  0  0  0  0  0
   25.2500   16.2260   13.6650 C   0  0  0  0  0  0  0  0  0  0  0  0
   25.5000   15.4660   14.5950 O   0  0  0  0  0  0  0  0  0  0  0  0
   25.5570   17.5630   13.6690 N   0  0  0  0  0  0  0  0  0  0  0  0
   26.3400   18.1800   14.7230 C   0  0  2  0  0  0  0  0  0  0  0  0
   25.6970   17.9910   16.0940 C   0  0  0  0  0  0  0  0  0  0  0  0
   26.5500   18.6730   17.1520 C   0  0  0  0  0  0  0  0  0  0  0  0
   26.7630   20.1320   16.8310 C   0  0  0  0  0  0  0  0  0  0  0  0
   26.8750   20.9890   17.7020 O   0  0  0  0  0  0  0  0  0  0  0  0
   26.8650   20.4590   15.5020 N   0  0  0  0  0  0  0  0  0  0  0  0
   26.4840   19.6780   14.4380 C   0  0  0  0  0  0  0  0  0  0  0  0
   26.3000   20.1750   13.3280 O   0  0  0  0  0  0  0  0  0  0  0  0
   25.1020   15.9050   11.1410 C   0  0  0  0  0  0  0  0  0  0  0  0
   26.3350   16.4920   10.5810 C   0  0  0  0  0  0  0  0  0  0  0  0
   26.6240   15.9950    9.2590 O   0  0  0  0  0  0  0  0  0  0  0  0
   20.7330   16.4960    4.9290 C   0  0  0  0  0  0  0  0  0  0  0  0
   19.8890   17.3510    5.4680 N   0  0  0  0  0  0  0  0  0  0  0  0
   18.9504   19.6134    8.5356 H   0  0  0  0  0  0  0  0  0  0  0  0
   19.8320   19.3891    6.9867 H   0  0  0  0  0  0  0  0  0  0  0  0
   18.0430   19.5504    6.9867 H   0  0  0  0  0  0  0  0  0  0  0  0
   19.0085   17.3644    8.7150 H   0  0  0  0  0  0  0  0  0  0  0  0
   17.7404   17.3738    7.4140 H   0  0  0  0  0  0  0  0  0  0  0  0
   20.5160   15.2097    7.9460 H   0  0  0  0  0  0  0  0  0  0  0  0
   25.0126   15.1922    5.1170 H   0  0  0  0  0  0  0  0  0  0  0  0
   26.8272   15.8577    6.7009 H   0  0  0  0  0  0  0  0  0  0  0  0
   22.2838   14.6763    8.4552 H   0  0  0  0  0  0  0  0  0  0  0  0
   22.1507   14.5796   10.7349 H   0  0  0  0  0  0  0  0  0  0  0  0
   25.2187   18.1513   12.8941 H   0  0  0  0  0  0  0  0  0  0  0  0
   27.3259   17.6923   14.7391 H   0  0  0  0  0  0  0  0  0  0  0  0
   24.6908   18.4356   16.0916 H   0  0  0  0  0  0  0  0  0  0  0  0
   25.6226   16.9169   16.3193 H   0  0  0  0  0  0  0  0  0  0  0  0
   26.0456   18.5908   18.1261 H   0  0  0  0  0  0  0  0  0  0  0  0
   27.5316   18.1773   17.1777 H   0  0  0  0  0  0  0  0  0  0  0  0
   27.2669   21.3811   15.2805 H   0  0  0  0  0  0  0  0  0  0  0  0
   26.2158   17.5844   10.5304 H   0  0  0  0  0  0  0  0  0  0  0  0
   27.1713   16.2101   11.2376 H   0  0  0  0  0  0  0  0  0  0  0  0
   21.1162   16.5576    3.8998 H   0  0  0  0  0  0  0  0  0  0  0  0
  1  2  1  0
  2  3  1  0
  3  4  2  0
  4  5  1  0
  5  6  1  0
  6  7  2  0
  6  8  2  0
  6  9  1  0
  9 10  2  0
 10 11  1  0
 11 12  2  0
 12 13  1  0
 13 14  2  0
 13 15  1  0
 15 16  1  0
 16 17  2  0
 17 18  1  0
 18 19  1  0
 19 20  2  0
 19 21  1  0
 21 22  1  0
 22 23  1  0
 23 24  1  0
 24 25  1  0
 25 26  2  0
 25 27  1  0
 27 28  1  0
 28 29  2  0
 18 30  2  0
 30 31  1  0
 31 32  1  0
  5 33  1  0
 33 34  2  0
 34  3  1  0
 14  9  1  0
 30 15  1  0
 32 12  1  0
 28 22  1  0
  1 35  1  0
  1 36  1  0
  1 37  1  0
  2 38  1  0
  2 39  1  0
  4 40  1  0
 10 41  1  0
 11 42  1  0
 14 43  1  0
 16 44  1  0
 21 45  1  0
 22 46  1  1
 23 47  1  0
 23 48  1  0
 24 49  1  0
 24 50  1  0
 27 51  1  0
 31 52  1  0
 31 53  1  0
 33 54  1  0
M  END
>  <meeko>  (1485) 
{"is_sidechain": [true], "free_energy": -10.01, "intermolecular_energy": 0.0, "internal_energy": -10.01, "cluster_size": 5, "cluster_id": 1, "rank_in_cluster": 1}

>  <_RMSD_MCS_to_ref>  (1485) 
1.0366002658262785

$$$$
ligand
     RDKit          3D

 52 56  0  0  0  0  0  0  0  0999 V2000
   18.9090   19.1540    7.5370 C   0  0  0  0  0  0  0  0  0  0  0  0
   18.7730   17.6460    7.6780 C   0  0  0  0  0  0  0  0  0  0  0  0
   19.6000   16.9110    6.6830 C   0  0  0  0  0  0  0  0  0  0  0  0
   20.9300   16.5490    6.7570 C   0  0  0  0  0  0  0  0  0  0  0  0
   21.1730   15.9200    5.5690 N   0  0  0  0  0  0  0  0  0  0  0  0
   22.5860   15.1390    5.1360 S   0  0  0  0  0  6  0  0  0  0  0  0
   23.4750   16.1500    4.5970 O   0  0  0  0  0  0  0  0  0  0  0  0
   22.1970   13.9570    4.3890 O   0  0  0  0  0  0  0  0  0  0  0  0
   23.3940   14.5320    6.5490 C   0  0  0  0  0  0  0  0  0  0  0  0
   23.4500   15.2790    7.7670 C   0  0  0  0  0  0  0  0  0  0  0  0
   24.1430   14.5800    8.7400 C   0  0  0  0  0  0  0  0  0  0  0  0
   24.4630   14.9500   10.1210 C   0  0  0  0  0  0  0  0  0  0  0  0
   24.6000   13.9330   11.0990 C   0  0  0  0  0  0  0  0  0  0  0  0
   24.9100   14.2370   12.4280 C   0  0  0  0  0  0  0  0  0  0  0  0
   25.0880   15.5680   12.7490 C   0  0  0  0  0  0  0  0  0  0  0  0
   24.9660   16.5890   11.8110 C   0  0  0  0  0  0  0  0  0  0  0  0
   24.6540   16.2950   10.4920 C   0  0  0  0  0  0  0  0  0  0  0  0
   25.1980   17.9110   12.4640 C   0  0  0  0  0  0  0  0  0  0  0  0
   25.5510   17.5360   13.8270 N   0  0  0  0  0  0  0  0  0  0  0  0
   25.6230   18.4860   14.9300 C   0  0  1  0  0  0  0  0  0  0  0  0
   26.3400   17.9120   16.1490 C   0  0  0  0  0  0  0  0  0  0  0  0
   26.2960   18.9250   17.2830 C   0  0  0  0  0  0  0  0  0  0  0  0
   26.8820   20.2500   16.8530 C   0  0  0  0  0  0  0  0  0  0  0  0
   27.5370   20.9560   17.6130 O   0  0  0  0  0  0  0  0  0  0  0  0
   26.6320   20.6400   15.5630 N   0  0  0  0  0  0  0  0  0  0  0  0
   26.3080   19.8010   14.5210 C   0  0  0  0  0  0  0  0  0  0  0  0
   26.5770   20.1140   13.3640 O   0  0  0  0  0  0  0  0  0  0  0  0
   25.4150   16.1720   14.0440 C   0  0  0  0  0  0  0  0  0  0  0  0
   25.5370   15.5620   15.0890 O   0  0  0  0  0  0  0  0  0  0  0  0
   24.6670   13.0980    8.0470 S   0  0  0  0  0  0  0  0  0  0  0  0
   23.9980   13.3420    6.5510 N   0  0  0  0  0  0  0  0  0  0  0  0
   20.0200   15.8620    4.8530 C   0  0  0  0  0  0  0  0  0  0  0  0
   19.0470   16.4790    5.4930 N   0  0  0  0  0  0  0  0  0  0  0  0
   18.9504   19.6134    8.5356 H   0  0  0  0  0  0  0  0  0  0  0  0
   19.8320   19.3891    6.9867 H   0  0  0  0  0  0  0  0  0  0  0  0
   18.0430   19.5504    6.9867 H   0  0  0  0  0  0  0  0  0  0  0  0
   19.0933   17.3545    8.6892 H   0  0  0  0  0  0  0  0  0  0  0  0
   17.7195   17.3841    7.5004 H   0  0  0  0  0  0  0  0  0  0  0  0
   21.6335   16.7265    7.5838 H   0  0  0  0  0  0  0  0  0  0  0  0
   23.0031   16.2738    7.9111 H   0  0  0  0  0  0  0  0  0  0  0  0
   24.4594   12.8821   10.8060 H   0  0  0  0  0  0  0  0  0  0  0  0
   25.0082   13.4474   13.1875 H   0  0  0  0  0  0  0  0  0  0  0  0
   24.5573   17.0993    9.7478 H   0  0  0  0  0  0  0  0  0  0  0  0
   26.0202   18.4556   11.9766 H   0  0  0  0  0  0  0  0  0  0  0  0
   24.3305   18.5849   12.4069 H   0  0  0  0  0  0  0  0  0  0  0  0
   24.5774   18.6948   15.2005 H   0  0  0  0  0  0  0  0  0  0  0  0
   25.8407   16.9844   16.4657 H   0  0  0  0  0  0  0  0  0  0  0  0
   27.3868   17.6936   15.8911 H   0  0  0  0  0  0  0  0  0  0  0  0
   25.2502   19.0770   17.5884 H   0  0  0  0  0  0  0  0  0  0  0  0
   26.8915   18.5358   18.1220 H   0  0  0  0  0  0  0  0  0  0  0  0
   26.6917   21.6471   15.3556 H   0  0  0  0  0  0  0  0  0  0  0  0
   19.9133   15.3689    3.8755 H   0  0  0  0  0  0  0  0  0  0  0  0
  1  2  1  0
  2  3  1  0
  3  4  2  0
  4  5  1  0
  5  6  1  0
  6  7  2  0
  6  8  2  0
  6  9  1  0
  9 10  1  0
 10 11  2  0
 11 12  1  0
 12 13  2  0
 13 14  1  0
 14 15  2  0
 15 16  1  0
 16 17  2  0
 16 18  1  0
 18 19  1  0
 19 20  1  0
 20 21  1  0
 21 22  1  0
 22 23  1  0
 23 24  2  0
 23 25  1  0
 25 26  1  0
 26 27  2  0
 19 28  1  0
 28 29  2  0
 11 30  1  0
 30 31  1  0
  5 32  1  0
 32 33  2  0
 33  3  1  0
 31  9  2  0
 17 12  1  0
 26 20  1  0
 28 15  1  0
  1 34  1  0
  1 35  1  0
  1 36  1  0
  2 37  1  0
  2 38  1  0
  4 39  1  0
 10 40  1  0
 13 41  1  0
 14 42  1  0
 17 43  1  0
 18 44  1  0
 18 45  1  0
 20 46  1  1
 21 47  1  0
 21 48  1  0
 22 49  1  0
 22 50  1  0
 25 51  1  0
 32 52  1  0
M  END
>  <meeko>  (1486) 
{"is_sidechain": [true], "free_energy": -10.01, "intermolecular_energy": 0.0, "internal_energy": -10.01, "cluster_size": 9, "cluster_id": 1, "rank_in_cluster": 1}

>  <_RMSD_MCS_to_ref>  (1486) 
1.3781539786572796

$$$$
ligand
     RDKit          3D

 44 47  0  0  0  0  0  0  0  0999 V2000
   18.9090   19.1540    7.5370 C   0  0  0  0  0  0  0  0  0  0  0  0
   18.7730   17.6460    7.6780 C   0  0  0  0  0  0  0  0  0  0  0  0
   20.0770   16.9470    7.5190 C   0  0  0  0  0  0  0  0  0  0  0  0
   20.7700   16.1800    8.4340 C   0  0  0  0  0  0  0  0  0  0  0  0
   21.8790   15.7660    7.7540 N   0  0  0  0  0  0  0  0  0  0  0  0
   23.1920   14.9650    8.4240 S   0  0  0  0  0  6  0  0  0  0  0  0
   24.3820   15.6070    7.9060 O   0  0  0  0  0  0  0  0  0  0  0  0
   22.9200   13.5530    8.2450 O   0  0  0  0  0  0  0  0  0  0  0  0
   23.2070   15.2160   10.1770 C   0  0  0  0  0  0  0  0  0  0  0  0
   22.5430   14.5760   11.2010 C   0  0  0  0  0  0  0  0  0  0  0  0
   22.8630   15.1100   12.4810 C   0  0  0  0  0  0  0  0  0  0  0  0
   22.3540   14.6700   13.6540 N   0  0  0  0  0  0  0  0  0  0  0  0
   22.8120   15.3260   14.7230 C   0  0  0  0  0  0  0  0  0  0  0  0
   23.6850   16.3440   14.7450 N   0  0  0  0  0  0  0  0  0  0  0  0
   24.1980   16.7920   13.5780 C   0  0  0  0  0  0  0  0  0  0  0  0
   25.1230   17.8330   13.5680 N   0  0  0  0  0  0  0  0  0  0  0  0
   25.2180   18.6410   14.7890 C   0  0  1  0  0  0  0  0  0  0  0  0
   26.1920   17.9920   15.7690 C   0  0  0  0  0  0  0  0  0  0  0  0
   26.3420   18.8710   17.0000 C   0  0  0  0  0  0  0  0  0  0  0  0
   26.8010   20.2600   16.6260 C   0  0  0  0  0  0  0  0  0  0  0  0
   27.4770   20.9550   17.3800 O   0  0  0  0  0  0  0  0  0  0  0  0
   26.3820   20.7380   15.4110 N   0  0  0  0  0  0  0  0  0  0  0  0
   25.7390   20.0390   14.4190 C   0  0  0  0  0  0  0  0  0  0  0  0
   25.5770   20.5320   13.3020 O   0  0  0  0  0  0  0  0  0  0  0  0
   23.7760   16.1560   12.4010 C   0  0  0  0  0  0  0  0  0  0  0  0
   24.2170   16.4600   10.7650 S   0  0  0  0  0  0  0  0  0  0  0  0
   21.8680   16.3090    6.5100 C   0  0  0  0  0  0  0  0  0  0  0  0
   20.7760   17.0240    6.3300 N   0  0  0  0  0  0  0  0  0  0  0  0
   18.9504   19.6134    8.5356 H   0  0  0  0  0  0  0  0  0  0  0  0
   19.8320   19.3891    6.9867 H   0  0  0  0  0  0  0  0  0  0  0  0
   18.0430   19.5504    6.9867 H   0  0  0  0  0  0  0  0  0  0  0  0
   18.3683   17.4185    8.6752 H   0  0  0  0  0  0  0  0  0  0  0  0
   18.1006   17.2916    6.8828 H   0  0  0  0  0  0  0  0  0  0  0  0
   20.4920   15.9539    9.4740 H   0  0  0  0  0  0  0  0  0  0  0  0
   21.8417   13.7428   11.0460 H   0  0  0  0  0  0  0  0  0  0  0  0
   22.4289   14.9929   15.6988 H   0  0  0  0  0  0  0  0  0  0  0  0
   25.7110   18.0260   12.7447 H   0  0  0  0  0  0  0  0  0  0  0  0
   24.2255   18.7132   15.2578 H   0  0  0  0  0  0  0  0  0  0  0  0
   25.8069   17.0061   16.0684 H   0  0  0  0  0  0  0  0  0  0  0  0
   27.1722   17.8739   15.2840 H   0  0  0  0  0  0  0  0  0  0  0  0
   25.3711   18.9397   17.5124 H   0  0  0  0  0  0  0  0  0  0  0  0
   27.0977   18.4202   17.6601 H   0  0  0  0  0  0  0  0  0  0  0  0
   26.5706   21.7326   15.2211 H   0  0  0  0  0  0  0  0  0  0  0  0
   22.6591   16.1715    5.7582 H   0  0  0  0  0  0  0  0  0  0  0  0
  1  2  1  0
  2  3  1  0
  3  4  2  0
  4  5  1  0
  5  6  1  0
  6  7  2  0
  6  8  2  0
  6  9  1  0
  9 10  2  0
 10 11  1  0
 11 12  2  0
 12 13  1  0
 13 14  2  0
 14 15  1  0
 15 16  1  0
 16 17  1  0
 17 18  1  0
 18 19  1  0
 19 20  1  0
 20 21  2  0
 20 22  1  0
 22 23  1  0
 23 24  2  0
 15 25  2  0
 25 26  1  0
  5 27  1  0
 27 28  2  0
 28  3  1  0
 26  9  1  0
 25 11  1  0
 23 17  1  0
  1 29  1  0
  1 30  1  0
  1 31  1  0
  2 32  1  0
  2 33  1  0
  4 34  1  0
 10 35  1  0
 13 36  1  0
 16 37  1  0
 17 38  1  1
 18 39  1  0
 18 40  1  0
 19 41  1  0
 19 42  1  0
 22 43  1  0
 27 44  1  0
M  END
>  <meeko>  (1487) 
{"is_sidechain": [true], "free_energy": -10.01, "intermolecular_energy": 0.0, "internal_energy": -10.01, "cluster_size": 20, "cluster_id": 1, "rank_in_cluster": 1}

>  <_RMSD_MCS_to_ref>  (1487) 
0.5568761083041723

$$$$
ligand
     RDKit          3D

 48 51  0  0  0  0  0  0  0  0999 V2000
   18.9090   19.1540    7.5370 C   0  0  0  0  0  0  0  0  0  0  0  0
   18.7730   17.6460    7.6780 C   0  0  0  0  0  0  0  0  0  0  0  0
   20.0630   16.9430    7.4400 C   0  0  0  0  0  0  0  0  0  0  0  0
   20.9420   16.4090    8.3620 C   0  0  0  0  0  0  0  0  0  0  0  0
   21.9480   15.8860    7.6020 N   0  0  0  0  0  0  0  0  0  0  0  0
   23.4450   15.3320    8.1580 S   0  0  0  0  0  6  0  0  0  0  0  0
   23.8770   14.3670    7.1640 O   0  0  0  0  0  0  0  0  0  0  0  0
   24.2000   16.5560    8.3620 O   0  0  0  0  0  0  0  0  0  0  0  0
   23.1540   14.5480    9.6770 C   0  0  0  0  0  0  0  0  0  0  0  0
   22.5090   13.3610    9.6770 C   0  0  0  0  0  0  0  0  0  0  0  0
   22.2860   12.6690   10.9350 C   0  0  0  0  0  0  0  0  0  0  0  0
   22.7200   13.1800   12.1000 C   0  0  0  0  0  0  0  0  0  0  0  0
   23.4040   14.4270   12.1150 C   0  0  0  0  0  0  0  0  0  0  0  0
   23.9230   15.0970   13.1190 N   0  0  0  0  0  0  0  0  0  0  0  0
   24.4510   16.2470   12.5650 C   0  0  0  0  0  0  0  0  0  0  0  0
   25.1270   17.2780   13.3490 C   0  0  0  0  0  0  0  0  0  0  0  0
   26.2780   17.6440   13.1300 O   0  0  0  0  0  0  0  0  0  0  0  0
   24.3470   17.7770   14.3610 N   0  0  0  0  0  0  0  0  0  0  0  0
   24.8620   18.6890   15.3640 C   0  0  1  0  0  0  0  0  0  0  0  0
   25.9350   18.0370   16.2310 C   0  0  0  0  0  0  0  0  0  0  0  0
   26.4490   19.0430   17.2480 C   0  0  0  0  0  0  0  0  0  0  0  0
   26.9590   20.2940   16.5720 C   0  0  0  0  0  0  0  0  0  0  0  0
   27.8940   20.9500   17.0210 O   0  0  0  0  0  0  0  0  0  0  0  0
   26.2990   20.6910   15.4370 N   0  0  0  0  0  0  0  0  0  0  0  0
   25.4570   19.9200   14.6730 C   0  0  0  0  0  0  0  0  0  0  0  0
   25.1950   20.2330   13.5120 O   0  0  0  0  0  0  0  0  0  0  0  0
   24.2360   16.2570   11.2000 C   0  0  0  0  0  0  0  0  0  0  0  0
   23.5880   15.0860   10.8940 N   0  0  0  0  0  0  0  0  0  0  0  0
   21.6830   16.1210    6.2910 C   0  0  0  0  0  0  0  0  0  0  0  0
   20.5420   16.7620    6.1570 N   0  0  0  0  0  0  0  0  0  0  0  0
   18.9504   19.6134    8.5356 H   0  0  0  0  0  0  0  0  0  0  0  0
   19.8320   19.3891    6.9867 H   0  0  0  0  0  0  0  0  0  0  0  0
   18.0430   19.5504    6.9867 H   0  0  0  0  0  0  0  0  0  0  0  0
   18.4255   17.4148    8.6957 H   0  0  0  0  0  0  0  0  0  0  0  0
   18.0533   17.2986    6.9221 H   0  0  0  0  0  0  0  0  0  0  0  0
   20.8519   16.4059    9.4583 H   0  0  0  0  0  0  0  0  0  0  0  0
   22.1555   12.9220    8.7324 H   0  0  0  0  0  0  0  0  0  0  0  0
   21.7513   11.7077   10.9340 H   0  0  0  0  0  0  0  0  0  0  0  0
   22.5466   12.6350   13.0397 H   0  0  0  0  0  0  0  0  0  0  0  0
   23.3581   17.4932   14.4104 H   0  0  0  0  0  0  0  0  0  0  0  0
   24.0247   18.9762   16.0171 H   0  0  0  0  0  0  0  0  0  0  0  0
   25.5050   17.1718   16.7569 H   0  0  0  0  0  0  0  0  0  0  0  0
   26.7673   17.7039   15.5936 H   0  0  0  0  0  0  0  0  0  0  0  0
   25.6298   19.3130   17.9307 H   0  0  0  0  0  0  0  0  0  0  0  0
   27.2810   18.5833   17.8016 H   0  0  0  0  0  0  0  0  0  0  0  0
   26.4494   21.6618   15.1274 H   0  0  0  0  0  0  0  0  0  0  0  0
   24.5276   17.0496   10.4952 H   0  0  0  0  0  0  0  0  0  0  0  0
   22.3324   15.8174    5.4567 H   0  0  0  0  0  0  0  0  0  0  0  0
  1  2  1  0
  2  3  1  0
  3  4  2  0
  4  5  1  0
  5  6  1  0
  6  7  2  0
  6  8  2  0
  6  9  1  0
  9 10  2  0
 10 11  1  0
 11 12  2  0
 12 13  1  0
 13 14  2  0
 14 15  1  0
 15 16  1  0
 16 17  2  0
 16 18  1  0
 18 19  1  0
 19 20  1  0
 20 21  1  0
 21 22  1  0
 22 23  2  0
 22 24  1  0
 24 25  1  0
 25 26  2  0
 15 27  2  0
 27 28  1  0
  5 29  1  0
 29 30  2  0
 30  3  1  0
 28  9  1  0
 28 13  1  0
 25 19  1  0
  1 31  1  0
  1 32  1  0
  1 33  1  0
  2 34  1  0
  2 35  1  0
  4 36  1  0
 10 37  1  0
 11 38  1  0
 12 39  1  0
 18 40  1  0
 19 41  1  1
 20 42  1  0
 20 43  1  0
 21 44  1  0
 21 45  1  0
 24 46  1  0
 27 47  1  0
 29 48  1  0
M  END
>  <meeko>  (1488) 
{"is_sidechain": [true], "free_energy": -10.01, "intermolecular_energy": 0.0, "internal_energy": -10.01, "cluster_size": 18, "cluster_id": 1, "rank_in_cluster": 1}

>  <_RMSD_MCS_to_ref>  (1488) 
0.6251007918727988

$$$$
ligand
     RDKit          3D

 46 49  0  0  0  0  0  0  0  0999 V2000
   18.9090   19.1540    7.5370 C   0  0  0  0  0  0  0  0  0  0  0  0
   18.7730   17.6460    7.6780 C   0  0  0  0  0  0  0  0  0  0  0  0
   20.0750   16.9460    7.5050 C   0  0  0  0  0  0  0  0  0  0  0  0
   20.9440   16.4750    8.4700 C   0  0  0  0  0  0  0  0  0  0  0  0
   21.9600   15.9070    7.7560 N   0  0  0  0  0  0  0  0  0  0  0  0
   23.4180   15.3760    8.3900 S   0  0  0  0  0  6  0  0  0  0  0  0
   24.1870   16.5590    8.7160 O   0  0  0  0  0  0  0  0  0  0  0  0
   23.8910   14.3310    7.5030 O   0  0  0  0  0  0  0  0  0  0  0  0
   23.1140   14.5990    9.8950 C   0  0  0  0  0  0  0  0  0  0  0  0
   22.4230   13.4150   10.0450 C   0  0  0  0  0  0  0  0  0  0  0  0
   22.3240   12.8680   11.6750 S   0  0  0  0  0  0  0  0  0  0  0  0
   23.2170   14.2590   12.1950 C   0  0  0  0  0  0  0  0  0  0  0  0
   23.7210   14.8330   13.3970 C   0  0  0  0  0  0  0  0  0  0  0  0
   24.3620   16.0080   13.0300 C   0  0  0  0  0  0  0  0  0  0  0  0
   25.0600   17.0060   13.8170 C   0  0  0  0  0  0  0  0  0  0  0  0
   26.2790   17.1430   13.7720 O   0  0  0  0  0  0  0  0  0  0  0  0
   24.2700   17.7800   14.6270 N   0  0  0  0  0  0  0  0  0  0  0  0
   24.8390   18.7220   15.5770 C   0  0  1  0  0  0  0  0  0  0  0  0
   25.9020   18.0810   16.4630 C   0  0  0  0  0  0  0  0  0  0  0  0
   26.4790   19.1290   17.4030 C   0  0  0  0  0  0  0  0  0  0  0  0
   27.0220   20.3130   16.6360 C   0  0  0  0  0  0  0  0  0  0  0  0
   28.0020   20.9480   17.0140 O   0  0  0  0  0  0  0  0  0  0  0  0
   26.3450   20.6720   15.4990 N   0  0  0  0  0  0  0  0  0  0  0  0
   25.4740   19.8770   14.7960 C   0  0  0  0  0  0  0  0  0  0  0  0
   25.2210   20.1000   13.6120 O   0  0  0  0  0  0  0  0  0  0  0  0
   24.2400   16.1500   11.6630 N   0  0  0  0  0  0  0  0  0  0  0  0
   23.5530   15.0740   11.1590 C   0  0  0  0  0  0  0  0  0  0  0  0
   21.7310   16.0890    6.4310 C   0  0  0  0  0  0  0  0  0  0  0  0
   20.5820   16.7050    6.2430 N   0  0  0  0  0  0  0  0  0  0  0  0
   18.9504   19.6134    8.5356 H   0  0  0  0  0  0  0  0  0  0  0  0
   19.8320   19.3891    6.9867 H   0  0  0  0  0  0  0  0  0  0  0  0
   18.0430   19.5504    6.9867 H   0  0  0  0  0  0  0  0  0  0  0  0
   18.3783   17.4179    8.6791 H   0  0  0  0  0  0  0  0  0  0  0  0
   18.0921   17.2929    6.8895 H   0  0  0  0  0  0  0  0  0  0  0  0
   20.8411   16.5421    9.5631 H   0  0  0  0  0  0  0  0  0  0  0  0
   21.9759   12.8698    9.2007 H   0  0  0  0  0  0  0  0  0  0  0  0
   23.6219   14.4260   14.4141 H   0  0  0  0  0  0  0  0  0  0  0  0
   23.2459   17.6918   14.5608 H   0  0  0  0  0  0  0  0  0  0  0  0
   24.0290   19.0756   16.2319 H   0  0  0  0  0  0  0  0  0  0  0  0
   25.4481   17.2704   17.0520 H   0  0  0  0  0  0  0  0  0  0  0  0
   26.7056   17.6715   15.8333 H   0  0  0  0  0  0  0  0  0  0  0  0
   25.6872   19.4752   18.0836 H   0  0  0  0  0  0  0  0  0  0  0  0
   27.3048   18.6724   17.9683 H   0  0  0  0  0  0  0  0  0  0  0  0
   26.5043   21.6241   15.1398 H   0  0  0  0  0  0  0  0  0  0  0  0
   24.6060   16.9376   11.1093 H   0  0  0  0  0  0  0  0  0  0  0  0
   22.4094   15.7674    5.6270 H   0  0  0  0  0  0  0  0  0  0  0  0
  1  2  1  0
  2  3  1  0
  3  4  2  0
  4  5  1  0
  5  6  1  0
  6  7  2  0
  6  8  2  0
  6  9  1  0
  9 10  2  0
 10 11  1  0
 11 12  1  0
 12 13  1  0
 13 14  2  0
 14 15  1  0
 15 16  2  0
 15 17  1  0
 17 18  1  0
 18 19  1  0
 19 20  1  0
 20 21  1  0
 21 22  2  0
 21 23  1  0
 23 24  1  0
 24 25  2  0
 14 26  1  0
 26 27  1  0
  5 28  1  0
 28 29  2  0
 29  3  1  0
 27  9  1  0
 27 12  2  0
 24 18  1  0
  1 30  1  0
  1 31  1  0
  1 32  1  0
  2 33  1  0
  2 34  1  0
  4 35  1  0
 10 36  1  0
 13 37  1  0
 17 38  1  0
 18 39  1  1
 19 40  1  0
 19 41  1  0
 20 42  1  0
 20 43  1  0
 23 44  1  0
 26 45  1  0
 28 46  1  0
M  END
>  <meeko>  (1489) 
{"is_sidechain": [true], "free_energy": -10.01, "intermolecular_energy": 0.0, "internal_energy": -10.01, "cluster_size": 18, "cluster_id": 1, "rank_in_cluster": 1}

>  <_RMSD_MCS_to_ref>  (1489) 
0.775675332998428

$$$$
ligand
     RDKit          3D

 46 49  0  0  0  0  0  0  0  0999 V2000
   18.9090   19.1540    7.5370 C   0  0  0  0  0  0  0  0  0  0  0  0
   18.7730   17.6460    7.6780 C   0  0  0  0  0  0  0  0  0  0  0  0
   19.8610   16.9150    6.9730 C   0  0  0  0  0  0  0  0  0  0  0  0
   20.9360   16.2330    7.5080 C   0  0  0  0  0  0  0  0  0  0  0  0
   21.6120   15.7660    6.4160 N   0  0  0  0  0  0  0  0  0  0  0  0
   22.9540   14.7590    6.4390 S   0  0  0  0  0  6  0  0  0  0  0  0
   23.9840   15.4660    5.7000 O   0  0  0  0  0  0  0  0  0  0  0  0
   22.4740   13.4510    6.0330 O   0  0  0  0  0  0  0  0  0  0  0  0
   23.4680   14.6560    8.1200 C   0  0  0  0  0  0  0  0  0  0  0  0
   23.6180   15.8130    8.8690 C   0  0  0  0  0  0  0  0  0  0  0  0
   24.0280   15.6110   10.1950 C   0  0  0  0  0  0  0  0  0  0  0  0
   24.2950   16.5080   11.2760 C   0  0  0  0  0  0  0  0  0  0  0  0
   24.6840   15.8620   12.4370 C   0  0  0  0  0  0  0  0  0  0  0  0
   25.0240   16.4930   13.7050 C   0  0  0  0  0  0  0  0  0  0  0  0
   25.1830   15.8510   14.7400 O   0  0  0  0  0  0  0  0  0  0  0  0
   25.1520   17.8630   13.6910 N   0  0  0  0  0  0  0  0  0  0  0  0
   25.3360   18.6360   14.9070 C   0  0  1  0  0  0  0  0  0  0  0  0
   26.3420   17.9910   15.8530 C   0  0  0  0  0  0  0  0  0  0  0  0
   26.5160   18.8660   17.0850 C   0  0  0  0  0  0  0  0  0  0  0  0
   26.9200   20.2710   16.7070 C   0  0  0  0  0  0  0  0  0  0  0  0
   27.6650   20.9530   17.4040 O   0  0  0  0  0  0  0  0  0  0  0  0
   26.3860   20.7730   15.5470 N   0  0  0  0  0  0  0  0  0  0  0  0
   25.8350   20.0340   14.5290 C   0  0  0  0  0  0  0  0  0  0  0  0
   25.7430   20.4870   13.3880 O   0  0  0  0  0  0  0  0  0  0  0  0
   24.7260   14.1640   12.2120 S   0  0  0  0  0  0  0  0  0  0  0  0
   24.2320   14.2970   10.5940 C   0  0  0  0  0  0  0  0  0  0  0  0
   24.0650   13.2110    9.8080 N   0  0  0  0  0  0  0  0  0  0  0  0
   23.6810   13.3980    8.5650 N   0  0  0  0  0  0  0  0  0  0  0  0
   20.9420   16.1250    5.2900 C   0  0  0  0  0  0  0  0  0  0  0  0
   19.8800   16.8420    5.5950 N   0  0  0  0  0  0  0  0  0  0  0  0
   18.9504   19.6134    8.5356 H   0  0  0  0  0  0  0  0  0  0  0  0
   19.8320   19.3891    6.9867 H   0  0  0  0  0  0  0  0  0  0  0  0
   18.0430   19.5504    6.9867 H   0  0  0  0  0  0  0  0  0  0  0  0
   18.8057   17.3857    8.7463 H   0  0  0  0  0  0  0  0  0  0  0  0
   17.8166   17.3492    7.2227 H   0  0  0  0  0  0  0  0  0  0  0  0
   21.1899   16.0969    8.5696 H   0  0  0  0  0  0  0  0  0  0  0  0
   23.4296   16.8143    8.4544 H   0  0  0  0  0  0  0  0  0  0  0  0
   24.2008   17.6009   11.1935 H   0  0  0  0  0  0  0  0  0  0  0  0
   25.1161   18.3570   12.7879 H   0  0  0  0  0  0  0  0  0  0  0  0
   24.3687   18.6840   15.4285 H   0  0  0  0  0  0  0  0  0  0  0  0
   25.9754   16.9994   16.1568 H   0  0  0  0  0  0  0  0  0  0  0  0
   27.3095   17.8843   15.3406 H   0  0  0  0  0  0  0  0  0  0  0  0
   25.5646   18.9026   17.6359 H   0  0  0  0  0  0  0  0  0  0  0  0
   27.3107   18.4322   17.7097 H   0  0  0  0  0  0  0  0  0  0  0  0
   26.3996   21.7961   15.4291 H   0  0  0  0  0  0  0  0  0  0  0  0
   21.2440   15.8549    4.2673 H   0  0  0  0  0  0  0  0  0  0  0  0
  1  2  1  0
  2  3  1  0
  3  4  2  0
  4  5  1  0
  5  6  1  0
  6  7  2  0
  6  8  2  0
  6  9  1  0
  9 10  2  0
 10 11  1  0
 11 12  1  0
 12 13  2  0
 13 14  1  0
 14 15  2  0
 14 16  1  0
 16 17  1  0
 17 18  1  0
 18 19  1  0
 19 20  1  0
 20 21  2  0
 20 22  1  0
 22 23  1  0
 23 24  2  0
 13 25  1  0
 25 26  1  0
 26 27  1  0
 27 28  2  0
  5 29  1  0
 29 30  2  0
 30  3  1  0
 28  9  1  0
 26 11  2  0
 23 17  1  0
  1 31  1  0
  1 32  1  0
  1 33  1  0
  2 34  1  0
  2 35  1  0
  4 36  1  0
 10 37  1  0
 12 38  1  0
 16 39  1  0
 17 40  1  1
 18 41  1  0
 18 42  1  0
 19 43  1  0
 19 44  1  0
 22 45  1  0
 29 46  1  0
M  END
>  <meeko>  (1490) 
{"is_sidechain": [true], "free_energy": -10.01, "intermolecular_energy": 0.0, "internal_energy": -10.01, "cluster_size": 6, "cluster_id": 1, "rank_in_cluster": 1}

>  <_RMSD_MCS_to_ref>  (1490) 
0.6610035299956165

$$$$
ligand
     RDKit          3D

 46 49  0  0  0  0  0  0  0  0999 V2000
   18.9090   19.1540    7.5370 C   0  0  0  0  0  0  0  0  0  0  0  0
   18.7730   17.6460    7.6780 C   0  0  0  0  0  0  0  0  0  0  0  0
   20.0700   16.9450    7.4770 C   0  0  0  0  0  0  0  0  0  0  0  0
   21.0480   16.6460    8.4060 C   0  0  0  0  0  0  0  0  0  0  0  0
   22.0080   15.9970    7.6850 N   0  0  0  0  0  0  0  0  0  0  0  0
   23.5460   15.5950    8.2190 S   0  0  0  0  0  6  0  0  0  0  0  0
   23.9490   14.4130    7.4840 O   0  0  0  0  0  0  0  0  0  0  0  0
   24.3060   16.8290    8.1980 O   0  0  0  0  0  0  0  0  0  0  0  0
   23.4830   15.1220    9.9260 C   0  0  0  0  0  0  0  0  0  0  0  0
   22.8970   14.0490   10.5600 C   0  0  0  0  0  0  0  0  0  0  0  0
   23.0960   14.0710   11.9700 C   0  0  0  0  0  0  0  0  0  0  0  0
   22.6270   13.1320   12.8250 N   0  0  0  0  0  0  0  0  0  0  0  0
   22.9240   13.3420   14.1080 C   0  0  0  0  0  0  0  0  0  0  0  0
   23.6250   14.3620   14.6140 N   0  0  0  0  0  0  0  0  0  0  0  0
   24.0960   15.3010   13.7480 C   0  0  0  0  0  0  0  0  0  0  0  0
   24.8830   16.4170   14.3490 C   0  0  0  0  0  0  0  0  0  0  0  0
   26.1060   16.4320   14.3680 O   0  0  0  0  0  0  0  0  0  0  0  0
   24.1150   17.4230   14.8940 N   0  0  0  0  0  0  0  0  0  0  0  0
   24.6870   18.5090   15.6710 C   0  0  1  0  0  0  0  0  0  0  0  0
   25.7640   18.0190   16.6330 C   0  0  0  0  0  0  0  0  0  0  0  0
   26.3390   19.2010   17.3970 C   0  0  0  0  0  0  0  0  0  0  0  0
   26.8660   20.2590   16.4550 C   0  0  0  0  0  0  0  0  0  0  0  0
   27.8400   20.9550   16.7250 O   0  0  0  0  0  0  0  0  0  0  0  0
   26.1790   20.4320   15.2800 N   0  0  0  0  0  0  0  0  0  0  0  0
   25.3010   19.5390   14.7160 C   0  0  0  0  0  0  0  0  0  0  0  0
   25.0250   19.5930   13.5190 O   0  0  0  0  0  0  0  0  0  0  0  0
   23.8370   15.1750   12.3860 C   0  0  0  0  0  0  0  0  0  0  0  0
   24.2610   16.1530   11.0360 S   0  0  0  0  0  0  0  0  0  0  0  0
   21.6330   15.9550    6.3800 C   0  0  0  0  0  0  0  0  0  0  0  0
   20.4510   16.5120    6.2220 N   0  0  0  0  0  0  0  0  0  0  0  0
   18.9504   19.6134    8.5356 H   0  0  0  0  0  0  0  0  0  0  0  0
   19.8320   19.3891    6.9867 H   0  0  0  0  0  0  0  0  0  0  0  0
   18.0430   19.5504    6.9867 H   0  0  0  0  0  0  0  0  0  0  0  0
   18.3985   17.4166    8.6865 H   0  0  0  0  0  0  0  0  0  0  0  0
   18.0752   17.2953    6.9034 H   0  0  0  0  0  0  0  0  0  0  0  0
   21.0520   16.8781    9.4812 H   0  0  0  0  0  0  0  0  0  0  0  0
   22.3367   13.2614   10.0349 H   0  0  0  0  0  0  0  0  0  0  0  0
   22.5527   12.5966   14.8267 H   0  0  0  0  0  0  0  0  0  0  0  0
   23.0961   17.4042   14.7447 H   0  0  0  0  0  0  0  0  0  0  0  0
   23.8796   18.9585   16.2677 H   0  0  0  0  0  0  0  0  0  0  0  0
   25.3233   17.3034   17.3427 H   0  0  0  0  0  0  0  0  0  0  0  0
   26.5659   17.5257   16.0642 H   0  0  0  0  0  0  0  0  0  0  0  0
   25.5495   19.6407   18.0243 H   0  0  0  0  0  0  0  0  0  0  0  0
   27.1732   18.8413   18.0172 H   0  0  0  0  0  0  0  0  0  0  0  0
   26.3365   21.3147   14.7731 H   0  0  0  0  0  0  0  0  0  0  0  0
   22.2332   15.5168    5.5689 H   0  0  0  0  0  0  0  0  0  0  0  0
  1  2  1  0
  2  3  1  0
  3  4  2  0
  4  5  1  0
  5  6  1  0
  6  7  2  0
  6  8  2  0
  6  9  1  0
  9 10  2  0
 10 11  1  0
 11 12  2  0
 12 13  1  0
 13 14  2  0
 14 15  1  0
 15 16  1  0
 16 17  2  0
 16 18  1  0
 18 19  1  0
 19 20  1  0
 20 21  1  0
 21 22  1  0
 22 23  2  0
 22 24  1  0
 24 25  1  0
 25 26  2  0
 15 27  2  0
 27 28  1  0
  5 29  1  0
 29 30  2  0
 30  3  1  0
 28  9  1  0
 27 11  1  0
 25 19  1  0
  1 31  1  0
  1 32  1  0
  1 33  1  0
  2 34  1  0
  2 35  1  0
  4 36  1  0
 10 37  1  0
 13 38  1  0
 18 39  1  0
 19 40  1  1
 20 41  1  0
 20 42  1  0
 21 43  1  0
 21 44  1  0
 24 45  1  0
 29 46  1  0
M  END
>  <meeko>  (1491) 
{"is_sidechain": [true], "free_energy": -10.01, "intermolecular_energy": 0.0, "internal_energy": -10.01, "cluster_size": 20, "cluster_id": 1, "rank_in_cluster": 1}

>  <_RMSD_MCS_to_ref>  (1491) 
0.8258888141471178

$$$$
ligand
     RDKit          3D

 51 54  0  0  0  0  0  0  0  0999 V2000
   18.9090   19.1540    7.5370 C   0  0  0  0  0  0  0  0  0  0  0  0
   18.7730   17.6460    7.6780 C   0  0  0  0  0  0  0  0  0  0  0  0
   19.9140   16.9180    7.0600 C   0  0  0  0  0  0  0  0  0  0  0  0
   21.2240   16.8310    7.4890 C   0  0  0  0  0  0  0  0  0  0  0  0
   21.8230   16.0180    6.5680 N   0  0  0  0  0  0  0  0  0  0  0  0
   23.4590   15.6040    6.5530 S   0  0  0  0  0  6  0  0  0  0  0  0
   24.1730   16.8570    6.3810 O   0  0  0  0  0  0  0  0  0  0  0  0
   23.5290   14.5900    5.5100 O   0  0  0  0  0  0  0  0  0  0  0  0
   23.8700   14.8910    8.0690 C   0  0  0  0  0  0  0  0  0  0  0  0
   23.9820   15.6700    9.1590 C   0  0  0  0  0  0  0  0  0  0  0  0
   24.3150   15.0750   10.4560 C   0  0  0  0  0  0  0  0  0  0  0  0
   24.4490   15.8570   11.6050 C   0  0  0  0  0  0  0  0  0  0  0  0
   24.7730   15.2570   12.8320 C   0  0  0  0  0  0  0  0  0  0  0  0
   24.8990   16.1350   14.0300 C   0  0  0  0  0  0  0  0  0  0  0  0
   24.5030   15.7460   15.1240 O   0  0  0  0  0  0  0  0  0  0  0  0
   25.4370   17.3860   13.8300 N   0  0  0  0  0  0  0  0  0  0  0  0
   25.4560   18.3740   14.9010 C   0  0  1  0  0  0  0  0  0  0  0  0
   26.1470   17.8530   16.1560 C   0  0  0  0  0  0  0  0  0  0  0  0
   26.1720   18.9470   17.2130 C   0  0  0  0  0  0  0  0  0  0  0  0
   26.8310   20.2010   16.6870 C   0  0  0  0  0  0  0  0  0  0  0  0
   27.5000   20.9420   17.4000 O   0  0  0  0  0  0  0  0  0  0  0  0
   26.6220   20.4960   15.3630 N   0  0  0  0  0  0  0  0  0  0  0  0
   26.2040   19.6140   14.4000 C   0  0  0  0  0  0  0  0  0  0  0  0
   26.4130   19.8240   13.2050 O   0  0  0  0  0  0  0  0  0  0  0  0
   24.9420   13.8670   12.9030 C   0  0  0  0  0  0  0  0  0  0  0  0
   24.8090   13.0820   11.7540 C   0  0  0  0  0  0  0  0  0  0  0  0
   24.5000   13.6890   10.5390 C   0  0  0  0  0  0  0  0  0  0  0  0
   24.3640   12.9110    9.3830 N   0  0  0  0  0  0  0  0  0  0  0  0
   24.0520   13.4290    8.1520 C   0  0  0  0  0  0  0  0  0  0  0  0
   23.9410   12.7010    7.1740 O   0  0  0  0  0  0  0  0  0  0  0  0
   20.9180   15.6790    5.6160 C   0  0  0  0  0  0  0  0  0  0  0  0
   19.7380   16.1980    5.8960 N   0  0  0  0  0  0  0  0  0  0  0  0
   18.9504   19.6134    8.5356 H   0  0  0  0  0  0  0  0  0  0  0  0
   19.8320   19.3891    6.9867 H   0  0  0  0  0  0  0  0  0  0  0  0
   18.0430   19.5504    6.9867 H   0  0  0  0  0  0  0  0  0  0  0  0
   18.7290   17.3929    8.7476 H   0  0  0  0  0  0  0  0  0  0  0  0
   17.8546   17.3397    7.1557 H   0  0  0  0  0  0  0  0  0  0  0  0
   21.6804   17.3067    8.3696 H   0  0  0  0  0  0  0  0  0  0  0  0
   23.8235   16.7554    9.0771 H   0  0  0  0  0  0  0  0  0  0  0  0
   24.3004   16.9454   11.5486 H   0  0  0  0  0  0  0  0  0  0  0  0
   25.8320   17.6274   12.9099 H   0  0  0  0  0  0  0  0  0  0  0  0
   24.4154   18.6100   15.1685 H   0  0  0  0  0  0  0  0  0  0  0  0
   25.5971   16.9823   16.5426 H   0  0  0  0  0  0  0  0  0  0  0  0
   27.1776   17.5568   15.9107 H   0  0  0  0  0  0  0  0  0  0  0  0
   25.1394   19.1821   17.5103 H   0  0  0  0  0  0  0  0  0  0  0  0
   26.7513   18.5848   18.0751 H   0  0  0  0  0  0  0  0  0  0  0  0
   26.7946   21.4671   15.0662 H   0  0  0  0  0  0  0  0  0  0  0  0
   25.1801   13.3924   13.8664 H   0  0  0  0  0  0  0  0  0  0  0  0
   24.9475   11.9921   11.8090 H   0  0  0  0  0  0  0  0  0  0  0  0
   24.5060   11.8939    9.4613 H   0  0  0  0  0  0  0  0  0  0  0  0
   21.1373   15.0586    4.7345 H   0  0  0  0  0  0  0  0  0  0  0  0
  1  2  1  0
  2  3  1  0
  3  4  2  0
  4  5  1  0
  5  6  1  0
  6  7  2  0
  6  8  2  0
  6  9  1  0
  9 10  2  0
 10 11  1  0
 11 12  2  0
 12 13  1  0
 13 14  1  0
 14 15  2  0
 14 16  1  0
 16 17  1  0
 17 18  1  0
 18 19  1  0
 19 20  1  0
 20 21  2  0
 20 22  1  0
 22 23  1  0
 23 24  2  0
 13 25  2  0
 25 26  1  0
 26 27  2  0
 27 28  1  0
 28 29  1  0
 29 30  2  0
  5 31  1  0
 31 32  2  0
 32  3  1  0
 29  9  1  0
 27 11  1  0
 23 17  1  0
  1 33  1  0
  1 34  1  0
  1 35  1  0
  2 36  1  0
  2 37  1  0
  4 38  1  0
 10 39  1  0
 12 40  1  0
 16 41  1  0
 17 42  1  1
 18 43  1  0
 18 44  1  0
 19 45  1  0
 19 46  1  0
 22 47  1  0
 25 48  1  0
 26 49  1  0
 28 50  1  0
 31 51  1  0
M  END
>  <meeko>  (1492) 
{"is_sidechain": [true], "free_energy": -10.01, "intermolecular_energy": 0.0, "internal_energy": -10.01, "cluster_size": 19, "cluster_id": 1, "rank_in_cluster": 1}

>  <_RMSD_MCS_to_ref>  (1492) 
0.8692345930632174

$$$$
ligand
     RDKit          3D

 45 48  0  0  0  0  0  0  0  0999 V2000
   18.9090   19.1540    7.5370 C   0  0  0  0  0  0  0  0  0  0  0  0
   18.7730   17.6460    7.6780 C   0  0  0  0  0  0  0  0  0  0  0  0
   20.0450   17.0050    8.1080 C   0  0  0  0  0  0  0  0  0  0  0  0
   20.2670   16.1270    9.1510 C   0  0  0  0  0  0  0  0  0  0  0  0
   21.6010   15.8490    9.0750 N   0  0  0  0  0  0  0  0  0  0  0  0
   22.4900   14.9780   10.1970 S   0  0  0  0  0  6  0  0  0  0  0  0
   21.6190   14.7910   11.3430 O   0  0  0  0  0  0  0  0  0  0  0  0
   23.0690   13.8610    9.4740 O   0  0  0  0  0  0  0  0  0  0  0  0
   23.8540   15.9750   10.7580 C   0  0  0  0  0  0  0  0  0  0  0  0
   23.7190   16.5790   12.1120 C   0  0  0  0  0  0  0  0  0  0  0  0
   24.7180   17.3350   12.5980 C   0  0  0  0  0  0  0  0  0  0  0  0
   24.6160   17.8930   13.8700 N   0  0  0  0  0  0  0  0  0  0  0  0
   25.7280   18.4250   14.6670 C   0  0  2  0  0  0  0  0  0  0  0  0
   25.5070   18.1270   16.1470 C   0  0  0  0  0  0  0  0  0  0  0  0
   26.6560   18.7080   16.9550 C   0  0  0  0  0  0  0  0  0  0  0  0
   26.7940   20.1930   16.7160 C   0  0  0  0  0  0  0  0  0  0  0  0
   27.1900   20.9650   17.5830 O   0  0  0  0  0  0  0  0  0  0  0  0
   26.4820   20.6450   15.4590 N   0  0  0  0  0  0  0  0  0  0  0  0
   25.7940   19.9530   14.4910 C   0  0  0  0  0  0  0  0  0  0  0  0
   25.2660   20.5390   13.5470 O   0  0  0  0  0  0  0  0  0  0  0  0
   25.8600   17.5170   11.7470 C   0  0  0  0  0  0  0  0  0  0  0  0
   26.9750   18.2100   11.9100 N   0  0  0  0  0  0  0  0  0  0  0  0
   27.7020   18.0160   10.7640 C   0  0  0  0  0  0  0  0  0  0  0  0
   27.0250   17.2070    9.8870 C   0  0  0  0  0  0  0  0  0  0  0  0
   25.8500   16.8930   10.5100 N   0  0  0  0  0  0  0  0  0  0  0  0
   24.8780   16.1150    9.9690 N   0  0  0  0  0  0  0  0  0  0  0  0
   22.1520   16.5740    8.0690 C   0  0  0  0  0  0  0  0  0  0  0  0
   21.2270   17.2740    7.4450 N   0  0  0  0  0  0  0  0  0  0  0  0
   18.9504   19.6134    8.5356 H   0  0  0  0  0  0  0  0  0  0  0  0
   19.8320   19.3891    6.9867 H   0  0  0  0  0  0  0  0  0  0  0  0
   18.0430   19.5504    6.9867 H   0  0  0  0  0  0  0  0  0  0  0  0
   17.9962   17.4287    8.4259 H   0  0  0  0  0  0  0  0  0  0  0  0
   18.5051   17.2374    6.6925 H   0  0  0  0  0  0  0  0  0  0  0  0
   19.5361   15.7405    9.8765 H   0  0  0  0  0  0  0  0  0  0  0  0
   22.8107   16.4082   12.7085 H   0  0  0  0  0  0  0  0  0  0  0  0
   23.6761   17.9363   14.2890 H   0  0  0  0  0  0  0  0  0  0  0  0
   26.6616   17.9527   14.3273 H   0  0  0  0  0  0  0  0  0  0  0  0
   24.5605   18.5811   16.4756 H   0  0  0  0  0  0  0  0  0  0  0  0
   25.4627   17.0387   16.3005 H   0  0  0  0  0  0  0  0  0  0  0  0
   26.4677   18.5324   18.0245 H   0  0  0  0  0  0  0  0  0  0  0  0
   27.5880   18.2158   16.6400 H   0  0  0  0  0  0  0  0  0  0  0  0
   26.7939   21.5963   15.2168 H   0  0  0  0  0  0  0  0  0  0  0  0
   28.6944   18.4505   10.5734 H   0  0  0  0  0  0  0  0  0  0  0  0
   27.3582   16.8797    8.8911 H   0  0  0  0  0  0  0  0  0  0  0  0
   23.2213   16.5768    7.8108 H   0  0  0  0  0  0  0  0  0  0  0  0
  1  2  1  0
  2  3  1  0
  3  4  2  0
  4  5  1  0
  5  6  1  0
  6  7  2  0
  6  8  2  0
  6  9  1  0
  9 10  1  0
 10 11  2  0
 11 12  1  0
 12 13  1  0
 13 14  1  0
 14 15  1  0
 15 16  1  0
 16 17  2  0
 16 18  1  0
 18 19  1  0
 19 20  2  0
 11 21  1  0
 21 22  2  0
 22 23  1  0
 23 24  2  0
 24 25  1  0
 25 26  1  0
  5 27  1  0
 27 28  2  0
 28  3  1  0
 26  9  2  0
 19 13  1  0
 25 21  1  0
  1 29  1  0
  1 30  1  0
  1 31  1  0
  2 32  1  0
  2 33  1  0
  4 34  1  0
 10 35  1  0
 12 36  1  0
 13 37  1  6
 14 38  1  0
 14 39  1  0
 15 40  1  0
 15 41  1  0
 18 42  1  0
 23 43  1  0
 24 44  1  0
 27 45  1  0
M  END
>  <meeko>  (1493) 
{"is_sidechain": [true], "free_energy": -10.01, "intermolecular_energy": 0.0, "internal_energy": -10.01, "cluster_size": 2, "cluster_id": 1, "rank_in_cluster": 1}

>  <_RMSD_MCS_to_ref>  (1493) 
0.6340877086194164

$$$$
ligand
     RDKit          3D

 48 51  0  0  0  0  0  0  0  0999 V2000
   18.9090   19.1540    7.5370 C   0  0  0  0  0  0  0  0  0  0  0  0
   18.7730   17.6460    7.6780 C   0  0  0  0  0  0  0  0  0  0  0  0
   20.0890   16.9780    7.8710 C   0  0  0  0  0  0  0  0  0  0  0  0
   21.2340   17.0770    7.1060 C   0  0  0  0  0  0  0  0  0  0  0  0
   22.1390   16.2840    7.7530 N   0  0  0  0  0  0  0  0  0  0  0  0
   23.6460   15.8190    7.1570 S   0  0  0  0  0  6  0  0  0  0  0  0
   24.2720   17.0590    6.7370 O   0  0  0  0  0  0  0  0  0  0  0  0
   23.3540   14.7580    6.2110 O   0  0  0  0  0  0  0  0  0  0  0  0
   24.4560   15.2040    8.4300 O   0  0  0  0  0  0  0  0  0  0  0  0
   24.7570   15.9460    9.5450 C   0  0  0  0  0  0  0  0  0  0  0  0
   25.9890   16.6250    9.4820 C   0  0  0  0  0  0  0  0  0  0  0  0
   26.4280   17.4230   10.5410 C   0  0  0  0  0  0  0  0  0  0  0  0
   25.6210   17.5180   11.6590 C   0  0  0  0  0  0  0  0  0  0  0  0
   24.4030   16.8470   11.7260 C   0  0  0  0  0  0  0  0  0  0  0  0
   23.9490   16.0590   10.6790 C   0  0  0  0  0  0  0  0  0  0  0  0
   23.7390   17.1640   13.0280 C   0  0  0  0  0  0  0  0  0  0  0  0
   24.8100   17.7640   13.8600 N   0  0  0  0  0  0  0  0  0  0  0  0
   24.3200   18.7640   14.8270 C   0  0  1  0  0  0  0  0  0  0  0  0
   24.8340   18.5220   16.2520 C   0  0  0  0  0  0  0  0  0  0  0  0
   26.3510   18.6300   16.3100 C   0  0  0  0  0  0  0  0  0  0  0  0
   26.8220   19.9600   15.7720 C   0  0  0  0  0  0  0  0  0  0  0  0
   27.8890   20.4630   16.1140 O   0  0  0  0  0  0  0  0  0  0  0  0
   26.0130   20.5800   14.8570 N   0  0  0  0  0  0  0  0  0  0  0  0
   24.7860   20.1640   14.3950 C   0  0  0  0  0  0  0  0  0  0  0  0
   24.1310   20.8750   13.6330 O   0  0  0  0  0  0  0  0  0  0  0  0
   25.8180   18.3110   12.9110 C   0  0  0  0  0  0  0  0  0  0  0  0
   21.5280   15.6800    8.8040 C   0  0  0  0  0  0  0  0  0  0  0  0
   20.2860   16.1010    8.9200 N   0  0  0  0  0  0  0  0  0  0  0  0
   18.9504   19.6134    8.5356 H   0  0  0  0  0  0  0  0  0  0  0  0
   19.8320   19.3891    6.9867 H   0  0  0  0  0  0  0  0  0  0  0  0
   18.0430   19.5504    6.9867 H   0  0  0  0  0  0  0  0  0  0  0  0
   18.1342   17.4277    8.5465 H   0  0  0  0  0  0  0  0  0  0  0  0
   18.3310   17.2586    6.7482 H   0  0  0  0  0  0  0  0  0  0  0  0
   21.3835   17.6609    6.1858 H   0  0  0  0  0  0  0  0  0  0  0  0
   26.6162   16.5253    8.5838 H   0  0  0  0  0  0  0  0  0  0  0  0
   27.3868   17.9595   10.4868 H   0  0  0  0  0  0  0  0  0  0  0  0
   22.9818   15.5386   10.7396 H   0  0  0  0  0  0  0  0  0  0  0  0
   22.9162   17.8789   12.8800 H   0  0  0  0  0  0  0  0  0  0  0  0
   23.2968   16.2730   13.4977 H   0  0  0  0  0  0  0  0  0  0  0  0
   23.2233   18.6795   14.8358 H   0  0  0  0  0  0  0  0  0  0  0  0
   24.3939   19.2722   16.9255 H   0  0  0  0  0  0  0  0  0  0  0  0
   24.5426   17.5077   16.5623 H   0  0  0  0  0  0  0  0  0  0  0  0
   26.6787   18.5288   17.3552 H   0  0  0  0  0  0  0  0  0  0  0  0
   26.7823   17.8299   15.6905 H   0  0  0  0  0  0  0  0  0  0  0  0
   26.3665   21.4656   14.4675 H   0  0  0  0  0  0  0  0  0  0  0  0
   25.6383   19.3804   12.7264 H   0  0  0  0  0  0  0  0  0  0  0  0
   26.8443   18.2326   13.2991 H   0  0  0  0  0  0  0  0  0  0  0  0
   22.0041   14.9419    9.4662 H   0  0  0  0  0  0  0  0  0  0  0  0
  1  2  1  0
  2  3  1  0
  3  4  2  0
  4  5  1  0
  5  6  1  0
  6  7  2  0
  6  8  2  0
  6  9  1  0
  9 10  1  0
 10 11  2  0
 11 12  1  0
 12 13  2  0
 13 14  1  0
 14 15  2  0
 14 16  1  0
 16 17  1  0
 17 18  1  0
 18 19  1  0
 19 20  1  0
 20 21  1  0
 21 22  2  0
 21 23  1  0
 23 24  1  0
 24 25  2  0
 17 26  1  0
  5 27  1  0
 27 28  2  0
 28  3  1  0
 15 10  1  0
 24 18  1  0
 26 13  1  0
  1 29  1  0
  1 30  1  0
  1 31  1  0
  2 32  1  0
  2 33  1  0
  4 34  1  0
 11 35  1  0
 12 36  1  0
 15 37  1  0
 16 38  1  0
 16 39  1  0
 18 40  1  1
 19 41  1  0
 19 42  1  0
 20 43  1  0
 20 44  1  0
 23 45  1  0
 26 46  1  0
 26 47  1  0
 27 48  1  0
M  END
>  <meeko>  (1494) 
{"is_sidechain": [true], "free_energy": -10.01, "intermolecular_energy": 0.0, "internal_energy": -10.01, "cluster_size": 20, "cluster_id": 1, "rank_in_cluster": 1}

>  <_RMSD_MCS_to_ref>  (1494) 
1.742985403738958

$$$$
