
  SciTegic12131615192D

 21 22  0  0  0  0            999 V2000
    1.2990   -0.7500    0.0000 N   0  0
    1.2990    0.7500    0.0000 C   0  0
    0.0000   -1.5000    0.0000 C   0  0
    0.0000    1.5000    0.0000 N   0  0
    2.3383    1.3500    0.0000 O   0  0
   -1.2990   -0.7500    0.0000 C   0  0
   -1.2990    0.7500    0.0000 C   0  0
   -2.3383    1.3500    0.0000 O   0  0
    2.5973   -1.5031    0.0000 C   0  0
    2.5951   -3.0039    0.0000 C   0  0
    3.8933   -3.7570    0.0000 N   0  0
    3.8912   -5.2578    0.0000 C   0  0
    5.1894   -6.0109    0.0000 C   0  0
    2.8509   -5.8560    0.0000 O   0  0
    6.4886   -5.2610    0.0000 C   0  0
    7.7876   -6.0110    0.0000 C   0  0
    7.7875   -7.5110    0.0000 C   0  0
    6.4885   -8.2610    0.0000 C   0  0
    5.1895   -7.5109    0.0000 C   0  0
    3.8912   -8.2640    0.0000 N   0  0
    3.8930   -9.4640    0.0000 C   0  0
  1  2  1  0
  1  3  1  0
  2  4  1  0
  2  5  2  0
  3  6  2  0
  4  7  1  0
  7  8  2  0
  6  7  1  0
  1  9  1  0
  9 10  1  0
 10 11  1  0
 11 12  1  0
 12 13  1  0
 12 14  2  0
 13 15  2  0
 15 16  1  0
 16 17  2  0
 17 18  1  0
 18 19  2  0
 19 13  1  0
 19 20  1  0
 20 21  1  0
M  END
> <From>
www.bindingDB.org

> <BindingDB Reactant_set_id>
50467263

> <Ligand InChI>
InChI=1S/C14H16N4O3/c1-15-11-5-3-2-4-10(11)13(20)16-7-9-18-8-6-12(19)17-14(18)21/h2-6,8,15H,7,9H2,1H3,(H,16,20)(H,17,19,21)

> <Ligand InChI Key>
KBGZUKXZFDPDRE-UHFFFAOYSA-N

> <BindingDB MonomerID>
50146598

> <BindingDB Ligand Name>
CHEMBL3764647

> <Target Name>
Protein cereblon

> <Target Source Organism According to Curator or DataSource>
Human

> <Ki (nM)>


> <IC50 (nM)>


> <Kd (nM)>
 7900

> <EC50 (nM)>


> <kon (M-1-s-1)>


> <koff (s-1)>


> <pH>


> <Temp C>


> <Curation/DataSource>
ChEMBL

> <Article DOI>
10.1021/acs.jmedchem.5b01735

> <BindingDB Entry DOI>
10.7270/Q2PR7XVF

> <PMID>
26730808

> <PubChem AID>


> <Patent Number>


> <Authors>
Boichenko, I; Deiss, S; Bär, K; Hartmann, MD; Hernandez Alvarez, B

> <Date of publication>
1/28/2016

> <Date in BindingDB>
6/17/2017

> <Institution>
Max Planck Institute for Developmental Biology

> <Link to Ligand in BindingDB>
http://www.bindingdb.org/bind/chemsearch/marvin/MolStructure.jsp?monomerid=50146598

> <Link to Ligand-Target Pair in BindingDB>
http://www.bindingdb.org/jsp/dbsearch/PrimarySearch_ki.jsp?energyterm=kJ/mole&tag=pol&polymerid=50007050&target=Protein+cereblon&column=ki&startPg=0&Increment=50&submit=Search

> <Link to Ligand-Target Pair in BindingDB>
http://www.bindingdb.org/jsp/dbsearch/PrimarySearch_ki.jsp?energyterm=kJ/mole&tag=r21&monomerid=50146598&enzyme=Protein+cereblon&column=ki&startPg=0&Increment=50&submit=Search

> <Ligand HET ID in PDB>


> <PDB ID(s) for Ligand-Target Complex>


> <PubChem CID of Ligand>
10318069

> <PubChem SID of Ligand>
104035187

> <ChEBI ID of Ligand>


> <ChEMBL ID of Ligand>
CHEMBL3764647

> <DrugBank ID of Ligand>


> <IUPHAR_GRAC ID of Ligand>


> <KEGG ID of Ligand>


> <ZINC ID of Ligand>
ZINC03942841

> <Number of Protein Chains in Target (bigger than 1 implies a multichain complex)>
1

> <BindingDB Target Chain Sequence>
MAGEGDQQDAAHNMGNHLPLLPAESEEEDEMEVEDQDSKEAKKPNIINFDTSLPTSHTYLGADMEEFHGRTLHDDDSCQVIPVLPQVMMILIPGQTLPLQLFHPQEVSMVRNLIQKDRTFAVLAYSNVQEREAQFGTTAEIYAYREEQDFGIEIVKVKAIGRQRFKVLELRTQSDGIQQAKVQILPECVLPSTMSAVQLESLNKCQIFPSKPVSREDQCSYKWWQKYQKRKFHCANLTSWPRWLYSLYDAETLMDRIKKQLREWDENLKDDSLPSNPIDFSYRVAACLPIDDVLRIQLLKIGSAIQRLRCELDIMNKCTSLCCKQCQETEITTKNEIFSLSLCGPMAAYVNPHGYVHETLTVYKACNLNLIGRPSTEHSWFPGYAWTVAQCKICASHIGWKFTATKKDMSPQKFWGLTRSALLPTIPDTEDEISPDKVILCL

> <PDB ID(s) of Target Chain>
4TZ4,5HXB,5V3O,6UML,6XK9,7LPS,7U8F,8CVP,8D7U,8D7V,8D7W,8D7X,8D7Y,8D7Z,8D80,8D81,8DEY,8OIZ,8OJH

> <UniProt (SwissProt) Recommended Name of Target Chain>
Protein cereblon

> <UniProt (SwissProt) Entry Name of Target Chain>
CRBN_HUMAN

> <UniProt (SwissProt) Primary ID of Target Chain>
Q96SW2

> <UniProt (SwissProt) Secondary ID(s) of Target Chain>
B2R6H4 C9IZA9 C9JAH6 Q6AI62 Q6NVZ0 Q9UHW4

> <UniProt (SwissProt) Alternative ID(s) of Target Chain>


> <UniProt (TrEMBL) Submitted Name of Target Chain>


> <UniProt (TrEMBL) Entry Name of Target Chain>


> <UniProt (TrEMBL) Primary ID of Target Chain>


> <UniProt (TrEMBL) Secondary ID(s) of Target Chain>


> <UniProt (TrEMBL) Alternative ID(s) of Target Chain>


$$$$

     RDKit          2D

 65 72  0  0  0  0  0  0  0  0999 V2000
   19.3575   -7.4978    0.0000 C   0  0  0  0  0  0  0  0  0  0  0  0
   20.0771   -7.9032    0.0000 C   0  0  0  0  0  0  0  0  0  0  0  0
   20.7856   -7.4821    0.0000 C   0  0  0  0  0  0  0  0  0  0  0  0
   20.7753   -6.6563    0.0000 C   0  0  0  0  0  0  0  0  0  0  0  0
   19.3450   -6.6768    0.0000 C   0  0  0  0  0  0  0  0  0  0  0  0
   20.0485   -6.2534    0.0000 C   0  0  0  0  0  0  0  0  0  0  0  0
   19.8633   -5.4534    0.0000 C   0  0  0  0  0  0  0  0  0  0  0  0
   19.0452   -5.3824    0.0000 N   0  0  0  0  0  0  0  0  0  0  0  0
   18.7250   -6.1384    0.0000 C   0  0  0  0  0  0  0  0  0  0  0  0
   17.9212   -6.3245    0.0000 O   0  0  0  0  0  0  0  0  0  0  0  0
   20.4042   -4.8305    0.0000 O   0  0  0  0  0  0  0  0  0  0  0  0
   18.6198   -4.6765    0.0000 C   0  0  0  0  0  0  0  0  0  0  0  0
   19.0214   -3.9549    0.0000 C   0  0  0  0  0  0  0  0  0  0  0  0
   18.5996   -3.2500    0.0000 N   0  0  0  0  0  0  0  0  0  0  0  0
   17.7743   -3.2607    0.0000 C   0  0  0  0  0  0  0  0  0  0  0  0
   17.3726   -3.9824    0.0000 C   0  0  0  0  0  0  0  0  0  0  0  0
   17.7963   -4.6935    0.0000 C   0  0  0  0  0  0  0  0  0  0  0  0
   19.8463   -3.9419    0.0000 O   0  0  0  0  0  0  0  0  0  0  0  0
   17.3516   -2.5523    0.0000 O   0  0  0  0  0  0  0  0  0  0  0  0
    7.2810   -5.7429    0.0000 N   0  0  0  0  0  0  0  0  0  0  0  0
    7.3175   -4.9136    0.0000 C   0  0  0  0  0  0  0  0  0  0  0  0
    6.6302   -4.4691    0.0000 C   0  0  0  0  0  0  0  0  0  0  0  0
    5.8265   -4.6694    0.0000 C   0  0  0  0  0  0  0  0  0  0  0  0
    5.2533   -4.0755    0.0000 C   0  0  0  0  0  0  0  0  0  0  0  0
    4.4326   -4.1571    0.0000 N   0  0  0  0  0  0  0  0  0  0  0  0
    3.9895   -4.8458    0.0000 C   0  0  0  0  0  0  0  0  0  0  0  0
    3.1589   -4.8416    0.0000 S   0  0  0  0  0  0  0  0  0  0  0  0
    2.9001   -5.6245    0.0000 C   0  0  0  0  0  0  0  0  0  0  0  0
    3.5600   -6.1054    0.0000 C   0  0  0  0  0  0  0  0  0  0  0  0
    4.2337   -5.6245    0.0000 C   0  0  0  0  0  0  0  0  0  0  0  0
    5.0135   -5.9080    0.0000 C   0  0  0  0  0  0  0  0  0  0  0  0
    5.0314   -6.7377    0.0000 C   0  0  0  0  0  0  0  0  0  0  0  0
    4.3268   -7.1667    0.0000 C   0  0  0  0  0  0  0  0  0  0  0  0
    4.3497   -7.9894    0.0000 C   0  0  0  0  0  0  0  0  0  0  0  0
    5.0777   -8.3843    0.0000 C   0  0  0  0  0  0  0  0  0  0  0  0
    5.7760   -7.9518    0.0000 C   0  0  0  0  0  0  0  0  0  0  0  0
    5.7565   -7.1316    0.0000 C   0  0  0  0  0  0  0  0  0  0  0  0
    5.1030   -9.2162    0.0000 Cl  0  0  0  0  0  0  0  0  0  0  0  0
    5.7208   -5.4839    0.0000 N   0  0  0  0  0  0  0  0  0  0  0  0
    3.5400   -6.9355    0.0000 C   0  0  0  0  0  0  0  0  0  0  0  0
    2.1079   -5.8867    0.0000 C   0  0  0  0  0  0  0  0  0  0  0  0
    4.1058   -3.4069    0.0000 C   0  0  0  0  0  0  0  0  0  0  0  0
    4.7165   -2.8590    0.0000 N   0  0  0  0  0  0  0  0  0  0  0  0
    5.4296   -3.2763    0.0000 N   0  0  0  0  0  0  0  0  0  0  0  0
    3.2890   -3.2301    0.0000 C   0  0  0  0  0  0  0  0  0  0  0  0
    8.0547   -4.5364    0.0000 O   0  0  0  0  0  0  0  0  0  0  0  0
    7.9766   -6.1864    0.0000 C   0  0  0  0  0  0  0  0  0  0  0  0
    7.9361   -7.0085    0.0000 C   0  0  0  0  0  0  0  0  0  0  0  0
    8.6309   -7.4519    0.0000 C   0  0  0  0  0  0  0  0  0  0  0  0
    9.3639   -7.0712    0.0000 C   0  0  0  0  0  0  0  0  0  0  0  0
    9.3977   -6.2427    0.0000 C   0  0  0  0  0  0  0  0  0  0  0  0
    8.7021   -5.8029    0.0000 C   0  0  0  0  0  0  0  0  0  0  0  0
   10.0601   -7.5138    0.0000 O   0  0  0  0  0  0  0  0  0  0  0  0
   10.7915   -7.1322    0.0000 C   0  0  0  0  0  0  0  0  0  0  0  0
   11.4878   -7.5748    0.0000 C   0  0  0  0  0  0  0  0  0  0  0  0
   12.2192   -7.1931    0.0000 O   0  0  0  0  0  0  0  0  0  0  0  0
   12.9154   -7.6357    0.0000 C   0  0  0  0  0  0  0  0  0  0  0  0
   13.6468   -7.2541    0.0000 C   0  0  0  0  0  0  0  0  0  0  0  0
   14.3430   -7.6966    0.0000 O   0  0  0  0  0  0  0  0  0  0  0  0
   15.0745   -7.3149    0.0000 C   0  0  0  0  0  0  0  0  0  0  0  0
   15.7708   -7.7575    0.0000 C   0  0  0  0  0  0  0  0  0  0  0  0
   16.5022   -7.3759    0.0000 O   0  0  0  0  0  0  0  0  0  0  0  0
   17.1984   -7.8185    0.0000 C   0  0  0  0  0  0  0  0  0  0  0  0
   17.9298   -7.4369    0.0000 C   0  0  0  0  0  0  0  0  0  0  0  0
   18.6260   -7.8795    0.0000 N   0  0  0  0  0  0  0  0  0  0  0  0
  1  2  2  0
  2  3  1  0
  3  4  2  0
  4  6  1  0
  5  1  1  0
  5  6  2  0
  6  7  1  0
  7  8  1  0
  8  9  1  0
  9  5  1  0
  9 10  2  0
  7 11  2  0
 12 13  1  0
 12 17  1  0
 13 14  1  0
 14 15  1  0
 15 16  1  0
 16 17  1  0
  8 12  1  0
 13 18  2  0
 15 19  2  0
 21 20  1  0
 22 21  1  0
 23 22  1  6
 24 23  1  0
 24 25  1  0
 26 25  1  0
 26 27  1  0
 27 28  1  0
 28 29  2  0
 30 29  1  0
 30 26  2  0
 31 30  1  0
 31 32  1  0
 32 33  2  0
 33 34  1  0
 34 35  2  0
 35 36  1  0
 36 37  2  0
 32 37  1  0
 35 38  1  0
 39 31  2  0
 23 39  1  0
 29 40  1  0
 28 41  1  0
 25 42  1  0
 42 43  2  0
 43 44  1  0
 24 44  2  0
 42 45  1  0
 21 46  2  0
 20 47  1  0
 47 48  2  0
 48 49  1  0
 49 50  2  0
 50 51  1  0
 51 52  2  0
 52 47  1  0
 50 53  1  0
 53 54  1  0
 54 55  1  0
 55 56  1  0
 56 57  1  0
 57 58  1  0
 58 59  1  0
 59 60  1  0
 60 61  1  0
 61 62  1  0
 62 63  1  0
 63 64  1  0
 64 65  1  0
 65  1  1  0
M  END
> <From>
www.bindingDB.org

> <BindingDB Reactant_set_id>
51253205

> <Ligand InChI>
InChI=1S/C46H47ClN8O9S/c1-26-27(2)65-46-39(26)41(29-7-9-30(47)10-8-29)50-35(42-53-52-28(3)54(42)46)25-38(57)49-31-11-13-32(14-12-31)64-24-23-63-22-21-62-20-19-61-18-17-48-34-6-4-5-33-40(34)45(60)55(44(33)59)36-15-16-37(56)51-43(36)58/h4-14,35-36,48H,15-25H2,1-3H3,(H,49,57)(H,51,56,58)/t35-,36?/m0/s1

> <Ligand InChI Key>
RWLOGRLTDKDANT-TYIYNAFKSA-N

> <BindingDB MonomerID>
50512415

> <BindingDB Ligand Name>
CHEMBL4226052

> <Target Name>
Protein cereblon

> <Target Source Organism According to Curator or DataSource>
Human

> <Ki (nM)>


> <IC50 (nM)>


> <Kd (nM)>
 28

> <EC50 (nM)>


> <kon (M-1-s-1)>


> <koff (s-1)>


> <pH>


> <Temp C>


> <Curation/DataSource>
ChEMBL

> <Article DOI>
10.1016/j.ejmech.2019.04.036

> <BindingDB Entry DOI>
10.7270/Q2F47SF1

> <PMID>
31035238

> <PubChem AID>


> <Patent Number>


> <Authors>
Xi, M; Chen, Y; Yang, H; Xu, H; Du, K; Wu, C; Xu, Y; Deng, L; Luo, X; Yu, L; Wu, Y; Gao, X; Cai, T; Chen, B; Shen, R; Sun, H

> <Date of publication>
7/15/2019

> <Date in BindingDB>
2/20/2021

> <Institution>
Shaoxing University

> <Link to Ligand in BindingDB>
http://www.bindingdb.org/bind/chemsearch/marvin/MolStructure.jsp?monomerid=50512415

> <Link to Ligand-Target Pair in BindingDB>
http://www.bindingdb.org/jsp/dbsearch/PrimarySearch_ki.jsp?energyterm=kJ/mole&tag=pol&polymerid=50007050&target=Protein+cereblon&column=ki&startPg=0&Increment=50&submit=Search

> <Link to Ligand-Target Pair in BindingDB>
http://www.bindingdb.org/jsp/dbsearch/PrimarySearch_ki.jsp?energyterm=kJ/mole&tag=r21&monomerid=50512415&enzyme=Protein+cereblon&column=ki&startPg=0&Increment=50&submit=Search

> <Ligand HET ID in PDB>


> <PDB ID(s) for Ligand-Target Complex>


> <PubChem CID of Ligand>
92044400

> <PubChem SID of Ligand>
440720997

> <ChEBI ID of Ligand>


> <ChEMBL ID of Ligand>


> <DrugBank ID of Ligand>


> <IUPHAR_GRAC ID of Ligand>


> <KEGG ID of Ligand>


> <ZINC ID of Ligand>


> <Number of Protein Chains in Target (bigger than 1 implies a multichain complex)>
1

> <BindingDB Target Chain Sequence>
MAGEGDQQDAAHNMGNHLPLLPAESEEEDEMEVEDQDSKEAKKPNIINFDTSLPTSHTYLGADMEEFHGRTLHDDDSCQVIPVLPQVMMILIPGQTLPLQLFHPQEVSMVRNLIQKDRTFAVLAYSNVQEREAQFGTTAEIYAYREEQDFGIEIVKVKAIGRQRFKVLELRTQSDGIQQAKVQILPECVLPSTMSAVQLESLNKCQIFPSKPVSREDQCSYKWWQKYQKRKFHCANLTSWPRWLYSLYDAETLMDRIKKQLREWDENLKDDSLPSNPIDFSYRVAACLPIDDVLRIQLLKIGSAIQRLRCELDIMNKCTSLCCKQCQETEITTKNEIFSLSLCGPMAAYVNPHGYVHETLTVYKACNLNLIGRPSTEHSWFPGYAWTVAQCKICASHIGWKFTATKKDMSPQKFWGLTRSALLPTIPDTEDEISPDKVILCL

> <PDB ID(s) of Target Chain>
4TZ4,5HXB,5V3O,6UML,6XK9,7LPS,7U8F,8CVP,8D7U,8D7V,8D7W,8D7X,8D7Y,8D7Z,8D80,8D81,8DEY,8OIZ,8OJH

> <UniProt (SwissProt) Recommended Name of Target Chain>
Protein cereblon

> <UniProt (SwissProt) Entry Name of Target Chain>
CRBN_HUMAN

> <UniProt (SwissProt) Primary ID of Target Chain>
Q96SW2

> <UniProt (SwissProt) Secondary ID(s) of Target Chain>
B2R6H4 C9IZA9 C9JAH6 Q6AI62 Q6NVZ0 Q9UHW4

> <UniProt (SwissProt) Alternative ID(s) of Target Chain>


> <UniProt (TrEMBL) Submitted Name of Target Chain>


> <UniProt (TrEMBL) Entry Name of Target Chain>


> <UniProt (TrEMBL) Primary ID of Target Chain>


> <UniProt (TrEMBL) Secondary ID(s) of Target Chain>


> <UniProt (TrEMBL) Alternative ID(s) of Target Chain>


$$$$
 
     RDKit          2D

 21 23  0  0  0  0  0  0  0  0999 V2000
    6.8952   -3.8672    0.0000 C   0  0  0  0  0  0  0  0  0  0  0  0
    6.8940   -4.6867    0.0000 C   0  0  0  0  0  0  0  0  0  0  0  0
    7.6021   -5.0957    0.0000 C   0  0  0  0  0  0  0  0  0  0  0  0
    8.3117   -4.6862    0.0000 C   0  0  0  0  0  0  0  0  0  0  0  0
    8.3089   -3.8636    0.0000 C   0  0  0  0  0  0  0  0  0  0  0  0
    7.6003   -3.4583    0.0000 C   0  0  0  0  0  0  0  0  0  0  0  0
    7.5963   -2.6468    0.0000 N   0  0  0  0  0  0  0  0  0  0  0  0
    8.3046   -2.2373    0.0000 C   0  0  0  0  0  0  0  0  0  0  0  0
    8.3041   -1.4237    0.0000 C   0  0  0  0  0  0  0  0  0  0  0  0
    7.5970   -1.0134    0.0000 O   0  0  0  0  0  0  0  0  0  0  0  0
    6.8887   -1.4228    0.0000 C   0  0  0  0  0  0  0  0  0  0  0  0
    6.8875   -2.2426    0.0000 C   0  0  0  0  0  0  0  0  0  0  0  0
    6.1874   -3.4587    0.0000 N   0  0  0  0  0  0  0  0  0  0  0  0
    5.4798   -3.8675    0.0000 C   0  0  0  0  0  0  0  0  0  0  0  0
    4.7740   -3.4543    0.0000 C   0  0  0  0  0  0  0  0  0  0  0  0
    4.0685   -3.8596    0.0000 C   0  0  0  0  0  0  0  0  0  0  0  0
    4.0645   -4.6771    0.0000 C   0  0  0  0  0  0  0  0  0  0  0  0
    4.7721   -5.0877    0.0000 N   0  0  0  0  0  0  0  0  0  0  0  0
    5.4838   -4.6808    0.0000 C   0  0  0  0  0  0  0  0  0  0  0  0
    3.3553   -5.0832    0.0000 O   0  0  0  0  0  0  0  0  0  0  0  0
    6.1917   -5.0891    0.0000 O   0  0  0  0  0  0  0  0  0  0  0  0
  1  2  2  0
  2  3  1  0
  3  4  2  0
  4  5  1  0
  5  6  2  0
  6  1  1  0
  7  8  1  0
  7 12  1  0
  8  9  1  0
  9 10  1  0
 10 11  1  0
 11 12  1  0
  6  7  1  0
  1 13  1  0
 13 14  1  0
 14 15  1  0
 14 19  1  0
 15 16  1  0
 16 17  1  0
 17 18  1  0
 18 19  1  0
 17 20  2  0
 19 21  2  0
M  END
> <From>
www.bindingDB.org

> <BindingDB Reactant_set_id>
51291764

> <Ligand InChI>
InChI=1S/C15H19N3O3/c19-14-6-5-12(15(20)17-14)16-11-3-1-2-4-13(11)18-7-9-21-10-8-18/h1-4,12,16H,5-10H2,(H,17,19,20)

> <Ligand InChI Key>
WBYAHIPMCICAIV-UHFFFAOYSA-N

> <BindingDB MonomerID>
50526581

> <BindingDB Ligand Name>
CHEMBL4466169::US11459335, Compound 14

> <Target Name>
Protein cereblon

> <Target Source Organism According to Curator or DataSource>
Human

> <Ki (nM)>


> <IC50 (nM)>


> <Kd (nM)>
 10000

> <EC50 (nM)>


> <kon (M-1-s-1)>


> <koff (s-1)>


> <pH>


> <Temp C>


> <Curation/DataSource>
ChEMBL

> <Article DOI>
10.1021/acsmedchemlett.9b00042

> <BindingDB Entry DOI>
10.7270/Q26T0R4N

> <PMID>
30891126

> <PubChem AID>


> <Patent Number>


> <Authors>
Kargbo, RB

> <Date of publication>
3/14/2019

> <Date in BindingDB>
2/25/2021

> <Institution>
Usona Institute

> <Link to Ligand in BindingDB>
http://www.bindingdb.org/bind/chemsearch/marvin/MolStructure.jsp?monomerid=50526581

> <Link to Ligand-Target Pair in BindingDB>
http://www.bindingdb.org/jsp/dbsearch/PrimarySearch_ki.jsp?energyterm=kJ/mole&tag=pol&polymerid=50007050&target=Protein+cereblon&column=ki&startPg=0&Increment=50&submit=Search

> <Link to Ligand-Target Pair in BindingDB>
http://www.bindingdb.org/jsp/dbsearch/PrimarySearch_ki.jsp?energyterm=kJ/mole&tag=r21&monomerid=50526581&enzyme=Protein+cereblon&column=ki&startPg=0&Increment=50&submit=Search

> <Ligand HET ID in PDB>


> <PDB ID(s) for Ligand-Target Complex>


> <PubChem CID of Ligand>
146573403

> <PubChem SID of Ligand>
440735163

> <ChEBI ID of Ligand>


> <ChEMBL ID of Ligand>


> <DrugBank ID of Ligand>


> <IUPHAR_GRAC ID of Ligand>


> <KEGG ID of Ligand>


> <ZINC ID of Ligand>


> <Number of Protein Chains in Target (bigger than 1 implies a multichain complex)>
1

> <BindingDB Target Chain Sequence>
MAGEGDQQDAAHNMGNHLPLLPAESEEEDEMEVEDQDSKEAKKPNIINFDTSLPTSHTYLGADMEEFHGRTLHDDDSCQVIPVLPQVMMILIPGQTLPLQLFHPQEVSMVRNLIQKDRTFAVLAYSNVQEREAQFGTTAEIYAYREEQDFGIEIVKVKAIGRQRFKVLELRTQSDGIQQAKVQILPECVLPSTMSAVQLESLNKCQIFPSKPVSREDQCSYKWWQKYQKRKFHCANLTSWPRWLYSLYDAETLMDRIKKQLREWDENLKDDSLPSNPIDFSYRVAACLPIDDVLRIQLLKIGSAIQRLRCELDIMNKCTSLCCKQCQETEITTKNEIFSLSLCGPMAAYVNPHGYVHETLTVYKACNLNLIGRPSTEHSWFPGYAWTVAQCKICASHIGWKFTATKKDMSPQKFWGLTRSALLPTIPDTEDEISPDKVILCL

> <PDB ID(s) of Target Chain>
4TZ4,5HXB,5V3O,6UML,6XK9,7LPS,7U8F,8CVP,8D7U,8D7V,8D7W,8D7X,8D7Y,8D7Z,8D80,8D81,8DEY,8OIZ,8OJH

> <UniProt (SwissProt) Recommended Name of Target Chain>
Protein cereblon

> <UniProt (SwissProt) Entry Name of Target Chain>
CRBN_HUMAN

> <UniProt (SwissProt) Primary ID of Target Chain>
Q96SW2

> <UniProt (SwissProt) Secondary ID(s) of Target Chain>
B2R6H4 C9IZA9 C9JAH6 Q6AI62 Q6NVZ0 Q9UHW4

> <UniProt (SwissProt) Alternative ID(s) of Target Chain>


> <UniProt (TrEMBL) Submitted Name of Target Chain>


> <UniProt (TrEMBL) Entry Name of Target Chain>


> <UniProt (TrEMBL) Primary ID of Target Chain>


> <UniProt (TrEMBL) Secondary ID(s) of Target Chain>


> <UniProt (TrEMBL) Alternative ID(s) of Target Chain>


$$$$
 
     RDKit          2D

 27 30  0  0  0  0  0  0  0  0999 V2000
   -1.6320    0.3565    0.0000 C   0  0  0  0  0  0  0  0  0  0  0  0
   -0.9175    0.7690    0.0000 C   0  0  0  0  0  0  0  0  0  0  0  0
   -0.2030    0.3565    0.0000 C   0  0  0  0  0  0  0  0  0  0  0  0
   -0.2030   -0.4684    0.0000 C   0  0  0  0  0  0  0  0  0  0  0  0
   -0.9175   -0.8810    0.0000 C   0  0  0  0  0  0  0  0  0  0  0  0
   -1.6320   -0.4684    0.0000 C   0  0  0  0  0  0  0  0  0  0  0  0
    0.5815   -0.7234    0.0000 C   0  0  0  0  0  0  0  0  0  0  0  0
    1.0665   -0.0560    0.0000 N   0  0  0  0  0  0  0  0  0  0  0  0
    0.5815    0.6114    0.0000 C   0  0  0  0  0  0  0  0  0  0  0  0
    0.7950    1.4081    0.0000 O   0  0  0  0  0  0  0  0  0  0  0  0
    1.8912   -0.0560    0.0000 C   0  0  0  0  0  0  0  0  0  0  0  0
    2.3036    0.6582    0.0000 C   0  0  0  0  0  0  0  0  0  0  0  0
    3.1284    0.6582    0.0000 C   0  0  0  0  0  0  0  0  0  0  0  0
    3.5408   -0.0560    0.0000 C   0  0  0  0  0  0  0  0  0  0  0  0
    3.1284   -0.7703    0.0000 N   0  0  0  0  0  0  0  0  0  0  0  0
    2.3037   -0.7703    0.0000 C   0  0  0  0  0  0  0  0  0  0  0  0
    1.8912   -1.4845    0.0000 O   0  0  0  0  0  0  0  0  0  0  0  0
    4.3656   -0.0560    0.0000 O   0  0  0  0  0  0  0  0  0  0  0  0
   -2.3463    0.7689    0.0000 S   0  0  0  0  0  0  0  0  0  0  0  0
   -3.0606    0.3565    0.0000 N   0  0  0  0  0  0  0  0  0  0  0  0
   -1.9331    1.4845    0.0000 O   0  0  0  0  0  0  0  0  0  0  0  0
   -2.7579    1.4845    0.0000 O   0  0  0  0  0  0  0  0  0  0  0  0
   -3.1467   -0.4633    0.0000 C   0  0  0  0  0  0  0  0  0  0  0  0
   -3.9531   -0.6347    0.0000 C   0  0  0  0  0  0  0  0  0  0  0  0
   -4.3654    0.0792    0.0000 N   0  0  0  0  0  0  0  0  0  0  0  0
   -3.8136    0.6918    0.0000 C   0  0  0  0  0  0  0  0  0  0  0  0
   -4.3656   -1.3490    0.0000 C   0  0  0  0  0  0  0  0  0  0  0  0
  1  2  1  0
  3  2  2  0
  4  3  1  0
  5  4  2  0
  6  5  1  0
  1  6  2  0
  4  7  1  0
  8  7  1  0
  9  8  1  0
  3  9  1  0
  9 10  2  0
  8 11  1  0
 12 11  1  0
 13 12  1  0
 14 13  1  0
 15 14  1  0
 16 15  1  0
 11 16  1  0
 16 17  2  0
 14 18  2  0
  1 19  1  0
 19 20  1  0
 19 21  2  0
 19 22  2  0
 23 20  1  0
 23 24  2  0
 24 25  1  0
 25 26  2  0
 26 20  1  0
 24 27  1  0
M  END
> <From>
www.bindingDB.org

> <BindingDB Reactant_set_id>
51568399

> <Ligand InChI>
InChI=1S/C17H16N4O5S/c1-10-7-20(9-18-10)27(25,26)12-3-2-11-8-21(17(24)13(11)6-12)14-4-5-15(22)19-16(14)23/h2-3,6-7,9,14H,4-5,8H2,1H3,(H,19,22,23)

> <Ligand InChI Key>
SPIVDQIYOIXBKQ-UHFFFAOYSA-N

> <BindingDB MonomerID>
50630772

> <BindingDB Ligand Name>
CHEMBL5399248

> <Target Name>
Protein cereblon

> <Target Source Organism According to Curator or DataSource>
Homo sapiens

> <Ki (nM)>


> <IC50 (nM)>
 454

> <Kd (nM)>


> <EC50 (nM)>


> <kon (M-1-s-1)>


> <koff (s-1)>


> <pH>


> <Temp C>


> <Curation/DataSource>
ChEMBL

> <Article DOI>
10.1021/acsmedchemlett.3c00371

> <BindingDB Entry DOI>
10.7270/Q28D01RH

> <PMID>
37974938

> <PubChem AID>


> <Patent Number>


> <Authors>
Cruite, JT; Nowak, RP; Donovan, KA; Ficarro, SB; Huang, H; Liu, H; Liu, Y; Marto, JA; Metivier, RJ; Fischer, ES; Jones, LH

> <Date of publication>
11/9/2023

> <Date in BindingDB>
12/20/2024

> <Institution>
Dana-Farber Cancer Institute

> <Link to Ligand in BindingDB>
http://www.bindingdb.org/bind/chemsearch/marvin/MolStructure.jsp?monomerid=50630772

> <Link to Ligand-Target Pair in BindingDB>
http://www.bindingdb.org/jsp/dbsearch/PrimarySearch_ki.jsp?energyterm=kJ/mole&tag=pol&polymerid=50007050&target=Protein+cereblon&column=ki&startPg=0&Increment=50&submit=Search

> <Link to Ligand-Target Pair in BindingDB>
http://www.bindingdb.org/jsp/dbsearch/PrimarySearch_ki.jsp?energyterm=kJ/mole&tag=r21&monomerid=50630772&enzyme=Protein+cereblon&column=ki&startPg=0&Increment=50&submit=Search

> <Ligand HET ID in PDB>


> <PDB ID(s) for Ligand-Target Complex>


> <PubChem CID of Ligand>
172444943

> <PubChem SID of Ligand>
505048743

> <ChEBI ID of Ligand>


> <ChEMBL ID of Ligand>


> <DrugBank ID of Ligand>


> <IUPHAR_GRAC ID of Ligand>


> <KEGG ID of Ligand>


> <ZINC ID of Ligand>


> <Number of Protein Chains in Target (bigger than 1 implies a multichain complex)>
1

> <BindingDB Target Chain Sequence>
MAGEGDQQDAAHNMGNHLPLLPAESEEEDEMEVEDQDSKEAKKPNIINFDTSLPTSHTYLGADMEEFHGRTLHDDDSCQVIPVLPQVMMILIPGQTLPLQLFHPQEVSMVRNLIQKDRTFAVLAYSNVQEREAQFGTTAEIYAYREEQDFGIEIVKVKAIGRQRFKVLELRTQSDGIQQAKVQILPECVLPSTMSAVQLESLNKCQIFPSKPVSREDQCSYKWWQKYQKRKFHCANLTSWPRWLYSLYDAETLMDRIKKQLREWDENLKDDSLPSNPIDFSYRVAACLPIDDVLRIQLLKIGSAIQRLRCELDIMNKCTSLCCKQCQETEITTKNEIFSLSLCGPMAAYVNPHGYVHETLTVYKACNLNLIGRPSTEHSWFPGYAWTVAQCKICASHIGWKFTATKKDMSPQKFWGLTRSALLPTIPDTEDEISPDKVILCL

> <PDB ID(s) of Target Chain>
8TNR,8TNQ,8TNP,8D81,8D80,8D7Z,8D7Y,8D7X,8D7W,8D7V,8D7U,8CVP,9DQD,8UH6,6BOY,6BNB,6BN9,6BN8,6BN7,6XK9,6UML,5V3O,5HXB,7U8F,8OJH,8OIZ,7LPS,4TZ4,9DJX,9DJT,8U17,8U16,8U15,8TZX,8DEY,9CUO,4M91

> <UniProt (SwissProt) Recommended Name of Target Chain>
Protein cereblon

> <UniProt (SwissProt) Entry Name of Target Chain>
CRBN_HUMAN

> <UniProt (SwissProt) Primary ID of Target Chain>
Q96SW2

> <UniProt (SwissProt) Secondary ID(s) of Target Chain>
B2R6H4 C9IZA9 C9JAH6 Q6AI62 Q6NVZ0 Q9UHW4

> <UniProt (SwissProt) Alternative ID(s) of Target Chain>


> <UniProt (TrEMBL) Submitted Name of Target Chain>


> <UniProt (TrEMBL) Entry Name of Target Chain>


> <UniProt (TrEMBL) Primary ID of Target Chain>


> <UniProt (TrEMBL) Secondary ID(s) of Target Chain>


> <UniProt (TrEMBL) Alternative ID(s) of Target Chain>


$$$$
 
     RDKit          2D

 64 72  0  0  0  0  0  0  0  0999 V2000
    6.8123   -4.9666    0.0000 C   0  0  0  0  0  0  0  0  0  0  0  0
    7.0152   -5.5966    0.0000 C   0  0  0  0  0  0  0  0  0  0  0  0
    6.4643   -6.2091    0.0000 C   0  0  0  0  0  0  0  0  0  0  0  0
    6.6338   -7.0160    0.0000 C   0  0  0  0  0  0  0  0  0  0  0  0
    5.9185   -7.4270    0.0000 N   0  0  0  0  0  0  0  0  0  0  0  0
    5.9153   -8.2534    0.0000 N   0  0  0  0  0  0  0  0  0  0  0  0
    6.6308   -8.6668    0.0000 C   0  0  0  0  0  0  0  0  0  0  0  0
    7.3462   -8.2559    0.0000 N   0  0  0  0  0  0  0  0  0  0  0  0
    7.3493   -7.4295    0.0000 C   0  0  0  0  0  0  0  0  0  0  0  0
    8.0651   -7.0182    0.0000 N   0  0  0  0  0  0  0  0  0  0  0  0
    8.7781   -7.4375    0.0000 C   0  0  0  0  0  0  0  0  0  0  0  0
    9.4934   -7.0266    0.0000 C   0  0  0  0  0  0  0  0  0  0  0  0
   10.2069   -7.4435    0.0000 C   0  0  0  0  0  0  0  0  0  0  0  0
   10.2033   -8.2679    0.0000 C   0  0  0  0  0  0  0  0  0  0  0  0
    9.4880   -8.6788    0.0000 C   0  0  0  0  0  0  0  0  0  0  0  0
    8.7745   -8.2620    0.0000 C   0  0  0  0  0  0  0  0  0  0  0  0
   10.9174   -8.6851    0.0000 N   0  0  0  0  0  0  0  0  0  0  0  0
   10.9121   -9.5116    0.0000 C   0  0  0  0  0  0  0  0  0  0  0  0
   11.6277   -9.9287    0.0000 C   0  0  0  0  0  0  0  0  0  0  0  0
   12.3429   -9.5179    0.0000 N   0  0  0  0  0  0  0  0  0  0  0  0
   12.3447   -8.6934    0.0000 C   0  0  0  0  0  0  0  0  0  0  0  0
   11.6327   -8.2741    0.0000 C   0  0  0  0  0  0  0  0  0  0  0  0
   13.0592   -9.9314    0.0000 C   0  0  0  0  0  0  0  0  0  0  0  0
   13.0565  -10.5926    0.0000 O   0  0  0  0  0  0  0  0  0  0  0  0
   13.7750   -9.5201    0.0000 C   0  0  0  0  0  0  0  0  0  0  0  0
   14.4883   -9.9366    0.0000 C   0  0  0  0  0  0  0  0  0  0  0  0
   15.2075   -9.5233    0.0000 C   0  0  0  0  0  0  0  0  0  0  0  0
   15.2067   -8.8643    0.0000 O   0  0  0  0  0  0  0  0  0  0  0  0
   15.9203   -9.9390    0.0000 N   0  0  0  0  0  0  0  0  0  0  0  0
   16.6356   -9.5280    0.0000 C   0  0  0  0  0  0  0  0  0  0  0  0
   17.3491   -9.9417    0.0000 C   0  0  0  0  0  0  0  0  0  0  0  0
   17.3459  -10.7717    0.0000 C   0  0  0  0  0  0  0  0  0  0  0  0
   16.6307  -11.1827    0.0000 C   0  0  0  0  0  0  0  0  0  0  0  0
   15.9186  -10.7634    0.0000 C   0  0  0  0  0  0  0  0  0  0  0  0
   18.0577  -11.1859    0.0000 C   0  0  0  0  0  0  0  0  0  0  0  0
   18.0543  -12.0109    0.0000 C   0  0  0  0  0  0  0  0  0  0  0  0
   18.7681  -12.4286    0.0000 N   0  0  0  0  0  0  0  0  0  0  0  0
   18.7628  -13.2551    0.0000 C   0  0  0  0  0  0  0  0  0  0  0  0
   19.4784  -13.6723    0.0000 C   0  0  0  0  0  0  0  0  0  0  0  0
   20.1937  -13.2613    0.0000 N   0  0  0  0  0  0  0  0  0  0  0  0
   20.1955  -12.4369    0.0000 C   0  0  0  0  0  0  0  0  0  0  0  0
   19.4834  -12.0175    0.0000 C   0  0  0  0  0  0  0  0  0  0  0  0
   20.9086  -13.6770    0.0000 C   0  0  0  0  0  0  0  0  0  0  0  0
   20.9052  -14.5035    0.0000 C   0  0  0  0  0  0  0  0  0  0  0  0
   21.6207  -14.9171    0.0000 C   0  0  0  0  0  0  0  0  0  0  0  0
   22.3359  -14.5061    0.0000 C   0  0  0  0  0  0  0  0  0  0  0  0
   22.3396  -13.6801    0.0000 C   0  0  0  0  0  0  0  0  0  0  0  0
   21.6240  -13.2659    0.0000 C   0  0  0  0  0  0  0  0  0  0  0  0
   22.9476  -15.0594    0.0000 C   0  0  0  0  0  0  0  0  0  0  0  0
   23.5957  -14.9226    0.0000 O   0  0  0  0  0  0  0  0  0  0  0  0
   22.6111  -15.8098    0.0000 N   0  0  0  0  0  0  0  0  0  0  0  0
   21.7897  -15.7241    0.0000 C   0  0  0  0  0  0  0  0  0  0  0  0
   21.3447  -16.2147    0.0000 O   0  0  0  0  0  0  0  0  0  0  0  0
   23.0642  -16.4999    0.0000 C   0  0  0  0  0  0  0  0  0  0  0  0
   23.8860  -16.5168    0.0000 C   0  0  0  0  0  0  0  0  0  0  0  0
   24.2274  -15.9501    0.0000 O   0  0  0  0  0  0  0  0  0  0  0  0
   24.2845  -17.2381    0.0000 N   0  0  0  0  0  0  0  0  0  0  0  0
   23.8592  -17.9452    0.0000 C   0  0  0  0  0  0  0  0  0  0  0  0
   24.1806  -18.5245    0.0000 O   0  0  0  0  0  0  0  0  0  0  0  0
   23.0356  -17.9309    0.0000 C   0  0  0  0  0  0  0  0  0  0  0  0
   22.6371  -17.2097    0.0000 C   0  0  0  0  0  0  0  0  0  0  0  0
    5.3067   -6.8742    0.0000 C   0  0  0  0  0  0  0  0  0  0  0  0
    5.6410   -6.1201    0.0000 C   0  0  0  0  0  0  0  0  0  0  0  0
    7.6619   -5.7348    0.0000 C   0  0  0  0  0  0  0  0  0  0  0  0
  1  2  1  0
  2  3  1  0
  3  4  2  0
  4  5  1  0
  5  6  1  0
  6  7  2  0
  7  8  1  0
  8  9  2  0
  9  4  1  0
  9 10  1  0
 11 10  1  1
 11 12  1  0
 12 13  1  0
 13 14  1  0
 14 15  1  0
 15 16  1  0
 16 11  1  0
 14 17  1  1
 17 18  1  0
 18 19  1  0
 19 20  1  0
 20 21  1  0
 21 22  1  0
 22 17  1  0
 20 23  1  0
 23 24  2  0
 23 25  1  0
 25 26  1  0
 26 27  1  0
 27 28  2  0
 27 29  1  0
 29 30  1  0
 30 31  1  0
 31 32  1  0
 32 33  1  0
 33 34  1  0
 34 29  1  0
 32 35  1  0
 35 36  1  0
 36 37  1  0
 37 38  1  0
 38 39  1  0
 39 40  1  0
 40 41  1  0
 41 42  1  0
 42 37  1  0
 40 43  1  0
 43 44  2  0
 44 45  1  0
 45 46  2  0
 46 47  1  0
 47 48  2  0
 48 43  1  0
 46 49  1  0
 49 50  2  0
 49 51  1  0
 51 52  1  0
 52 45  1  0
 52 53  2  0
 51 54  1  0
 54 55  1  0
 55 56  2  0
 55 57  1  0
 57 58  1  0
 58 59  2  0
 58 60  1  0
 60 61  1  0
 61 54  1  0
  5 62  1  0
 62 63  2  0
 63  3  1  0
  2 64  1  0
M  END
> <From>
www.bindingDB.org

> <BindingDB Reactant_set_id>
51388395

> <Ligand InChI>
InChI=1S/C47H63N11O6/c1-31(2)36-16-20-57-43(36)44(48-30-49-57)50-33-3-5-34(6-4-33)53-25-27-56(28-26-53)42(61)12-11-41(60)55-18-14-32(15-19-55)13-17-52-21-23-54(24-22-52)35-7-8-37-38(29-35)47(64)58(46(37)63)39-9-10-40(59)51-45(39)62/h7-8,16,20,29-34,39H,3-6,9-15,17-19,21-28H2,1-2H3,(H,48,49,50)(H,51,59,62)/t33-,34+,39?

> <Ligand InChI Key>
ZUODKONSNNHSAJ-AMLBMYBGSA-N

> <BindingDB MonomerID>
50560888

> <BindingDB Ligand Name>
CHEMBL4749646

> <Target Name>
Protein cereblon

> <Target Source Organism According to Curator or DataSource>
Human

> <Ki (nM)>


> <IC50 (nM)>
 460

> <Kd (nM)>


> <EC50 (nM)>


> <kon (M-1-s-1)>


> <koff (s-1)>


> <pH>


> <Temp C>


> <Curation/DataSource>
ChEMBL

> <Article DOI>
10.1021/acs.jmedchem.0c01125

> <BindingDB Entry DOI>
10.7270/Q2P84GMZ

> <PMID>
32803978

> <PubChem AID>


> <Patent Number>


> <Authors>
Degorce, SL; Tavana, O; Banks, E; Crafter, C; Gingipalli, L; Kouvchinov, D; Mao, Y; Pachl, F; Solanki, A; Valge-Archer, V; Yang, B; Edmondson, SD

> <Date of publication>
9/24/2020

> <Date in BindingDB>
3/28/2022

> <Institution>
AstraZeneca

> <Link to Ligand in BindingDB>
http://www.bindingdb.org/bind/chemsearch/marvin/MolStructure.jsp?monomerid=50560888

> <Link to Ligand-Target Pair in BindingDB>
http://www.bindingdb.org/jsp/dbsearch/PrimarySearch_ki.jsp?energyterm=kJ/mole&tag=pol&polymerid=50007050&target=Protein+cereblon&column=ki&startPg=0&Increment=50&submit=Search

> <Link to Ligand-Target Pair in BindingDB>
http://www.bindingdb.org/jsp/dbsearch/PrimarySearch_ki.jsp?energyterm=kJ/mole&tag=r21&monomerid=50560888&enzyme=Protein+cereblon&column=ki&startPg=0&Increment=50&submit=Search

> <Ligand HET ID in PDB>


> <PDB ID(s) for Ligand-Target Complex>


> <PubChem CID of Ligand>
162366970

> <PubChem SID of Ligand>
461831280

> <ChEBI ID of Ligand>


> <ChEMBL ID of Ligand>


> <DrugBank ID of Ligand>


> <IUPHAR_GRAC ID of Ligand>


> <KEGG ID of Ligand>


> <ZINC ID of Ligand>


> <Number of Protein Chains in Target (bigger than 1 implies a multichain complex)>
1

> <BindingDB Target Chain Sequence>
MAGEGDQQDAAHNMGNHLPLLPAESEEEDEMEVEDQDSKEAKKPNIINFDTSLPTSHTYLGADMEEFHGRTLHDDDSCQVIPVLPQVMMILIPGQTLPLQLFHPQEVSMVRNLIQKDRTFAVLAYSNVQEREAQFGTTAEIYAYREEQDFGIEIVKVKAIGRQRFKVLELRTQSDGIQQAKVQILPECVLPSTMSAVQLESLNKCQIFPSKPVSREDQCSYKWWQKYQKRKFHCANLTSWPRWLYSLYDAETLMDRIKKQLREWDENLKDDSLPSNPIDFSYRVAACLPIDDVLRIQLLKIGSAIQRLRCELDIMNKCTSLCCKQCQETEITTKNEIFSLSLCGPMAAYVNPHGYVHETLTVYKACNLNLIGRPSTEHSWFPGYAWTVAQCKICASHIGWKFTATKKDMSPQKFWGLTRSALLPTIPDTEDEISPDKVILCL

> <PDB ID(s) of Target Chain>
4TZ4,5HXB,5V3O,6UML,6XK9,7LPS,7U8F,8CVP,8D7U,8D7V,8D7W,8D7X,8D7Y,8D7Z,8D80,8D81,8DEY,8OIZ,8OJH

> <UniProt (SwissProt) Recommended Name of Target Chain>
Protein cereblon

> <UniProt (SwissProt) Entry Name of Target Chain>
CRBN_HUMAN

> <UniProt (SwissProt) Primary ID of Target Chain>
Q96SW2

> <UniProt (SwissProt) Secondary ID(s) of Target Chain>
B2R6H4 C9IZA9 C9JAH6 Q6AI62 Q6NVZ0 Q9UHW4

> <UniProt (SwissProt) Alternative ID(s) of Target Chain>


> <UniProt (TrEMBL) Submitted Name of Target Chain>


> <UniProt (TrEMBL) Entry Name of Target Chain>


> <UniProt (TrEMBL) Primary ID of Target Chain>


> <UniProt (TrEMBL) Secondary ID(s) of Target Chain>


> <UniProt (TrEMBL) Alternative ID(s) of Target Chain>


$$$$

     RDKit          2D

 60 66  0  0  0  0  0  0  0  0999 V2000
   -2.9520   -4.6564    0.0000 C   0  0  0  0  0  0  0  0  0  0  0  0
   -2.6401   -3.1891    0.0000 C   0  0  0  0  0  0  0  0  0  0  0  0
   -3.7548   -2.1855    0.0000 O   0  0  0  0  0  0  0  0  0  0  0  0
   -1.2135   -2.7256    0.0000 C   0  0  0  0  0  0  0  0  0  0  0  0
   -0.0000   -3.6073    0.0000 C   0  0  0  0  0  0  0  0  0  0  0  0
    1.2135   -2.7256    0.0000 C   0  0  0  0  0  0  0  0  0  0  0  0
    2.6401   -3.1891    0.0000 C   0  0  0  0  0  0  0  0  0  0  0  0
    3.7548   -2.1855    0.0000 O   0  0  0  0  0  0  0  0  0  0  0  0
    2.9520   -4.6564    0.0000 N   0  0  0  0  0  0  0  0  0  0  0  0
    4.3786   -5.1199    0.0000 C   0  0  0  0  0  0  0  0  0  0  0  0
    4.6904   -6.5871    0.0000 C   0  0  0  0  0  0  0  0  0  0  0  0
    6.1170   -7.0506    0.0000 C   0  0  0  0  0  0  0  0  0  0  0  0
    6.4289   -8.5179    0.0000 C   0  0  0  0  0  0  0  0  0  0  0  0
    5.3142   -9.5216    0.0000 O   0  0  0  0  0  0  0  0  0  0  0  0
    7.2317   -6.0469    0.0000 C   0  0  0  0  0  0  0  0  0  0  0  0
    6.9199   -4.5797    0.0000 C   0  0  0  0  0  0  0  0  0  0  0  0
    8.0346   -3.5760    0.0000 C   0  0  0  0  0  0  0  0  0  0  0  0
    7.8778   -2.0842    0.0000 C   0  0  0  0  0  0  0  0  0  0  0  0
    9.2481   -1.4741    0.0000 N   0  0  0  0  0  0  0  0  0  0  0  0
   10.2518   -2.5889    0.0000 N   0  0  0  0  0  0  0  0  0  0  0  0
   11.7436   -2.4321    0.0000 C   0  0  0  0  0  0  0  0  0  0  0  0
    9.5018   -3.8879    0.0000 C   0  0  0  0  0  0  0  0  0  0  0  0
    5.4933   -4.1162    0.0000 C   0  0  0  0  0  0  0  0  0  0  0  0
    5.1814   -2.6490    0.0000 F   0  0  0  0  0  0  0  0  0  0  0  0
    0.7500   -1.2990    0.0000 C   0  0  0  0  0  0  0  0  0  0  0  0
    1.5000    0.0000    0.0000 C   0  0  0  0  0  0  0  0  0  0  0  0
    0.7500    1.2990    0.0000 C   0  0  0  0  0  0  0  0  0  0  0  0
    1.5000    2.5981    0.0000 O   0  0  0  0  0  0  0  0  0  0  0  0
    3.0000    2.5981    0.0000 C   0  0  0  0  0  0  0  0  0  0  0  0
    3.7500    3.8971    0.0000 C   0  0  0  0  0  0  0  0  0  0  0  0
    5.2500    3.8971    0.0000 C   0  0  0  0  0  0  0  0  0  0  0  0
    6.0000    5.1962    0.0000 C   0  0  0  0  0  0  0  0  0  0  0  0
    7.5000    5.1962    0.0000 C   0  0  0  0  0  0  0  0  0  0  0  0
    8.2500    3.8971    0.0000 O   0  0  0  0  0  0  0  0  0  0  0  0
    8.2500    6.4952    0.0000 N   0  0  0  0  0  0  0  0  0  0  0  0
    9.7500    6.4952    0.0000 C   0  0  0  0  0  0  0  0  0  0  0  0
   10.5000    7.7942    0.0000 C   0  0  0  0  0  0  0  0  0  0  0  0
   12.0000    7.7942    0.0000 C   0  0  0  0  0  0  0  0  0  0  0  0
   12.7500    9.0933    0.0000 C   0  0  0  0  0  0  0  0  0  0  0  0
   12.0000   10.3923    0.0000 C   0  0  0  0  0  0  0  0  0  0  0  0
   12.7500   11.6913    0.0000 C   0  0  0  0  0  0  0  0  0  0  0  0
   14.2500   11.6913    0.0000 C   0  0  0  0  0  0  0  0  0  0  0  0
   15.0000   10.3923    0.0000 C   0  0  0  0  0  0  0  0  0  0  0  0
   14.2500    9.0933    0.0000 C   0  0  0  0  0  0  0  0  0  0  0  0
   15.2537    7.9785    0.0000 C   0  0  0  0  0  0  0  0  0  0  0  0
   14.9418    6.5113    0.0000 O   0  0  0  0  0  0  0  0  0  0  0  0
   16.6240    8.5887    0.0000 N   0  0  0  0  0  0  0  0  0  0  0  0
   17.9231    7.8387    0.0000 C   0  0  0  0  0  0  0  0  0  0  0  0
   17.9231    6.3387    0.0000 C   0  0  0  0  0  0  0  0  0  0  0  0
   19.2221    5.5887    0.0000 C   0  0  0  0  0  0  0  0  0  0  0  0
   20.5211    6.3387    0.0000 C   0  0  0  0  0  0  0  0  0  0  0  0
   21.8202    5.5887    0.0000 O   0  0  0  0  0  0  0  0  0  0  0  0
   20.5211    7.8387    0.0000 N   0  0  0  0  0  0  0  0  0  0  0  0
   19.2221    8.5887    0.0000 C   0  0  0  0  0  0  0  0  0  0  0  0
   19.2221   10.0887    0.0000 O   0  0  0  0  0  0  0  0  0  0  0  0
   16.4672   10.0804    0.0000 C   0  0  0  0  0  0  0  0  0  0  0  0
   17.5819   11.0841    0.0000 O   0  0  0  0  0  0  0  0  0  0  0  0
   -0.7500    1.2990    0.0000 C   0  0  0  0  0  0  0  0  0  0  0  0
   -1.5000    0.0000    0.0000 C   0  0  0  0  0  0  0  0  0  0  0  0
   -0.7500   -1.2990    0.0000 N   0  0  0  0  0  0  0  0  0  0  0  0
  1  2  1  0
  2  3  2  0
  2  4  1  0
  4  5  2  0
  5  6  1  0
  6  7  1  0
  7  8  2  0
  7  9  1  0
  9 10  1  0
 10 11  2  0
 11 12  1  0
 12 13  1  0
 13 14  1  0
 12 15  2  0
 15 16  1  0
 16 17  1  0
 17 18  1  0
 18 19  2  0
 19 20  1  0
 20 21  1  0
 20 22  1  0
 16 23  2  0
 23 24  1  0
  6 25  2  0
 25 26  1  0
 26 27  2  0
 27 28  1  0
 28 29  1  0
 29 30  1  0
 30 31  1  0
 31 32  1  0
 32 33  1  0
 33 34  2  0
 33 35  1  0
 35 36  1  0
 36 37  1  0
 37 38  1  0
 38 39  1  0
 39 40  2  0
 40 41  1  0
 41 42  2  0
 42 43  1  0
 43 44  2  0
 44 45  1  0
 45 46  2  0
 45 47  1  0
 47 48  1  0
 48 49  1  0
 49 50  1  0
 50 51  1  0
 51 52  2  0
 51 53  1  0
 53 54  1  0
 54 55  2  0
 47 56  1  0
 56 57  2  0
 27 58  1  0
 58 59  2  0
 59 60  1  0
 60  4  1  0
 23 10  1  0
 60 25  1  0
 22 17  2  0
 44 39  1  0
 54 48  1  0
 56 43  1  0
M  END
> <From>
www.bindingDB.org

> <BindingDB Reactant_set_id>
51586038

> <Ligand InChI>
InChI=1S/C43H42FN7O9/c1-24(53)34-20-31(40(56)47-32-18-25(23-52)17-30(39(32)44)27-21-46-49(2)22-27)35-19-28(13-15-50(34)35)60-16-4-3-10-36(54)45-14-6-8-26-7-5-9-29-38(26)43(59)51(42(29)58)33-11-12-37(55)48-41(33)57/h5,7,9,13,15,17-22,33,52H,3-4,6,8,10-12,14,16,23H2,1-2H3,(H,45,54)(H,47,56)(H,48,55,57)

> <Ligand InChI Key>
SVADXQXVQIZUOT-UHFFFAOYSA-N

> <BindingDB MonomerID>
50638388

> <BindingDB Ligand Name>
CHEMBL5560381

> <Target Name>
Protein cereblon

> <Target Source Organism According to Curator or DataSource>
Human

> <Ki (nM)>


> <IC50 (nM)>
 470

> <Kd (nM)>


> <EC50 (nM)>


> <kon (M-1-s-1)>


> <koff (s-1)>


> <pH>


> <Temp C>


> <Curation/DataSource>
ChEMBL

> <Article DOI>


> <BindingDB Entry DOI>
10.7270/Q2NV9PV1

> <PMID>
38829718

> <PubChem AID>


> <Patent Number>


> <Authors>
Wu, T; Hu, J; Zhao, X; Zhang, C; Dong, R; Hu, Q; Xu, H; Shen, H; Zhang, X; Zhang, Y; Lin, B; Wu, X; Xiang, Q; Xu, Y

> <Date of publication>
//0

> <Date in BindingDB>
10/11/2025

> <Institution>
Shenyang Pharmaceutical University

> <Link to Ligand in BindingDB>
http://www.bindingdb.org/bind/chemsearch/marvin/MolStructure.jsp?monomerid=50638388

> <Link to Ligand-Target Pair in BindingDB>
http://www.bindingdb.org/rwd/jsp/dbsearch/PrimarySearch_ki.jsp?energyterm=kJ/mole&tag=pol&polymerid=50007050&target=Protein+cereblon&column=ki&startPg=0&Increment=50&submit=Search

> <Link to Ligand-Target Pair in BindingDB>
http://www.bindingdb.org/rwd/jsp/dbsearch/PrimarySearch_ki.jsp?energyterm=kJ/mole&tag=r21&monomerid=50638388&enzyme=Protein+cereblon&column=ki&startPg=0&Increment=50&submit=Search

> <Ligand HET ID in PDB>


> <PDB ID(s) for Ligand-Target Complex>


> <PubChem CID of Ligand>
177375920

> <PubChem SID of Ligand>
519658791

> <ChEBI ID of Ligand>


> <ChEMBL ID of Ligand>


> <DrugBank ID of Ligand>


> <IUPHAR_GRAC ID of Ligand>


> <KEGG ID of Ligand>


> <ZINC ID of Ligand>


> <Number of Protein Chains in Target (bigger than 1 implies a multichain complex)>
1

> <BindingDB Target Chain Sequence>
MAGEGDQQDAAHNMGNHLPLLPAESEEEDEMEVEDQDSKEAKKPNIINFDTSLPTSHTYLGADMEEFHGRTLHDDDSCQVIPVLPQVMMILIPGQTLPLQLFHPQEVSMVRNLIQKDRTFAVLAYSNVQEREAQFGTTAEIYAYREEQDFGIEIVKVKAIGRQRFKVLELRTQSDGIQQAKVQILPECVLPSTMSAVQLESLNKCQIFPSKPVSREDQCSYKWWQKYQKRKFHCANLTSWPRWLYSLYDAETLMDRIKKQLREWDENLKDDSLPSNPIDFSYRVAACLPIDDVLRIQLLKIGSAIQRLRCELDIMNKCTSLCCKQCQETEITTKNEIFSLSLCGPMAAYVNPHGYVHETLTVYKACNLNLIGRPSTEHSWFPGYAWTVAQCKICASHIGWKFTATKKDMSPQKFWGLTRSALLPTIPDTEDEISPDKVILCL

> <PDB ID(s) of Target Chain>
9DUR,8TNR,8TNQ,8TNP,9DWW,9DWV,9NGT,9NFR,9NFQ,8D81,8D80,8D7Z,8D7Y,8D7X,8D7W,8D7V,8D7U,8CVP,9Q2D,9Q03,9DQD,8UH6,9SAI,9SAF,9H59,9E2U,6BOY,6BNB,6BN9,6BN8,6BN7,9OUL,9Y7D,6XK9,6UML,5V3O,5HXB,9HNE,9D0X,9D0W,7U8F,9FJX,8OJH,8OIZ,7LPS,9SFM,9OTY,4TZ4,9DJX,9DJT,8U17,8U16,8U15,8TZX,8DEY,9CUO,4M91

> <UniProt (SwissProt) Recommended Name of Target Chain>
Protein cereblon

> <UniProt (SwissProt) Entry Name of Target Chain>
CRBN_HUMAN

> <UniProt (SwissProt) Primary ID of Target Chain>
Q96SW2

> <UniProt (SwissProt) Secondary ID(s) of Target Chain>
B2R6H4 C9IZA9 C9JAH6 Q6AI62 Q6NVZ0 Q9UHW4

> <UniProt (SwissProt) Alternative ID(s) of Target Chain>


> <UniProt (TrEMBL) Submitted Name of Target Chain>


> <UniProt (TrEMBL) Entry Name of Target Chain>


> <UniProt (TrEMBL) Primary ID of Target Chain>


> <UniProt (TrEMBL) Secondary ID(s) of Target Chain>


> <UniProt (TrEMBL) Alternative ID(s) of Target Chain>


$$$$
 
     RDKit          2D

 54 61  0  0  0  0  0  0  0  0999 V2000
   10.7339  -16.2570    0.0000 C   0  0  0  0  0  0  0  0  0  0  0  0
   11.8815  -15.0974    0.0000 C   0  0  0  0  0  0  0  0  0  0  0  0
   11.0866  -14.8905    0.0000 C   0  0  0  0  0  0  0  0  0  0  0  0
   10.5148  -15.4714    0.0000 C   0  0  0  0  0  0  0  0  0  0  0  0
   12.0960  -15.8868    0.0000 C   0  0  0  0  0  0  0  0  0  0  0  0
   11.5211  -16.4637    0.0000 C   0  0  0  0  0  0  0  0  0  0  0  0
   11.8920  -17.1889    0.0000 C   0  0  0  0  0  0  0  0  0  0  0  0
   12.6964  -17.0601    0.0000 N   0  0  0  0  0  0  0  0  0  0  0  0
   12.8223  -16.2554    0.0000 C   0  0  0  0  0  0  0  0  0  0  0  0
   13.5498  -15.8832    0.0000 O   0  0  0  0  0  0  0  0  0  0  0  0
   13.2734  -17.6350    0.0000 C   0  0  0  0  0  0  0  0  0  0  0  0
   13.0611  -18.4251    0.0000 C   0  0  0  0  0  0  0  0  0  0  0  0
   13.6361  -19.0008    0.0000 C   0  0  0  0  0  0  0  0  0  0  0  0
   14.4265  -18.7920    0.0000 C   0  0  0  0  0  0  0  0  0  0  0  0
   14.6388  -18.0018    0.0000 N   0  0  0  0  0  0  0  0  0  0  0  0
   14.0606  -17.4206    0.0000 C   0  0  0  0  0  0  0  0  0  0  0  0
   14.2716  -16.6311    0.0000 O   0  0  0  0  0  0  0  0  0  0  0  0
   15.0031  -19.3710    0.0000 O   0  0  0  0  0  0  0  0  0  0  0  0
    7.0039  -19.8437    0.0000 C   0  0  0  0  0  0  0  0  0  0  0  0
    7.2144  -20.6320    0.0000 C   0  0  0  0  0  0  0  0  0  0  0  0
    7.9980  -20.8427    0.0000 C   0  0  0  0  0  0  0  0  0  0  0  0
    8.5766  -20.2683    0.0000 C   0  0  0  0  0  0  0  0  0  0  0  0
    8.3661  -19.4800    0.0000 C   0  0  0  0  0  0  0  0  0  0  0  0
    7.5770  -19.2661    0.0000 C   0  0  0  0  0  0  0  0  0  0  0  0
    6.2158  -20.0613    0.0000 C   0  0  0  0  0  0  0  0  0  0  0  0
    7.0437  -19.0306    0.0000 N   0  0  0  0  0  0  0  0  0  0  0  0
    6.2797  -18.7409    0.0000 C   0  0  0  0  0  0  0  0  0  0  0  0
    5.7682  -19.3779    0.0000 C   0  0  0  0  0  0  0  0  0  0  0  0
    4.0226  -20.3224    0.0000 C   0  0  0  0  0  0  0  0  0  0  0  0
    4.0215  -21.1420    0.0000 C   0  0  0  0  0  0  0  0  0  0  0  0
    4.7295  -21.5509    0.0000 C   0  0  0  0  0  0  0  0  0  0  0  0
    4.7277  -19.9136    0.0000 C   0  0  0  0  0  0  0  0  0  0  0  0
    5.4364  -20.3188    0.0000 C   0  0  0  0  0  0  0  0  0  0  0  0
    5.4412  -21.1374    0.0000 C   0  0  0  0  0  0  0  0  0  0  0  0
    6.2212  -21.3859    0.0000 N   0  0  0  0  0  0  0  0  0  0  0  0
    6.6985  -20.7208    0.0000 C   0  0  0  0  0  0  0  0  0  0  0  0
    3.3135  -21.5500    0.0000 Cl  0  0  0  0  0  0  0  0  0  0  0  0
    7.4042  -21.1273    0.0000 O   0  0  0  0  0  0  0  0  0  0  0  0
    6.0650  -17.9524    0.0000 C   0  0  0  0  0  0  0  0  0  0  0  0
    6.6405  -17.3722    0.0000 N   0  0  0  0  0  0  0  0  0  0  0  0
    5.2748  -17.7441    0.0000 O   0  0  0  0  0  0  0  0  0  0  0  0
    4.9733  -19.1627    0.0000 C   0  0  0  0  0  0  0  0  0  0  0  0
    4.7646  -18.3650    0.0000 C   0  0  0  0  0  0  0  0  0  0  0  0
    3.9706  -18.1497    0.0000 C   0  0  0  0  0  0  0  0  0  0  0  0
    3.3859  -18.7308    0.0000 C   0  0  0  0  0  0  0  0  0  0  0  0
    3.6006  -19.5302    0.0000 C   0  0  0  0  0  0  0  0  0  0  0  0
    4.3943  -19.7418    0.0000 C   0  0  0  0  0  0  0  0  0  0  0  0
    4.7587  -17.5448    0.0000 F   0  0  0  0  0  0  0  0  0  0  0  0
    3.7615  -17.3597    0.0000 Cl  0  0  0  0  0  0  0  0  0  0  0  0
    7.4307  -17.5805    0.0000 C   0  0  0  0  0  0  0  0  0  0  0  0
    8.0062  -17.0003    0.0000 C   0  0  0  0  0  0  0  0  0  0  0  0
    8.7964  -17.2086    0.0000 C   0  0  0  0  0  0  0  0  0  0  0  0
    9.3719  -16.6285    0.0000 C   0  0  0  0  0  0  0  0  0  0  0  0
   10.1621  -16.8368    0.0000 C   0  0  0  0  0  0  0  0  0  0  0  0
  1  6  2  0
  5  2  2  0
  2  3  1  0
  3  4  2  0
  4  1  1  0
  5  6  1  0
  6  7  1  0
  7  8  1  0
  8  9  1  0
  9  5  1  0
  9 10  2  0
 11 12  1  0
 11 16  1  0
 12 13  1  0
 13 14  1  0
 14 15  1  0
 15 16  1  0
  8 11  1  0
 16 17  2  0
 14 18  2  0
 19 20  1  0
 19 24  1  0
 20 21  1  0
 21 22  1  0
 22 23  1  0
 23 24  1  0
 25 19  1  0
 19 26  1  0
 26 27  1  0
 27 28  1  0
 28 25  1  0
 29 30  2  0
 30 31  1  0
 31 34  2  0
 33 32  2  0
 32 29  1  0
 33 34  1  0
 34 35  1  0
 35 36  1  0
 25 36  1  1
 25 33  1  0
 30 37  1  0
 36 38  2  0
 27 39  1  6
 39 40  1  0
 39 41  2  0
 28 42  1  1
 42 43  2  0
 43 44  1  0
 44 45  2  0
 45 46  1  0
 46 47  2  0
 47 42  1  0
 43 48  1  0
 44 49  1  0
 40 50  1  0
 50 51  1  0
 51 52  1  0
 52 53  1  0
 53 54  1  0
 54  1  1  0
M  END
> <From>
www.bindingDB.org

> <BindingDB Reactant_set_id>
51235026

> <Ligand InChI>
InChI=1S/C41H42Cl2FN5O5/c42-24-14-15-28-30(21-24)46-39(54)41(28)33(26-12-8-13-29(43)34(26)44)35(48-40(41)18-4-2-5-19-40)37(52)45-20-6-1-3-9-23-10-7-11-25-27(23)22-49(38(25)53)31-16-17-32(50)47-36(31)51/h7-8,10-15,21,31,33,35,48H,1-6,9,16-20,22H2,(H,45,52)(H,46,54)(H,47,50,51)/t31?,33-,35+,41+/m0/s1

> <Ligand InChI Key>
BANRYGZZIMCKNA-OYGJEQPESA-N

> <BindingDB MonomerID>
50505628

> <BindingDB Ligand Name>
CHEMBL4449512

> <Target Name>
Protein cereblon

> <Target Source Organism According to Curator or DataSource>
Human

> <Ki (nM)>


> <IC50 (nM)>
 496

> <Kd (nM)>


> <EC50 (nM)>


> <kon (M-1-s-1)>


> <koff (s-1)>


> <pH>


> <Temp C>


> <Curation/DataSource>
ChEMBL

> <Article DOI>
10.1021/acs.jmedchem.9b00846

> <BindingDB Entry DOI>
10.7270/Q20C5026

> <PMID>
31560543

> <PubChem AID>


> <Patent Number>


> <Authors>
Yang, J; Li, Y; Aguilar, A; Liu, Z; Yang, CY; Wang, S

> <Date of publication>
11/14/2019

> <Date in BindingDB>
2/18/2021

> <Institution>
TBA

> <Link to Ligand in BindingDB>
http://www.bindingdb.org/bind/chemsearch/marvin/MolStructure.jsp?monomerid=50505628

> <Link to Ligand-Target Pair in BindingDB>
http://www.bindingdb.org/jsp/dbsearch/PrimarySearch_ki.jsp?energyterm=kJ/mole&tag=pol&polymerid=50007050&target=Protein+cereblon&column=ki&startPg=0&Increment=50&submit=Search

> <Link to Ligand-Target Pair in BindingDB>
http://www.bindingdb.org/jsp/dbsearch/PrimarySearch_ki.jsp?energyterm=kJ/mole&tag=r21&monomerid=50505628&enzyme=Protein+cereblon&column=ki&startPg=0&Increment=50&submit=Search

> <Ligand HET ID in PDB>


> <PDB ID(s) for Ligand-Target Complex>


> <PubChem CID of Ligand>
139600332

> <PubChem SID of Ligand>
440714213

> <ChEBI ID of Ligand>


> <ChEMBL ID of Ligand>


> <DrugBank ID of Ligand>


> <IUPHAR_GRAC ID of Ligand>


> <KEGG ID of Ligand>


> <ZINC ID of Ligand>


> <Number of Protein Chains in Target (bigger than 1 implies a multichain complex)>
1

> <BindingDB Target Chain Sequence>
MAGEGDQQDAAHNMGNHLPLLPAESEEEDEMEVEDQDSKEAKKPNIINFDTSLPTSHTYLGADMEEFHGRTLHDDDSCQVIPVLPQVMMILIPGQTLPLQLFHPQEVSMVRNLIQKDRTFAVLAYSNVQEREAQFGTTAEIYAYREEQDFGIEIVKVKAIGRQRFKVLELRTQSDGIQQAKVQILPECVLPSTMSAVQLESLNKCQIFPSKPVSREDQCSYKWWQKYQKRKFHCANLTSWPRWLYSLYDAETLMDRIKKQLREWDENLKDDSLPSNPIDFSYRVAACLPIDDVLRIQLLKIGSAIQRLRCELDIMNKCTSLCCKQCQETEITTKNEIFSLSLCGPMAAYVNPHGYVHETLTVYKACNLNLIGRPSTEHSWFPGYAWTVAQCKICASHIGWKFTATKKDMSPQKFWGLTRSALLPTIPDTEDEISPDKVILCL

> <PDB ID(s) of Target Chain>
4TZ4,5HXB,5V3O,6UML,6XK9,7LPS,7U8F,8CVP,8D7U,8D7V,8D7W,8D7X,8D7Y,8D7Z,8D80,8D81,8DEY,8OIZ,8OJH

> <UniProt (SwissProt) Recommended Name of Target Chain>
Protein cereblon

> <UniProt (SwissProt) Entry Name of Target Chain>
CRBN_HUMAN

> <UniProt (SwissProt) Primary ID of Target Chain>
Q96SW2

> <UniProt (SwissProt) Secondary ID(s) of Target Chain>
B2R6H4 C9IZA9 C9JAH6 Q6AI62 Q6NVZ0 Q9UHW4

> <UniProt (SwissProt) Alternative ID(s) of Target Chain>


> <UniProt (TrEMBL) Submitted Name of Target Chain>


> <UniProt (TrEMBL) Entry Name of Target Chain>


> <UniProt (TrEMBL) Primary ID of Target Chain>


> <UniProt (TrEMBL) Secondary ID(s) of Target Chain>


> <UniProt (TrEMBL) Alternative ID(s) of Target Chain>


$$$$

     RDKit          2D

 18 20  0  0  0  0  0  0  0  0999 V2000
   -1.2833    0.2583    0.0000 N   0  0  0  0  0  0  0  0  0  0  0  0
   -1.7833    0.9250    0.0000 C   0  0  0  0  0  0  0  0  0  0  0  0
   -0.0500   -0.4625    0.0000 C   0  0  0  0  0  0  0  0  0  0  0  0
    0.7750   -0.4667    0.0000 N   0  0  0  0  0  0  0  0  0  0  0  0
   -0.4583    0.2583    0.0000 C   0  0  0  0  0  0  0  0  0  0  0  0
   -1.7833   -0.4167    0.0000 C   0  0  0  0  0  0  0  0  0  0  0  0
   -2.5625    0.6708    0.0000 C   0  0  0  0  0  0  0  0  0  0  0  0
   -2.5625   -0.1542    0.0000 C   0  0  0  0  0  0  0  0  0  0  0  0
    1.1875    0.2458    0.0000 C   0  0  0  0  0  0  0  0  0  0  0  0
   -0.0500    0.9708    0.0000 C   0  0  0  0  0  0  0  0  0  0  0  0
   -1.5208    1.7083    0.0000 O   0  0  0  0  0  0  0  0  0  0  0  0
   -0.4625   -1.1792    0.0000 O   0  0  0  0  0  0  0  0  0  0  0  0
    2.0042    0.2458    0.0000 O   0  0  0  0  0  0  0  0  0  0  0  0
    0.7792    0.9625    0.0000 C   0  0  0  0  0  0  0  0  0  0  0  0
   -3.2833    1.0833    0.0000 C   0  0  0  0  0  0  0  0  0  0  0  0
   -3.2833   -0.5750    0.0000 C   0  0  0  0  0  0  0  0  0  0  0  0
   -3.9958    0.6625    0.0000 C   0  0  0  0  0  0  0  0  0  0  0  0
   -3.9958   -0.1542    0.0000 C   0  0  0  0  0  0  0  0  0  0  0  0
  2  1  1  0
  3  5  1  0
  4  3  1  0
  5  1  1  0
  6  1  1  0
  7  2  1  0
  8  6  1  0
  9 14  1  0
 10  5  1  0
 11  2  2  0
 12  3  2  0
 13  9  2  0
 14 10  1  0
 15  7  2  0
 16  8  2  0
 17 15  1  0
 18 16  1  0
  8  7  1  0
 18 17  2  0
  9  4  1  0
M  END
> <From>
www.bindingDB.org

> <BindingDB Reactant_set_id>
51570913

> <Ligand InChI>
InChI=1S/C13H12N2O3/c16-11-6-5-10(12(17)14-11)15-7-8-3-1-2-4-9(8)13(15)18/h1-4,10H,5-7H2,(H,14,16,17)

> <Ligand InChI Key>
WENKGSGGXGQHSH-UHFFFAOYSA-N

> <BindingDB MonomerID>
50614095

> <BindingDB Ligand Name>
CHEMBL304572

> <Target Name>
Protein cereblon

> <Target Source Organism According to Curator or DataSource>
Homo sapiens

> <Ki (nM)>


> <IC50 (nM)>
 550

> <Kd (nM)>


> <EC50 (nM)>


> <kon (M-1-s-1)>


> <koff (s-1)>


> <pH>


> <Temp C>


> <Curation/DataSource>
ChEMBL

> <Article DOI>
10.1039/d3md00652b

> <BindingDB Entry DOI>
10.7270/Q2CV4P64

> <PMID>
38389883

> <PubChem AID>


> <Patent Number>


> <Authors>
n/a

> <Date of publication>
2/21/2024

> <Date in BindingDB>
12/21/2024

> <Institution>
n/a

> <Link to Ligand in BindingDB>
http://www.bindingdb.org/bind/chemsearch/marvin/MolStructure.jsp?monomerid=50614095

> <Link to Ligand-Target Pair in BindingDB>
http://www.bindingdb.org/jsp/dbsearch/PrimarySearch_ki.jsp?energyterm=kJ/mole&tag=pol&polymerid=50007050&target=Protein+cereblon&column=ki&startPg=0&Increment=50&submit=Search

> <Link to Ligand-Target Pair in BindingDB>
http://www.bindingdb.org/jsp/dbsearch/PrimarySearch_ki.jsp?energyterm=kJ/mole&tag=r21&monomerid=50614095&enzyme=Protein+cereblon&column=ki&startPg=0&Increment=50&submit=Search

> <Ligand HET ID in PDB>


> <PDB ID(s) for Ligand-Target Complex>


> <PubChem CID of Ligand>
91585

> <PubChem SID of Ligand>
494503843

> <ChEBI ID of Ligand>


> <ChEMBL ID of Ligand>


> <DrugBank ID of Ligand>


> <IUPHAR_GRAC ID of Ligand>


> <KEGG ID of Ligand>


> <ZINC ID of Ligand>


> <Number of Protein Chains in Target (bigger than 1 implies a multichain complex)>
1

> <BindingDB Target Chain Sequence>
MAGEGDQQDAAHNMGNHLPLLPAESEEEDEMEVEDQDSKEAKKPNIINFDTSLPTSHTYLGADMEEFHGRTLHDDDSCQVIPVLPQVMMILIPGQTLPLQLFHPQEVSMVRNLIQKDRTFAVLAYSNVQEREAQFGTTAEIYAYREEQDFGIEIVKVKAIGRQRFKVLELRTQSDGIQQAKVQILPECVLPSTMSAVQLESLNKCQIFPSKPVSREDQCSYKWWQKYQKRKFHCANLTSWPRWLYSLYDAETLMDRIKKQLREWDENLKDDSLPSNPIDFSYRVAACLPIDDVLRIQLLKIGSAIQRLRCELDIMNKCTSLCCKQCQETEITTKNEIFSLSLCGPMAAYVNPHGYVHETLTVYKACNLNLIGRPSTEHSWFPGYAWTVAQCKICASHIGWKFTATKKDMSPQKFWGLTRSALLPTIPDTEDEISPDKVILCL

> <PDB ID(s) of Target Chain>
8TNR,8TNQ,8TNP,8D81,8D80,8D7Z,8D7Y,8D7X,8D7W,8D7V,8D7U,8CVP,9DQD,8UH6,6BOY,6BNB,6BN9,6BN8,6BN7,6XK9,6UML,5V3O,5HXB,7U8F,8OJH,8OIZ,7LPS,4TZ4,9DJX,9DJT,8U17,8U16,8U15,8TZX,8DEY,9CUO,4M91

> <UniProt (SwissProt) Recommended Name of Target Chain>
Protein cereblon

> <UniProt (SwissProt) Entry Name of Target Chain>
CRBN_HUMAN

> <UniProt (SwissProt) Primary ID of Target Chain>
Q96SW2

> <UniProt (SwissProt) Secondary ID(s) of Target Chain>
B2R6H4 C9IZA9 C9JAH6 Q6AI62 Q6NVZ0 Q9UHW4

> <UniProt (SwissProt) Alternative ID(s) of Target Chain>


> <UniProt (TrEMBL) Submitted Name of Target Chain>


> <UniProt (TrEMBL) Entry Name of Target Chain>


> <UniProt (TrEMBL) Primary ID of Target Chain>


> <UniProt (TrEMBL) Secondary ID(s) of Target Chain>


> <UniProt (TrEMBL) Alternative ID(s) of Target Chain>


$$$$
00236001.cdx
  Mrv0541 01232223072D          

 20 22  0  0  0  0            999 V2000
    0.0565    0.0235    0.0000 N   0  0  0  0  0  0  0  0  0  0  0  0
    0.8815    0.0235    0.0000 C   0  0  0  0  0  0  0  0  0  0  0  0
    1.2940   -0.6910    0.0000 C   0  0  0  0  0  0  0  0  0  0  0  0
    2.1190   -0.6910    0.0000 N   0  0  0  0  0  0  0  0  0  0  0  0
    2.5315    0.0235    0.0000 C   0  0  0  0  0  0  0  0  0  0  0  0
    2.1190    0.7380    0.0000 C   0  0  0  0  0  0  0  0  0  0  0  0
    1.2940    0.7380    0.0000 C   0  0  0  0  0  0  0  0  0  0  0  0
    3.3565    0.0235    0.0000 O   0  0  0  0  0  0  0  0  0  0  0  0
    0.8815   -1.4054    0.0000 O   0  0  0  0  0  0  0  0  0  0  0  0
   -0.4284    0.6910    0.0000 C   0  0  0  0  0  0  0  0  0  0  0  0
   -1.2131    0.4360    0.0000 C   0  0  0  0  0  0  0  0  0  0  0  0
   -1.2131   -0.3890    0.0000 C   0  0  0  0  0  0  0  0  0  0  0  0
   -0.4284   -0.6439    0.0000 C   0  0  0  0  0  0  0  0  0  0  0  0
   -1.9275    0.8485    0.0000 C   0  0  0  0  0  0  0  0  0  0  0  0
   -2.6420    0.4360    0.0000 C   0  0  0  0  0  0  0  0  0  0  0  0
   -2.6420   -0.3890    0.0000 C   0  0  0  0  0  0  0  0  0  0  0  0
   -1.9275   -0.8015    0.0000 C   0  0  0  0  0  0  0  0  0  0  0  0
   -0.0159    1.4054    0.0000 O   0  0  0  0  0  0  0  0  0  0  0  0
   -0.0159   -1.3584    0.0000 O   0  0  0  0  0  0  0  0  0  0  0  0
   -3.3565    0.8485    0.0000 N   0  0  0  0  0  0  0  0  0  0  0  0
  1  2  1  0  0  0  0
  2  3  1  0  0  0  0
  3  4  1  0  0  0  0
  4  5  1  0  0  0  0
  5  6  1  0  0  0  0
  6  7  1  0  0  0  0
  7  2  1  0  0  0  0
  5  8  2  0  0  0  0
  3  9  2  0  0  0  0
  1 10  1  0  0  0  0
 10 11  1  0  0  0  0
 11 12  4  0  0  0  0
 12 13  1  0  0  0  0
 13  1  1  0  0  0  0
 11 14  4  0  0  0  0
 14 15  4  0  0  0  0
 15 16  4  0  0  0  0
 16 17  4  0  0  0  0
 17 12  4  0  0  0  0
 10 18  2  0  0  0  0
 13 19  2  0  0  0  0
 15 20  1  0  0  0  0
M  END
> <From>
www.bindingDB.org

> <BindingDB Reactant_set_id>
51526242

> <Ligand InChI>
InChI=1S/C13H11N3O4/c14-6-1-2-7-8(5-6)13(20)16(12(7)19)9-3-4-10(17)15-11(9)18/h1-2,5,9H,3-4,14H2,(H,15,17,18)

> <Ligand InChI Key>
IICWMVJMJVXCLY-UHFFFAOYSA-N

> <BindingDB MonomerID>
511643

> <BindingDB Ligand Name>
US11059801, Compound D-8

> <Target Name>
Protein cereblon

> <Target Source Organism According to Curator or DataSource>
Human

> <Ki (nM)>


> <IC50 (nM)>
 560

> <Kd (nM)>


> <EC50 (nM)>


> <kon (M-1-s-1)>


> <koff (s-1)>


> <pH>


> <Temp C>


> <Curation/DataSource>
ChEMBL

> <Article DOI>


> <BindingDB Entry DOI>
10.7270/Q2V12923

> <PMID>
36970148

> <PubChem AID>


> <Patent Number>


> <Authors>
Nowak, RP; Che, J; Ferrao, S; Kong, NR; Liu, H; Zerfas, BL; Jones, LH

> <Date of publication>
3/22/2023

> <Date in BindingDB>
4/22/2024

> <Institution>
Dana-Farber Cancer Institute

> <Link to Ligand in BindingDB>
http://www.bindingdb.org/bind/chemsearch/marvin/MolStructure.jsp?monomerid=511643

> <Link to Ligand-Target Pair in BindingDB>
http://www.bindingdb.org/jsp/dbsearch/PrimarySearch_ki.jsp?energyterm=kJ/mole&tag=pol&polymerid=50007050&target=Protein+cereblon&column=ki&startPg=0&Increment=50&submit=Search

> <Link to Ligand-Target Pair in BindingDB>
http://www.bindingdb.org/jsp/dbsearch/PrimarySearch_ki.jsp?energyterm=kJ/mole&tag=r21&monomerid=511643&enzyme=Protein+cereblon&column=ki&startPg=0&Increment=50&submit=Search

> <Ligand HET ID in PDB>
DQ4

> <PDB ID(s) for Ligand-Target Complex>
7SZB

> <PubChem CID of Ligand>
9816958

> <PubChem SID of Ligand>
459628896

> <ChEBI ID of Ligand>


> <ChEMBL ID of Ligand>


> <DrugBank ID of Ligand>


> <IUPHAR_GRAC ID of Ligand>


> <KEGG ID of Ligand>


> <ZINC ID of Ligand>


> <Number of Protein Chains in Target (bigger than 1 implies a multichain complex)>
1

> <BindingDB Target Chain Sequence>
MAGEGDQQDAAHNMGNHLPLLPAESEEEDEMEVEDQDSKEAKKPNIINFDTSLPTSHTYLGADMEEFHGRTLHDDDSCQVIPVLPQVMMILIPGQTLPLQLFHPQEVSMVRNLIQKDRTFAVLAYSNVQEREAQFGTTAEIYAYREEQDFGIEIVKVKAIGRQRFKVLELRTQSDGIQQAKVQILPECVLPSTMSAVQLESLNKCQIFPSKPVSREDQCSYKWWQKYQKRKFHCANLTSWPRWLYSLYDAETLMDRIKKQLREWDENLKDDSLPSNPIDFSYRVAACLPIDDVLRIQLLKIGSAIQRLRCELDIMNKCTSLCCKQCQETEITTKNEIFSLSLCGPMAAYVNPHGYVHETLTVYKACNLNLIGRPSTEHSWFPGYAWTVAQCKICASHIGWKFTATKKDMSPQKFWGLTRSALLPTIPDTEDEISPDKVILCL

> <PDB ID(s) of Target Chain>
4TZ4,5HXB,5V3O,6UML,6XK9,7LPS,7U8F,8CVP,8D7U,8D7V,8D7W,8D7X,8D7Y,8D7Z,8D80,8D81,8DEY,8OIZ,8OJH,8U15,8U16,8U17

> <UniProt (SwissProt) Recommended Name of Target Chain>
Protein cereblon

> <UniProt (SwissProt) Entry Name of Target Chain>
CRBN_HUMAN

> <UniProt (SwissProt) Primary ID of Target Chain>
Q96SW2

> <UniProt (SwissProt) Secondary ID(s) of Target Chain>
B2R6H4 C9IZA9 C9JAH6 Q6AI62 Q6NVZ0 Q9UHW4

> <UniProt (SwissProt) Alternative ID(s) of Target Chain>


> <UniProt (TrEMBL) Submitted Name of Target Chain>


> <UniProt (TrEMBL) Entry Name of Target Chain>


> <UniProt (TrEMBL) Primary ID of Target Chain>


> <UniProt (TrEMBL) Secondary ID(s) of Target Chain>


> <UniProt (TrEMBL) Alternative ID(s) of Target Chain>


$$$$

     RDKit          2D

 18 20  0  0  0  0  0  0  0  0999 V2000
   -1.2833    0.2583    0.0000 N   0  0  0  0  0  0  0  0  0  0  0  0
   -1.7833    0.9250    0.0000 C   0  0  0  0  0  0  0  0  0  0  0  0
   -0.0500   -0.4625    0.0000 C   0  0  0  0  0  0  0  0  0  0  0  0
    0.7750   -0.4667    0.0000 N   0  0  0  0  0  0  0  0  0  0  0  0
   -0.4583    0.2583    0.0000 C   0  0  0  0  0  0  0  0  0  0  0  0
   -1.7833   -0.4167    0.0000 C   0  0  0  0  0  0  0  0  0  0  0  0
   -2.5625    0.6708    0.0000 C   0  0  0  0  0  0  0  0  0  0  0  0
   -2.5625   -0.1542    0.0000 C   0  0  0  0  0  0  0  0  0  0  0  0
    1.1875    0.2458    0.0000 C   0  0  0  0  0  0  0  0  0  0  0  0
   -0.0500    0.9708    0.0000 C   0  0  0  0  0  0  0  0  0  0  0  0
   -1.5208    1.7083    0.0000 O   0  0  0  0  0  0  0  0  0  0  0  0
   -0.4625   -1.1792    0.0000 O   0  0  0  0  0  0  0  0  0  0  0  0
    2.0042    0.2458    0.0000 O   0  0  0  0  0  0  0  0  0  0  0  0
    0.7792    0.9625    0.0000 C   0  0  0  0  0  0  0  0  0  0  0  0
   -3.2833    1.0833    0.0000 C   0  0  0  0  0  0  0  0  0  0  0  0
   -3.2833   -0.5750    0.0000 C   0  0  0  0  0  0  0  0  0  0  0  0
   -3.9958    0.6625    0.0000 C   0  0  0  0  0  0  0  0  0  0  0  0
   -3.9958   -0.1542    0.0000 C   0  0  0  0  0  0  0  0  0  0  0  0
  2  1  1  0
  3  5  1  0
  4  3  1  0
  5  1  1  0
  6  1  1  0
  7  2  1  0
  8  6  1  0
  9 14  1  0
 10  5  1  0
 11  2  2  0
 12  3  2  0
 13  9  2  0
 14 10  1  0
 15  7  2  0
 16  8  2  0
 17 15  1  0
 18 16  1  0
  8  7  1  0
 18 17  2  0
  9  4  1  0
M  END
> <From>
www.bindingDB.org

> <BindingDB Reactant_set_id>
51568393

> <Ligand InChI>
InChI=1S/C13H12N2O3/c16-11-6-5-10(12(17)14-11)15-7-8-3-1-2-4-9(8)13(15)18/h1-4,10H,5-7H2,(H,14,16,17)

> <Ligand InChI Key>
WENKGSGGXGQHSH-UHFFFAOYSA-N

> <BindingDB MonomerID>
50614095

> <BindingDB Ligand Name>
CHEMBL304572

> <Target Name>
Protein cereblon

> <Target Source Organism According to Curator or DataSource>
Homo sapiens

> <Ki (nM)>


> <IC50 (nM)>
 605

> <Kd (nM)>


> <EC50 (nM)>


> <kon (M-1-s-1)>


> <koff (s-1)>


> <pH>


> <Temp C>


> <Curation/DataSource>
ChEMBL

> <Article DOI>
10.1021/acsmedchemlett.3c00371

> <BindingDB Entry DOI>
10.7270/Q28D01RH

> <PMID>
37974938

> <PubChem AID>


> <Patent Number>


> <Authors>
n/a

> <Date of publication>
11/9/2023

> <Date in BindingDB>
12/20/2024

> <Institution>
n/a

> <Link to Ligand in BindingDB>
http://www.bindingdb.org/bind/chemsearch/marvin/MolStructure.jsp?monomerid=50614095

> <Link to Ligand-Target Pair in BindingDB>
http://www.bindingdb.org/jsp/dbsearch/PrimarySearch_ki.jsp?energyterm=kJ/mole&tag=pol&polymerid=50007050&target=Protein+cereblon&column=ki&startPg=0&Increment=50&submit=Search

> <Link to Ligand-Target Pair in BindingDB>
http://www.bindingdb.org/jsp/dbsearch/PrimarySearch_ki.jsp?energyterm=kJ/mole&tag=r21&monomerid=50614095&enzyme=Protein+cereblon&column=ki&startPg=0&Increment=50&submit=Search

> <Ligand HET ID in PDB>


> <PDB ID(s) for Ligand-Target Complex>


> <PubChem CID of Ligand>
91585

> <PubChem SID of Ligand>
494503843

> <ChEBI ID of Ligand>


> <ChEMBL ID of Ligand>


> <DrugBank ID of Ligand>


> <IUPHAR_GRAC ID of Ligand>


> <KEGG ID of Ligand>


> <ZINC ID of Ligand>


> <Number of Protein Chains in Target (bigger than 1 implies a multichain complex)>
1

> <BindingDB Target Chain Sequence>
MAGEGDQQDAAHNMGNHLPLLPAESEEEDEMEVEDQDSKEAKKPNIINFDTSLPTSHTYLGADMEEFHGRTLHDDDSCQVIPVLPQVMMILIPGQTLPLQLFHPQEVSMVRNLIQKDRTFAVLAYSNVQEREAQFGTTAEIYAYREEQDFGIEIVKVKAIGRQRFKVLELRTQSDGIQQAKVQILPECVLPSTMSAVQLESLNKCQIFPSKPVSREDQCSYKWWQKYQKRKFHCANLTSWPRWLYSLYDAETLMDRIKKQLREWDENLKDDSLPSNPIDFSYRVAACLPIDDVLRIQLLKIGSAIQRLRCELDIMNKCTSLCCKQCQETEITTKNEIFSLSLCGPMAAYVNPHGYVHETLTVYKACNLNLIGRPSTEHSWFPGYAWTVAQCKICASHIGWKFTATKKDMSPQKFWGLTRSALLPTIPDTEDEISPDKVILCL

> <PDB ID(s) of Target Chain>
8TNR,8TNQ,8TNP,8D81,8D80,8D7Z,8D7Y,8D7X,8D7W,8D7V,8D7U,8CVP,9DQD,8UH6,6BOY,6BNB,6BN9,6BN8,6BN7,6XK9,6UML,5V3O,5HXB,7U8F,8OJH,8OIZ,7LPS,4TZ4,9DJX,9DJT,8U17,8U16,8U15,8TZX,8DEY,9CUO,4M91

> <UniProt (SwissProt) Recommended Name of Target Chain>
Protein cereblon

> <UniProt (SwissProt) Entry Name of Target Chain>
CRBN_HUMAN

> <UniProt (SwissProt) Primary ID of Target Chain>
Q96SW2

> <UniProt (SwissProt) Secondary ID(s) of Target Chain>
B2R6H4 C9IZA9 C9JAH6 Q6AI62 Q6NVZ0 Q9UHW4

> <UniProt (SwissProt) Alternative ID(s) of Target Chain>


> <UniProt (TrEMBL) Submitted Name of Target Chain>


> <UniProt (TrEMBL) Entry Name of Target Chain>


> <UniProt (TrEMBL) Primary ID of Target Chain>


> <UniProt (TrEMBL) Secondary ID(s) of Target Chain>


> <UniProt (TrEMBL) Alternative ID(s) of Target Chain>


$$$$

     RDKit          2D

 18 20  0  0  0  0  0  0  0  0999 V2000
   -1.2833    0.2583    0.0000 N   0  0  0  0  0  0  0  0  0  0  0  0
   -1.7833    0.9250    0.0000 C   0  0  0  0  0  0  0  0  0  0  0  0
   -0.0500   -0.4625    0.0000 C   0  0  0  0  0  0  0  0  0  0  0  0
    0.7750   -0.4667    0.0000 N   0  0  0  0  0  0  0  0  0  0  0  0
   -0.4583    0.2583    0.0000 C   0  0  0  0  0  0  0  0  0  0  0  0
   -1.7833   -0.4167    0.0000 C   0  0  0  0  0  0  0  0  0  0  0  0
   -2.5625    0.6708    0.0000 C   0  0  0  0  0  0  0  0  0  0  0  0
   -2.5625   -0.1542    0.0000 C   0  0  0  0  0  0  0  0  0  0  0  0
    1.1875    0.2458    0.0000 C   0  0  0  0  0  0  0  0  0  0  0  0
   -0.0500    0.9708    0.0000 C   0  0  0  0  0  0  0  0  0  0  0  0
   -1.5208    1.7083    0.0000 O   0  0  0  0  0  0  0  0  0  0  0  0
   -0.4625   -1.1792    0.0000 O   0  0  0  0  0  0  0  0  0  0  0  0
    2.0042    0.2458    0.0000 O   0  0  0  0  0  0  0  0  0  0  0  0
    0.7792    0.9625    0.0000 C   0  0  0  0  0  0  0  0  0  0  0  0
   -3.2833    1.0833    0.0000 C   0  0  0  0  0  0  0  0  0  0  0  0
   -3.2833   -0.5750    0.0000 C   0  0  0  0  0  0  0  0  0  0  0  0
   -3.9958    0.6625    0.0000 C   0  0  0  0  0  0  0  0  0  0  0  0
   -3.9958   -0.1542    0.0000 C   0  0  0  0  0  0  0  0  0  0  0  0
  2  1  1  0
  3  5  1  0
  4  3  1  0
  5  1  1  0
  6  1  1  0
  7  2  1  0
  8  6  1  0
  9 14  1  0
 10  5  1  0
 11  2  2  0
 12  3  2  0
 13  9  2  0
 14 10  1  0
 15  7  2  0
 16  8  2  0
 17 15  1  0
 18 16  1  0
  8  7  1  0
 18 17  2  0
  9  4  1  0
M  END
> <From>
www.bindingDB.org

> <BindingDB Reactant_set_id>
51526243

> <Ligand InChI>
InChI=1S/C13H12N2O3/c16-11-6-5-10(12(17)14-11)15-7-8-3-1-2-4-9(8)13(15)18/h1-4,10H,5-7H2,(H,14,16,17)

> <Ligand InChI Key>
WENKGSGGXGQHSH-UHFFFAOYSA-N

> <BindingDB MonomerID>
50614095

> <BindingDB Ligand Name>
CHEMBL304572

> <Target Name>
Protein cereblon

> <Target Source Organism According to Curator or DataSource>
Human

> <Ki (nM)>


> <IC50 (nM)>
 605

> <Kd (nM)>


> <EC50 (nM)>


> <kon (M-1-s-1)>


> <koff (s-1)>


> <pH>


> <Temp C>


> <Curation/DataSource>
ChEMBL

> <Article DOI>


> <BindingDB Entry DOI>
10.7270/Q2V12923

> <PMID>
36970148

> <PubChem AID>


> <Patent Number>


> <Authors>
n/a

> <Date of publication>
3/22/2023

> <Date in BindingDB>
4/22/2024

> <Institution>
n/a

> <Link to Ligand in BindingDB>
http://www.bindingdb.org/bind/chemsearch/marvin/MolStructure.jsp?monomerid=50614095

> <Link to Ligand-Target Pair in BindingDB>
http://www.bindingdb.org/jsp/dbsearch/PrimarySearch_ki.jsp?energyterm=kJ/mole&tag=pol&polymerid=50007050&target=Protein+cereblon&column=ki&startPg=0&Increment=50&submit=Search

> <Link to Ligand-Target Pair in BindingDB>
http://www.bindingdb.org/jsp/dbsearch/PrimarySearch_ki.jsp?energyterm=kJ/mole&tag=r21&monomerid=50614095&enzyme=Protein+cereblon&column=ki&startPg=0&Increment=50&submit=Search

> <Ligand HET ID in PDB>


> <PDB ID(s) for Ligand-Target Complex>


> <PubChem CID of Ligand>
91585

> <PubChem SID of Ligand>
494503843

> <ChEBI ID of Ligand>


> <ChEMBL ID of Ligand>


> <DrugBank ID of Ligand>


> <IUPHAR_GRAC ID of Ligand>


> <KEGG ID of Ligand>


> <ZINC ID of Ligand>


> <Number of Protein Chains in Target (bigger than 1 implies a multichain complex)>
1

> <BindingDB Target Chain Sequence>
MAGEGDQQDAAHNMGNHLPLLPAESEEEDEMEVEDQDSKEAKKPNIINFDTSLPTSHTYLGADMEEFHGRTLHDDDSCQVIPVLPQVMMILIPGQTLPLQLFHPQEVSMVRNLIQKDRTFAVLAYSNVQEREAQFGTTAEIYAYREEQDFGIEIVKVKAIGRQRFKVLELRTQSDGIQQAKVQILPECVLPSTMSAVQLESLNKCQIFPSKPVSREDQCSYKWWQKYQKRKFHCANLTSWPRWLYSLYDAETLMDRIKKQLREWDENLKDDSLPSNPIDFSYRVAACLPIDDVLRIQLLKIGSAIQRLRCELDIMNKCTSLCCKQCQETEITTKNEIFSLSLCGPMAAYVNPHGYVHETLTVYKACNLNLIGRPSTEHSWFPGYAWTVAQCKICASHIGWKFTATKKDMSPQKFWGLTRSALLPTIPDTEDEISPDKVILCL

> <PDB ID(s) of Target Chain>
4TZ4,5HXB,5V3O,6UML,6XK9,7LPS,7U8F,8CVP,8D7U,8D7V,8D7W,8D7X,8D7Y,8D7Z,8D80,8D81,8DEY,8OIZ,8OJH,8U15,8U16,8U17

> <UniProt (SwissProt) Recommended Name of Target Chain>
Protein cereblon

> <UniProt (SwissProt) Entry Name of Target Chain>
CRBN_HUMAN

> <UniProt (SwissProt) Primary ID of Target Chain>
Q96SW2

> <UniProt (SwissProt) Secondary ID(s) of Target Chain>
B2R6H4 C9IZA9 C9JAH6 Q6AI62 Q6NVZ0 Q9UHW4

> <UniProt (SwissProt) Alternative ID(s) of Target Chain>


> <UniProt (TrEMBL) Submitted Name of Target Chain>


> <UniProt (TrEMBL) Entry Name of Target Chain>


> <UniProt (TrEMBL) Primary ID of Target Chain>


> <UniProt (TrEMBL) Secondary ID(s) of Target Chain>


> <UniProt (TrEMBL) Alternative ID(s) of Target Chain>


$$$$
 
     RDKit          2D

 54 61  0  0  0  0  0  0  0  0999 V2000
    2.9480    3.4275    0.0000 C   0  0  0  0  0  0  0  0  0  0  0  0
    3.6666    3.0223    0.0000 C   0  0  0  0  0  0  0  0  0  0  0  0
    3.6750    2.1974    0.0000 C   0  0  0  0  0  0  0  0  0  0  0  0
    4.4622    1.9504    0.0000 C   0  0  0  0  0  0  0  0  0  0  0  0
    4.9403    2.6227    0.0000 N   0  0  0  0  0  0  0  0  0  0  0  0
    4.4486    3.2852    0.0000 C   0  0  0  0  0  0  0  0  0  0  0  0
    4.6954    4.0724    0.0000 O   0  0  0  0  0  0  0  0  0  0  0  0
    5.7652    2.6312    0.0000 C   0  0  0  0  0  0  0  0  0  0  0  0
    6.1704    3.3498    0.0000 C   0  0  0  0  0  0  0  0  0  0  0  0
    6.9953    3.3582    0.0000 C   0  0  0  0  0  0  0  0  0  0  0  0
    7.4151    2.6479    0.0000 C   0  0  0  0  0  0  0  0  0  0  0  0
    8.2400    2.6564    0.0000 O   0  0  0  0  0  0  0  0  0  0  0  0
    7.0099    1.9293    0.0000 N   0  0  0  0  0  0  0  0  0  0  0  0
    6.1849    1.9210    0.0000 C   0  0  0  0  0  0  0  0  0  0  0  0
    5.7798    1.2024    0.0000 O   0  0  0  0  0  0  0  0  0  0  0  0
    2.9648    1.7776    0.0000 C   0  0  0  0  0  0  0  0  0  0  0  0
    2.2461    2.1828    0.0000 C   0  0  0  0  0  0  0  0  0  0  0  0
    1.5359    1.7631    0.0000 C   0  0  0  0  0  0  0  0  0  0  0  0
    1.5444    0.9381    0.0000 C   0  0  0  0  0  0  0  0  0  0  0  0
    0.8342    0.5184    0.0000 C   0  0  0  0  0  0  0  0  0  0  0  0
    0.1155    0.9235    0.0000 N   0  0  0  0  0  0  0  0  0  0  0  0
   -0.5946    0.5038    0.0000 C   0  0  0  0  0  0  0  0  0  0  0  0
   -1.3132    0.9090    0.0000 C   0  0  0  0  0  0  0  0  0  0  0  0
   -2.0234    0.4892    0.0000 C   0  0  0  0  0  0  0  0  0  0  0  0
   -2.7421    0.8944    0.0000 N   0  0  0  0  0  0  0  0  0  0  0  0
   -3.4523    0.4746    0.0000 C   0  0  0  0  0  0  0  0  0  0  0  0
   -3.4438   -0.3503    0.0000 O   0  0  0  0  0  0  0  0  0  0  0  0
   -4.1708    0.8797    0.0000 C   0  0  0  0  0  0  0  0  0  0  0  0
   -4.8811    0.4600    0.0000 C   0  0  0  0  0  0  0  0  0  0  0  0
   -5.5674    0.9177    0.0000 C   0  0  0  0  0  0  0  0  0  0  0  0
   -6.3532    0.6665    0.0000 N   0  0  0  0  0  0  0  0  0  0  0  0
   -6.8350    1.3363    0.0000 C   0  0  0  0  0  0  0  0  0  0  0  0
   -6.3469    2.0014    0.0000 N   0  0  0  0  0  0  0  0  0  0  0  0
   -5.5635    1.7427    0.0000 N   0  0  0  0  0  0  0  0  0  0  0  0
   -7.6600    1.3401    0.0000 C   0  0  0  0  0  0  0  0  0  0  0  0
   -6.6468   -0.1044    0.0000 C   0  0  0  0  0  0  0  0  0  0  0  0
   -6.2270   -0.8146    0.0000 C   0  0  0  0  0  0  0  0  0  0  0  0
   -6.7727   -1.4333    0.0000 C   0  0  0  0  0  0  0  0  0  0  0  0
   -7.5298   -1.1055    0.0000 C   0  0  0  0  0  0  0  0  0  0  0  0
   -7.4520   -0.2841    0.0000 S   0  0  0  0  0  0  0  0  0  0  0  0
   -8.2400   -1.5253    0.0000 C   0  0  0  0  0  0  0  0  0  0  0  0
   -6.5930   -2.2384    0.0000 C   0  0  0  0  0  0  0  0  0  0  0  0
   -5.4100   -0.9292    0.0000 C   0  0  0  0  0  0  0  0  0  0  0  0
   -5.1588   -1.7150    0.0000 C   0  0  0  0  0  0  0  0  0  0  0  0
   -4.3526   -1.8904    0.0000 C   0  0  0  0  0  0  0  0  0  0  0  0
   -4.1015   -2.6761    0.0000 C   0  0  0  0  0  0  0  0  0  0  0  0
   -4.6564   -3.2866    0.0000 C   0  0  0  0  0  0  0  0  0  0  0  0
   -4.4052   -4.0724    0.0000 Cl  0  0  0  0  0  0  0  0  0  0  0  0
   -5.4625   -3.1111    0.0000 C   0  0  0  0  0  0  0  0  0  0  0  0
   -5.7136   -2.3255    0.0000 C   0  0  0  0  0  0  0  0  0  0  0  0
   -4.8110   -0.3619    0.0000 N   0  0  0  0  0  0  0  0  0  0  0  0
    0.1071    1.7485    0.0000 C   0  0  0  0  0  0  0  0  0  0  0  0
    0.8173    2.1682    0.0000 C   0  0  0  0  0  0  0  0  0  0  0  0
    2.2378    3.0078    0.0000 C   0  0  0  0  0  0  0  0  0  0  0  0
  2  1  2  0
  3  2  1  0
  3  4  1  0
  5  4  1  0
  2  6  1  0
  6  5  1  0
  6  7  2  0
  5  8  1  0
  9  8  1  0
 10  9  1  0
 11 10  1  0
 11 12  2  0
 13 11  1  0
 14 13  1  0
  8 14  1  0
 14 15  2  0
 16  3  2  0
 17 16  1  0
 18 17  1  0
 18 19  1  0
 20 19  1  0
 20 21  1  0
 21 22  1  0
 23 22  1  0
 24 23  1  0
 25 24  1  0
 26 25  1  0
 26 27  2  0
 26 28  1  0
 29 28  1  6
 30 29  1  0
 30 31  1  0
 31 32  1  0
 32 33  2  0
 30 34  2  0
 33 34  1  0
 32 35  1  0
 31 36  1  0
 37 36  2  0
 37 38  1  0
 38 39  2  0
 36 40  1  0
 39 40  1  0
 39 41  1  0
 38 42  1  0
 43 37  1  0
 43 44  1  0
 45 44  2  0
 46 45  1  0
 47 46  2  0
 47 48  1  0
 49 47  1  0
 50 49  2  0
 44 50  1  0
 51 43  2  0
 29 51  1  0
 52 21  1  0
 53 52  1  0
 18 53  1  0
 54 17  2  0
  1 54  1  0
M  END
> <From>
www.bindingDB.org

> <BindingDB Reactant_set_id>
51570520

> <Ligand InChI>
InChI=1S/C40H43ClN8O4S/c1-22-23(2)54-40-35(22)36(26-5-8-29(41)9-6-26)43-31(37-46-45-24(3)49(37)40)20-34(51)42-15-4-16-47-17-13-25(14-18-47)27-7-10-30-28(19-27)21-48(39(30)53)32-11-12-33(50)44-38(32)52/h5-10,19,25,31-32H,4,11-18,20-21H2,1-3H3,(H,42,51)(H,44,50,52)/t31-,32?/m0/s1

> <Ligand InChI Key>
ZCOPIRBPZIGHDU-CYZZXXEPSA-N

> <BindingDB MonomerID>
50631624

> <BindingDB Ligand Name>
CHEMBL5405846

> <Target Name>
Protein cereblon

> <Target Source Organism According to Curator or DataSource>
Homo sapiens

> <Ki (nM)>


> <IC50 (nM)>
 622

> <Kd (nM)>


> <EC50 (nM)>


> <kon (M-1-s-1)>


> <koff (s-1)>


> <pH>


> <Temp C>


> <Curation/DataSource>
ChEMBL

> <Article DOI>
10.1021/acs.jmedchem.3c01613

> <BindingDB Entry DOI>
10.7270/Q2T1583Z

> <PMID>
38096359

> <PubChem AID>


> <Patent Number>


> <Authors>
Arndt, CM; Bitai, J; Brunner, J; Opatz, T; Martinelli, P; Gollner, A; Sokol, KR; Krumb, M

> <Date of publication>
12/28/2023

> <Date in BindingDB>
12/21/2024

> <Institution>
Boehringer Ingelheim Rcv

> <Link to Ligand in BindingDB>
http://www.bindingdb.org/bind/chemsearch/marvin/MolStructure.jsp?monomerid=50631624

> <Link to Ligand-Target Pair in BindingDB>
http://www.bindingdb.org/jsp/dbsearch/PrimarySearch_ki.jsp?energyterm=kJ/mole&tag=pol&polymerid=50007050&target=Protein+cereblon&column=ki&startPg=0&Increment=50&submit=Search

> <Link to Ligand-Target Pair in BindingDB>
http://www.bindingdb.org/jsp/dbsearch/PrimarySearch_ki.jsp?energyterm=kJ/mole&tag=r21&monomerid=50631624&enzyme=Protein+cereblon&column=ki&startPg=0&Increment=50&submit=Search

> <Ligand HET ID in PDB>


> <PDB ID(s) for Ligand-Target Complex>


> <PubChem CID of Ligand>
172446978

> <PubChem SID of Ligand>
505035958

> <ChEBI ID of Ligand>


> <ChEMBL ID of Ligand>


> <DrugBank ID of Ligand>


> <IUPHAR_GRAC ID of Ligand>


> <KEGG ID of Ligand>


> <ZINC ID of Ligand>


> <Number of Protein Chains in Target (bigger than 1 implies a multichain complex)>
1

> <BindingDB Target Chain Sequence>
MAGEGDQQDAAHNMGNHLPLLPAESEEEDEMEVEDQDSKEAKKPNIINFDTSLPTSHTYLGADMEEFHGRTLHDDDSCQVIPVLPQVMMILIPGQTLPLQLFHPQEVSMVRNLIQKDRTFAVLAYSNVQEREAQFGTTAEIYAYREEQDFGIEIVKVKAIGRQRFKVLELRTQSDGIQQAKVQILPECVLPSTMSAVQLESLNKCQIFPSKPVSREDQCSYKWWQKYQKRKFHCANLTSWPRWLYSLYDAETLMDRIKKQLREWDENLKDDSLPSNPIDFSYRVAACLPIDDVLRIQLLKIGSAIQRLRCELDIMNKCTSLCCKQCQETEITTKNEIFSLSLCGPMAAYVNPHGYVHETLTVYKACNLNLIGRPSTEHSWFPGYAWTVAQCKICASHIGWKFTATKKDMSPQKFWGLTRSALLPTIPDTEDEISPDKVILCL

> <PDB ID(s) of Target Chain>
8TNR,8TNQ,8TNP,8D81,8D80,8D7Z,8D7Y,8D7X,8D7W,8D7V,8D7U,8CVP,9DQD,8UH6,6BOY,6BNB,6BN9,6BN8,6BN7,6XK9,6UML,5V3O,5HXB,7U8F,8OJH,8OIZ,7LPS,4TZ4,9DJX,9DJT,8U17,8U16,8U15,8TZX,8DEY,9CUO,4M91

> <UniProt (SwissProt) Recommended Name of Target Chain>
Protein cereblon

> <UniProt (SwissProt) Entry Name of Target Chain>
CRBN_HUMAN

> <UniProt (SwissProt) Primary ID of Target Chain>
Q96SW2

> <UniProt (SwissProt) Secondary ID(s) of Target Chain>
B2R6H4 C9IZA9 C9JAH6 Q6AI62 Q6NVZ0 Q9UHW4

> <UniProt (SwissProt) Alternative ID(s) of Target Chain>


> <UniProt (TrEMBL) Submitted Name of Target Chain>


> <UniProt (TrEMBL) Entry Name of Target Chain>


> <UniProt (TrEMBL) Primary ID of Target Chain>


> <UniProt (TrEMBL) Secondary ID(s) of Target Chain>


> <UniProt (TrEMBL) Alternative ID(s) of Target Chain>


$$$$
 
     RDKit          2D

 54 61  0  0  0  0  0  0  0  0999 V2000
   10.7339  -16.2570    0.0000 C   0  0  0  0  0  0  0  0  0  0  0  0
   11.8815  -15.0974    0.0000 C   0  0  0  0  0  0  0  0  0  0  0  0
   11.0866  -14.8905    0.0000 C   0  0  0  0  0  0  0  0  0  0  0  0
   10.5148  -15.4714    0.0000 C   0  0  0  0  0  0  0  0  0  0  0  0
   12.0960  -15.8868    0.0000 C   0  0  0  0  0  0  0  0  0  0  0  0
   11.5211  -16.4637    0.0000 C   0  0  0  0  0  0  0  0  0  0  0  0
   11.8920  -17.1889    0.0000 C   0  0  0  0  0  0  0  0  0  0  0  0
   12.6964  -17.0601    0.0000 N   0  0  0  0  0  0  0  0  0  0  0  0
   12.8223  -16.2554    0.0000 C   0  0  0  0  0  0  0  0  0  0  0  0
   13.5498  -15.8832    0.0000 O   0  0  0  0  0  0  0  0  0  0  0  0
   13.2734  -17.6350    0.0000 C   0  0  0  0  0  0  0  0  0  0  0  0
   13.0611  -18.4251    0.0000 C   0  0  0  0  0  0  0  0  0  0  0  0
   13.6361  -19.0008    0.0000 C   0  0  0  0  0  0  0  0  0  0  0  0
   14.4265  -18.7920    0.0000 C   0  0  0  0  0  0  0  0  0  0  0  0
   14.6388  -18.0018    0.0000 N   0  0  0  0  0  0  0  0  0  0  0  0
   14.0606  -17.4206    0.0000 C   0  0  0  0  0  0  0  0  0  0  0  0
   14.2716  -16.6311    0.0000 O   0  0  0  0  0  0  0  0  0  0  0  0
   15.0031  -19.3710    0.0000 O   0  0  0  0  0  0  0  0  0  0  0  0
    7.0039  -19.8437    0.0000 C   0  0  0  0  0  0  0  0  0  0  0  0
    7.2144  -20.6320    0.0000 C   0  0  0  0  0  0  0  0  0  0  0  0
    7.9980  -20.8427    0.0000 C   0  0  0  0  0  0  0  0  0  0  0  0
    8.5766  -20.2683    0.0000 C   0  0  0  0  0  0  0  0  0  0  0  0
    8.3661  -19.4800    0.0000 C   0  0  0  0  0  0  0  0  0  0  0  0
    7.5770  -19.2661    0.0000 C   0  0  0  0  0  0  0  0  0  0  0  0
    6.2158  -20.0613    0.0000 C   0  0  0  0  0  0  0  0  0  0  0  0
    7.0437  -19.0306    0.0000 N   0  0  0  0  0  0  0  0  0  0  0  0
    6.2797  -18.7409    0.0000 C   0  0  0  0  0  0  0  0  0  0  0  0
    5.7682  -19.3779    0.0000 C   0  0  0  0  0  0  0  0  0  0  0  0
    4.0226  -20.3224    0.0000 C   0  0  0  0  0  0  0  0  0  0  0  0
    4.0215  -21.1420    0.0000 C   0  0  0  0  0  0  0  0  0  0  0  0
    4.7295  -21.5509    0.0000 C   0  0  0  0  0  0  0  0  0  0  0  0
    4.7277  -19.9136    0.0000 C   0  0  0  0  0  0  0  0  0  0  0  0
    5.4364  -20.3188    0.0000 C   0  0  0  0  0  0  0  0  0  0  0  0
    5.4412  -21.1374    0.0000 C   0  0  0  0  0  0  0  0  0  0  0  0
    6.2212  -21.3859    0.0000 N   0  0  0  0  0  0  0  0  0  0  0  0
    6.6985  -20.7208    0.0000 C   0  0  0  0  0  0  0  0  0  0  0  0
    3.3135  -21.5500    0.0000 Cl  0  0  0  0  0  0  0  0  0  0  0  0
    7.4042  -21.1273    0.0000 O   0  0  0  0  0  0  0  0  0  0  0  0
    6.0650  -17.9524    0.0000 C   0  0  0  0  0  0  0  0  0  0  0  0
    6.6405  -17.3722    0.0000 N   0  0  0  0  0  0  0  0  0  0  0  0
    5.2748  -17.7441    0.0000 O   0  0  0  0  0  0  0  0  0  0  0  0
    4.9733  -19.1627    0.0000 C   0  0  0  0  0  0  0  0  0  0  0  0
    4.7646  -18.3650    0.0000 C   0  0  0  0  0  0  0  0  0  0  0  0
    3.9706  -18.1497    0.0000 C   0  0  0  0  0  0  0  0  0  0  0  0
    3.3859  -18.7308    0.0000 C   0  0  0  0  0  0  0  0  0  0  0  0
    3.6006  -19.5302    0.0000 C   0  0  0  0  0  0  0  0  0  0  0  0
    4.3943  -19.7418    0.0000 C   0  0  0  0  0  0  0  0  0  0  0  0
    4.7587  -17.5448    0.0000 F   0  0  0  0  0  0  0  0  0  0  0  0
    3.7615  -17.3597    0.0000 Cl  0  0  0  0  0  0  0  0  0  0  0  0
    7.4307  -17.5805    0.0000 C   0  0  0  0  0  0  0  0  0  0  0  0
    8.0062  -17.0003    0.0000 C   0  0  0  0  0  0  0  0  0  0  0  0
    8.7964  -17.2086    0.0000 C   0  0  0  0  0  0  0  0  0  0  0  0
    9.3719  -16.6285    0.0000 C   0  0  0  0  0  0  0  0  0  0  0  0
   10.1621  -16.8368    0.0000 C   0  0  0  0  0  0  0  0  0  0  0  0
  1  6  2  0
  5  2  2  0
  2  3  1  0
  3  4  2  0
  4  1  1  0
  5  6  1  0
  6  7  1  0
  7  8  1  0
  8  9  1  0
  9  5  1  0
  9 10  2  0
 11 12  1  0
 11 16  1  0
 12 13  1  0
 13 14  1  0
 14 15  1  0
 15 16  1  0
  8 11  1  0
 16 17  2  0
 14 18  2  0
 19 20  1  0
 19 24  1  0
 20 21  1  0
 21 22  1  0
 22 23  1  0
 23 24  1  0
 25 19  1  0
 19 26  1  0
 26 27  1  0
 27 28  1  0
 28 25  1  0
 29 30  2  0
 30 31  1  0
 31 34  2  0
 33 32  2  0
 32 29  1  0
 33 34  1  0
 34 35  1  0
 35 36  1  0
 25 36  1  1
 25 33  1  0
 30 37  1  0
 36 38  2  0
 27 39  1  6
 39 40  1  0
 39 41  2  0
 28 42  1  1
 42 43  2  0
 43 44  1  0
 44 45  2  0
 45 46  1  0
 46 47  2  0
 47 42  1  0
 43 48  1  0
 44 49  1  0
 40 50  1  0
 50 51  1  0
 51 52  1  0
 52 53  1  0
 53 54  1  0
 54  1  1  0
M  END
> <From>
www.bindingDB.org

> <BindingDB Reactant_set_id>
51235029

> <Ligand InChI>
InChI=1S/C41H42Cl2FN5O5/c42-24-14-15-28-30(21-24)46-39(54)41(28)33(26-12-8-13-29(43)34(26)44)35(48-40(41)18-4-2-5-19-40)37(52)45-20-6-1-3-9-23-10-7-11-25-27(23)22-49(38(25)53)31-16-17-32(50)47-36(31)51/h7-8,10-15,21,31,33,35,48H,1-6,9,16-20,22H2,(H,45,52)(H,46,54)(H,47,50,51)/t31?,33-,35+,41+/m0/s1

> <Ligand InChI Key>
BANRYGZZIMCKNA-OYGJEQPESA-N

> <BindingDB MonomerID>
50505628

> <BindingDB Ligand Name>
CHEMBL4449512

> <Target Name>
Protein cereblon

> <Target Source Organism According to Curator or DataSource>
Human

> <Ki (nM)>


> <IC50 (nM)>
 623

> <Kd (nM)>


> <EC50 (nM)>


> <kon (M-1-s-1)>


> <koff (s-1)>


> <pH>


> <Temp C>


> <Curation/DataSource>
ChEMBL

> <Article DOI>
10.1021/acs.jmedchem.9b00846

> <BindingDB Entry DOI>
10.7270/Q20C5026

> <PMID>
31560543

> <PubChem AID>


> <Patent Number>


> <Authors>
Yang, J; Li, Y; Aguilar, A; Liu, Z; Yang, CY; Wang, S

> <Date of publication>
11/14/2019

> <Date in BindingDB>
2/18/2021

> <Institution>
TBA

> <Link to Ligand in BindingDB>
http://www.bindingdb.org/bind/chemsearch/marvin/MolStructure.jsp?monomerid=50505628

> <Link to Ligand-Target Pair in BindingDB>
http://www.bindingdb.org/jsp/dbsearch/PrimarySearch_ki.jsp?energyterm=kJ/mole&tag=pol&polymerid=50007050&target=Protein+cereblon&column=ki&startPg=0&Increment=50&submit=Search

> <Link to Ligand-Target Pair in BindingDB>
http://www.bindingdb.org/jsp/dbsearch/PrimarySearch_ki.jsp?energyterm=kJ/mole&tag=r21&monomerid=50505628&enzyme=Protein+cereblon&column=ki&startPg=0&Increment=50&submit=Search

> <Ligand HET ID in PDB>


> <PDB ID(s) for Ligand-Target Complex>


> <PubChem CID of Ligand>
139600332

> <PubChem SID of Ligand>
440714213

> <ChEBI ID of Ligand>


> <ChEMBL ID of Ligand>


> <DrugBank ID of Ligand>


> <IUPHAR_GRAC ID of Ligand>


> <KEGG ID of Ligand>


> <ZINC ID of Ligand>


> <Number of Protein Chains in Target (bigger than 1 implies a multichain complex)>
1

> <BindingDB Target Chain Sequence>
MAGEGDQQDAAHNMGNHLPLLPAESEEEDEMEVEDQDSKEAKKPNIINFDTSLPTSHTYLGADMEEFHGRTLHDDDSCQVIPVLPQVMMILIPGQTLPLQLFHPQEVSMVRNLIQKDRTFAVLAYSNVQEREAQFGTTAEIYAYREEQDFGIEIVKVKAIGRQRFKVLELRTQSDGIQQAKVQILPECVLPSTMSAVQLESLNKCQIFPSKPVSREDQCSYKWWQKYQKRKFHCANLTSWPRWLYSLYDAETLMDRIKKQLREWDENLKDDSLPSNPIDFSYRVAACLPIDDVLRIQLLKIGSAIQRLRCELDIMNKCTSLCCKQCQETEITTKNEIFSLSLCGPMAAYVNPHGYVHETLTVYKACNLNLIGRPSTEHSWFPGYAWTVAQCKICASHIGWKFTATKKDMSPQKFWGLTRSALLPTIPDTEDEISPDKVILCL

> <PDB ID(s) of Target Chain>
4TZ4,5HXB,5V3O,6UML,6XK9,7LPS,7U8F,8CVP,8D7U,8D7V,8D7W,8D7X,8D7Y,8D7Z,8D80,8D81,8DEY,8OIZ,8OJH

> <UniProt (SwissProt) Recommended Name of Target Chain>
Protein cereblon

> <UniProt (SwissProt) Entry Name of Target Chain>
CRBN_HUMAN

> <UniProt (SwissProt) Primary ID of Target Chain>
Q96SW2

> <UniProt (SwissProt) Secondary ID(s) of Target Chain>
B2R6H4 C9IZA9 C9JAH6 Q6AI62 Q6NVZ0 Q9UHW4

> <UniProt (SwissProt) Alternative ID(s) of Target Chain>


> <UniProt (TrEMBL) Submitted Name of Target Chain>


> <UniProt (TrEMBL) Entry Name of Target Chain>


> <UniProt (TrEMBL) Primary ID of Target Chain>


> <UniProt (TrEMBL) Secondary ID(s) of Target Chain>


> <UniProt (TrEMBL) Alternative ID(s) of Target Chain>


$$$$
00229001.cdx
  Mrv0541 01232223072D          

 20 22  0  0  0  0            999 V2000
   -0.3008   -0.1105    0.0000 N   0  0  0  0  0  0  0  0  0  0  0  0
    0.5242   -0.1105    0.0000 C   0  0  0  0  0  0  0  0  0  0  0  0
    0.9367   -0.8250    0.0000 C   0  0  0  0  0  0  0  0  0  0  0  0
    1.7617   -0.8250    0.0000 N   0  0  0  0  0  0  0  0  0  0  0  0
    2.1742   -0.1105    0.0000 C   0  0  0  0  0  0  0  0  0  0  0  0
    1.7617    0.6039    0.0000 C   0  0  0  0  0  0  0  0  0  0  0  0
    0.9367    0.6039    0.0000 C   0  0  0  0  0  0  0  0  0  0  0  0
    2.9992   -0.1105    0.0000 O   0  0  0  0  0  0  0  0  0  0  0  0
    0.5242   -1.5395    0.0000 O   0  0  0  0  0  0  0  0  0  0  0  0
   -0.7857    0.5569    0.0000 C   0  0  0  0  0  0  0  0  0  0  0  0
   -1.5703    0.3020    0.0000 C   0  0  0  0  0  0  0  0  0  0  0  0
   -1.5703   -0.5230    0.0000 C   0  0  0  0  0  0  0  0  0  0  0  0
   -0.7857   -0.7780    0.0000 C   0  0  0  0  0  0  0  0  0  0  0  0
   -2.2848    0.7145    0.0000 C   0  0  0  0  0  0  0  0  0  0  0  0
   -2.9992    0.3020    0.0000 C   0  0  0  0  0  0  0  0  0  0  0  0
   -2.9992   -0.5230    0.0000 C   0  0  0  0  0  0  0  0  0  0  0  0
   -2.2848   -0.9355    0.0000 C   0  0  0  0  0  0  0  0  0  0  0  0
   -0.3732    1.2714    0.0000 O   0  0  0  0  0  0  0  0  0  0  0  0
   -0.3732   -1.4924    0.0000 O   0  0  0  0  0  0  0  0  0  0  0  0
   -2.2848    1.5395    0.0000 O   0  0  0  0  0  0  0  0  0  0  0  0
  1  2  1  0  0  0  0
  2  3  1  0  0  0  0
  3  4  1  0  0  0  0
  4  5  1  0  0  0  0
  5  6  1  0  0  0  0
  6  7  1  0  0  0  0
  7  2  1  0  0  0  0
  5  8  2  0  0  0  0
  3  9  2  0  0  0  0
  1 10  1  0  0  0  0
 10 11  1  0  0  0  0
 11 12  4  0  0  0  0
 12 13  1  0  0  0  0
 13  1  1  0  0  0  0
 11 14  4  0  0  0  0
 14 15  4  0  0  0  0
 15 16  4  0  0  0  0
 16 17  4  0  0  0  0
 17 12  4  0  0  0  0
 10 18  2  0  0  0  0
 13 19  2  0  0  0  0
 14 20  1  0  0  0  0
M  END
> <From>
www.bindingDB.org

> <BindingDB Reactant_set_id>
51526239

> <Ligand InChI>
InChI=1S/C13H10N2O5/c16-8-3-1-2-6-10(8)13(20)15(12(6)19)7-4-5-9(17)14-11(7)18/h1-3,7,16H,4-5H2,(H,14,17,18)

> <Ligand InChI Key>
XMPJICVFSDYOEG-UHFFFAOYSA-N

> <BindingDB MonomerID>
511638

> <BindingDB Ligand Name>
US11059801, Compound D-1::US11059801, Compound D-57

> <Target Name>
Protein cereblon

> <Target Source Organism According to Curator or DataSource>
Human

> <Ki (nM)>


> <IC50 (nM)>
 630

> <Kd (nM)>


> <EC50 (nM)>


> <kon (M-1-s-1)>


> <koff (s-1)>


> <pH>


> <Temp C>


> <Curation/DataSource>
ChEMBL

> <Article DOI>


> <BindingDB Entry DOI>
10.7270/Q2V12923

> <PMID>
36970148

> <PubChem AID>


> <Patent Number>


> <Authors>
Nowak, RP; Che, J; Ferrao, S; Kong, NR; Liu, H; Zerfas, BL; Jones, LH

> <Date of publication>
3/22/2023

> <Date in BindingDB>
4/22/2024

> <Institution>
Dana-Farber Cancer Institute

> <Link to Ligand in BindingDB>
http://www.bindingdb.org/bind/chemsearch/marvin/MolStructure.jsp?monomerid=511638

> <Link to Ligand-Target Pair in BindingDB>
http://www.bindingdb.org/jsp/dbsearch/PrimarySearch_ki.jsp?energyterm=kJ/mole&tag=pol&polymerid=50007050&target=Protein+cereblon&column=ki&startPg=0&Increment=50&submit=Search

> <Link to Ligand-Target Pair in BindingDB>
http://www.bindingdb.org/jsp/dbsearch/PrimarySearch_ki.jsp?energyterm=kJ/mole&tag=r21&monomerid=511638&enzyme=Protein+cereblon&column=ki&startPg=0&Increment=50&submit=Search

> <Ligand HET ID in PDB>


> <PDB ID(s) for Ligand-Target Complex>


> <PubChem CID of Ligand>
11778087

> <PubChem SID of Ligand>
459628891

> <ChEBI ID of Ligand>


> <ChEMBL ID of Ligand>


> <DrugBank ID of Ligand>


> <IUPHAR_GRAC ID of Ligand>


> <KEGG ID of Ligand>


> <ZINC ID of Ligand>


> <Number of Protein Chains in Target (bigger than 1 implies a multichain complex)>
1

> <BindingDB Target Chain Sequence>
MAGEGDQQDAAHNMGNHLPLLPAESEEEDEMEVEDQDSKEAKKPNIINFDTSLPTSHTYLGADMEEFHGRTLHDDDSCQVIPVLPQVMMILIPGQTLPLQLFHPQEVSMVRNLIQKDRTFAVLAYSNVQEREAQFGTTAEIYAYREEQDFGIEIVKVKAIGRQRFKVLELRTQSDGIQQAKVQILPECVLPSTMSAVQLESLNKCQIFPSKPVSREDQCSYKWWQKYQKRKFHCANLTSWPRWLYSLYDAETLMDRIKKQLREWDENLKDDSLPSNPIDFSYRVAACLPIDDVLRIQLLKIGSAIQRLRCELDIMNKCTSLCCKQCQETEITTKNEIFSLSLCGPMAAYVNPHGYVHETLTVYKACNLNLIGRPSTEHSWFPGYAWTVAQCKICASHIGWKFTATKKDMSPQKFWGLTRSALLPTIPDTEDEISPDKVILCL

> <PDB ID(s) of Target Chain>
4TZ4,5HXB,5V3O,6UML,6XK9,7LPS,7U8F,8CVP,8D7U,8D7V,8D7W,8D7X,8D7Y,8D7Z,8D80,8D81,8DEY,8OIZ,8OJH,8U15,8U16,8U17

> <UniProt (SwissProt) Recommended Name of Target Chain>
Protein cereblon

> <UniProt (SwissProt) Entry Name of Target Chain>
CRBN_HUMAN

> <UniProt (SwissProt) Primary ID of Target Chain>
Q96SW2

> <UniProt (SwissProt) Secondary ID(s) of Target Chain>
B2R6H4 C9IZA9 C9JAH6 Q6AI62 Q6NVZ0 Q9UHW4

> <UniProt (SwissProt) Alternative ID(s) of Target Chain>


> <UniProt (TrEMBL) Submitted Name of Target Chain>


> <UniProt (TrEMBL) Entry Name of Target Chain>


> <UniProt (TrEMBL) Primary ID of Target Chain>


> <UniProt (TrEMBL) Secondary ID(s) of Target Chain>


> <UniProt (TrEMBL) Alternative ID(s) of Target Chain>


$$$$

     RDKit          2D

 19 21  0  0  0  0  0  0  0  0999 V2000
    4.9042   -3.5667    0.0000 N   0  0  0  0  0  0  0  0  0  0  0  0
    4.4167   -2.9042    0.0000 C   0  0  0  0  0  0  0  0  0  0  0  0
    6.1375   -2.8542    0.0000 C   0  0  0  0  0  0  0  0  0  0  0  0
    6.9667   -2.8667    0.0000 N   0  0  0  0  0  0  0  0  0  0  0  0
    3.6375   -3.1542    0.0000 C   0  0  0  0  0  0  0  0  0  0  0  0
    5.7292   -3.5750    0.0000 C   0  0  0  0  0  0  0  0  0  0  0  0
    4.4167   -4.2375    0.0000 C   0  0  0  0  0  0  0  0  0  0  0  0
    3.6292   -3.9792    0.0000 C   0  0  0  0  0  0  0  0  0  0  0  0
    7.3750   -3.5792    0.0000 C   0  0  0  0  0  0  0  0  0  0  0  0
    6.1375   -4.2917    0.0000 C   0  0  0  0  0  0  0  0  0  0  0  0
    4.6750   -2.1167    0.0000 O   0  0  0  0  0  0  0  0  0  0  0  0
    2.9250   -2.7417    0.0000 C   0  0  0  0  0  0  0  0  0  0  0  0
    5.7250   -2.1417    0.0000 O   0  0  0  0  0  0  0  0  0  0  0  0
    8.2000   -3.5792    0.0000 O   0  0  0  0  0  0  0  0  0  0  0  0
    2.9167   -4.3917    0.0000 C   0  0  0  0  0  0  0  0  0  0  0  0
    6.9542   -4.2917    0.0000 C   0  0  0  0  0  0  0  0  0  0  0  0
    2.2125   -3.1542    0.0000 C   0  0  0  0  0  0  0  0  0  0  0  0
    1.4917   -2.7375    0.0000 N   0  0  0  0  0  0  0  0  0  0  0  0
    2.2042   -3.9792    0.0000 C   0  0  0  0  0  0  0  0  0  0  0  0
  2  1  1  0
  3  6  1  0
  4  3  1  0
  5  2  1  0
  6  1  1  0
  7  1  1  0
  8  7  1  0
  9 16  1  0
 10  6  1  0
 11  2  2  0
 12  5  2  0
 13  3  2  0
 14  9  2  0
 15  8  2  0
 16 10  1  0
 17 12  1  0
 18 17  1  0
 19 15  1  0
  8  5  1  0
 19 17  2  0
  9  4  1  0
M  END
> <From>
www.bindingDB.org

> <BindingDB Reactant_set_id>
51526250

> <Ligand InChI>
InChI=1S/C13H13N3O3/c14-8-2-1-7-6-16(13(19)9(7)5-8)10-3-4-11(17)15-12(10)18/h1-2,5,10H,3-4,6,14H2,(H,15,17,18)

> <Ligand InChI Key>
LAGNQECGHYBSCQ-UHFFFAOYSA-N

> <BindingDB MonomerID>
50614101

> <BindingDB Ligand Name>
CHEMBL297116

> <Target Name>
Protein cereblon

> <Target Source Organism According to Curator or DataSource>
Human

> <Ki (nM)>


> <IC50 (nM)>
 658

> <Kd (nM)>


> <EC50 (nM)>


> <kon (M-1-s-1)>


> <koff (s-1)>


> <pH>


> <Temp C>


> <Curation/DataSource>
ChEMBL

> <Article DOI>


> <BindingDB Entry DOI>
10.7270/Q2V12923

> <PMID>
36970148

> <PubChem AID>


> <Patent Number>


> <Authors>
n/a

> <Date of publication>
3/22/2023

> <Date in BindingDB>
4/22/2024

> <Institution>
n/a

> <Link to Ligand in BindingDB>
http://www.bindingdb.org/bind/chemsearch/marvin/MolStructure.jsp?monomerid=50614101

> <Link to Ligand-Target Pair in BindingDB>
http://www.bindingdb.org/jsp/dbsearch/PrimarySearch_ki.jsp?energyterm=kJ/mole&tag=pol&polymerid=50007050&target=Protein+cereblon&column=ki&startPg=0&Increment=50&submit=Search

> <Link to Ligand-Target Pair in BindingDB>
http://www.bindingdb.org/jsp/dbsearch/PrimarySearch_ki.jsp?energyterm=kJ/mole&tag=r21&monomerid=50614101&enzyme=Protein+cereblon&column=ki&startPg=0&Increment=50&submit=Search

> <Ligand HET ID in PDB>


> <PDB ID(s) for Ligand-Target Complex>


> <PubChem CID of Ligand>
10149258

> <PubChem SID of Ligand>
494503849

> <ChEBI ID of Ligand>


> <ChEMBL ID of Ligand>


> <DrugBank ID of Ligand>


> <IUPHAR_GRAC ID of Ligand>


> <KEGG ID of Ligand>


> <ZINC ID of Ligand>


> <Number of Protein Chains in Target (bigger than 1 implies a multichain complex)>
1

> <BindingDB Target Chain Sequence>
MAGEGDQQDAAHNMGNHLPLLPAESEEEDEMEVEDQDSKEAKKPNIINFDTSLPTSHTYLGADMEEFHGRTLHDDDSCQVIPVLPQVMMILIPGQTLPLQLFHPQEVSMVRNLIQKDRTFAVLAYSNVQEREAQFGTTAEIYAYREEQDFGIEIVKVKAIGRQRFKVLELRTQSDGIQQAKVQILPECVLPSTMSAVQLESLNKCQIFPSKPVSREDQCSYKWWQKYQKRKFHCANLTSWPRWLYSLYDAETLMDRIKKQLREWDENLKDDSLPSNPIDFSYRVAACLPIDDVLRIQLLKIGSAIQRLRCELDIMNKCTSLCCKQCQETEITTKNEIFSLSLCGPMAAYVNPHGYVHETLTVYKACNLNLIGRPSTEHSWFPGYAWTVAQCKICASHIGWKFTATKKDMSPQKFWGLTRSALLPTIPDTEDEISPDKVILCL

> <PDB ID(s) of Target Chain>
4TZ4,5HXB,5V3O,6UML,6XK9,7LPS,7U8F,8CVP,8D7U,8D7V,8D7W,8D7X,8D7Y,8D7Z,8D80,8D81,8DEY,8OIZ,8OJH,8U15,8U16,8U17

> <UniProt (SwissProt) Recommended Name of Target Chain>
Protein cereblon

> <UniProt (SwissProt) Entry Name of Target Chain>
CRBN_HUMAN

> <UniProt (SwissProt) Primary ID of Target Chain>
Q96SW2

> <UniProt (SwissProt) Secondary ID(s) of Target Chain>
B2R6H4 C9IZA9 C9JAH6 Q6AI62 Q6NVZ0 Q9UHW4

> <UniProt (SwissProt) Alternative ID(s) of Target Chain>


> <UniProt (TrEMBL) Submitted Name of Target Chain>


> <UniProt (TrEMBL) Entry Name of Target Chain>


> <UniProt (TrEMBL) Primary ID of Target Chain>


> <UniProt (TrEMBL) Secondary ID(s) of Target Chain>


> <UniProt (TrEMBL) Alternative ID(s) of Target Chain>


$$$$
134780
  Mrv0541 01031813182D          

 20 22  0  0  1  0            999 V2000
    5.1662   -1.6578    0.0000 O   0  0  0  0  0  0  0  0  0  0  0  0
    4.1159    1.2193    0.0000 O   0  0  0  0  0  0  0  0  0  0  0  0
    4.1159   -1.6769    0.0000 O   0  0  0  0  0  0  0  0  0  0  0  0
    7.6412   -0.2289    0.0000 O   0  0  0  0  0  0  0  0  0  0  0  0
    4.3412   -0.2289    0.0000 N   0  0  0  0  0  0  0  0  0  0  0  0
    6.4037   -0.9433    0.0000 N   0  0  0  0  0  0  0  0  0  0  0  0
    2.3645    1.4212    0.0000 N   0  0  0  0  0  0  0  0  0  0  0  0
    5.1662   -0.2289    0.0000 C   0  0  0  0  0  0  0  0  0  0  0  0
    5.5787    0.4857    0.0000 C   0  0  0  0  0  0  0  0  0  0  0  0
    6.4037    0.4857    0.0000 C   0  0  0  0  0  0  0  0  0  0  0  0
    5.5787   -0.9433    0.0000 C   0  0  0  0  0  0  0  0  0  0  0  0
    3.8597    0.4351    0.0000 C   0  0  0  0  0  0  0  0  0  0  0  0
    3.8597   -0.8928    0.0000 C   0  0  0  0  0  0  0  0  0  0  0  0
    3.0790    0.1836    0.0000 C   0  0  0  0  0  0  0  0  0  0  0  0
    3.0790   -0.6414    0.0000 C   0  0  0  0  0  0  0  0  0  0  0  0
    6.8162   -0.2289    0.0000 C   0  0  0  0  0  0  0  0  0  0  0  0
    2.3645    0.5962    0.0000 C   0  0  0  0  0  0  0  0  0  0  0  0
    2.3645   -1.0539    0.0000 C   0  0  0  0  0  0  0  0  0  0  0  0
    1.6500    0.1836    0.0000 C   0  0  0  0  0  0  0  0  0  0  0  0
    1.6500   -0.6414    0.0000 C   0  0  0  0  0  0  0  0  0  0  0  0
  1 11  2  0  0  0  0
  2 12  2  0  0  0  0
  3 13  2  0  0  0  0
  4 16  2  0  0  0  0
  5  8  1  0  0  0  0
  5 12  1  0  0  0  0
  5 13  1  0  0  0  0
  6 11  1  0  0  0  0
  6 16  1  0  0  0  0
  7 17  1  0  0  0  0
  8  9  1  0  0  0  0
  8 11  1  0  0  0  0
  9 10  1  0  0  0  0
 10 16  1  0  0  0  0
 12 14  1  0  0  0  0
 13 15  1  0  0  0  0
 14 15  4  0  0  0  0
 14 17  4  0  0  0  0
 15 18  4  0  0  0  0
 17 19  4  0  0  0  0
 18 20  4  0  0  0  0
 19 20  4  0  0  0  0
M  END
> <From>
www.bindingDB.org

> <BindingDB Reactant_set_id>
51526241

> <Ligand InChI>
InChI=1S/C13H11N3O4/c14-7-3-1-2-6-10(7)13(20)16(12(6)19)8-4-5-9(17)15-11(8)18/h1-3,8H,4-5,14H2,(H,15,17,18)

> <Ligand InChI Key>
UVSMNLNDYGZFPF-UHFFFAOYSA-N

> <BindingDB MonomerID>
65456

> <BindingDB Ligand Name>
19171-19-8::4-amino-2-(2,6-dioxopiperidin-3-yl)isoindoline-1,3-dione::Actimid::CC-4047::Pomalyst::US11059801, Compound D-4::US20230271966, Compound Pomalidomide::US9694015, 6.2::pomalidomide

> <Target Name>
Protein cereblon

> <Target Source Organism According to Curator or DataSource>
Human

> <Ki (nM)>


> <IC50 (nM)>
 739

> <Kd (nM)>


> <EC50 (nM)>


> <kon (M-1-s-1)>


> <koff (s-1)>


> <pH>


> <Temp C>


> <Curation/DataSource>
ChEMBL

> <Article DOI>


> <BindingDB Entry DOI>
10.7270/Q2V12923

> <PMID>
36970148

> <PubChem AID>


> <Patent Number>


> <Authors>
Nowak, RP; Che, J; Ferrao, S; Kong, NR; Liu, H; Zerfas, BL; Jones, LH

> <Date of publication>
3/22/2023

> <Date in BindingDB>
4/22/2024

> <Institution>
Dana-Farber Cancer Institute

> <Link to Ligand in BindingDB>
http://www.bindingdb.org/bind/chemsearch/marvin/MolStructure.jsp?monomerid=65456

> <Link to Ligand-Target Pair in BindingDB>
http://www.bindingdb.org/jsp/dbsearch/PrimarySearch_ki.jsp?energyterm=kJ/mole&tag=pol&polymerid=50007050&target=Protein+cereblon&column=ki&startPg=0&Increment=50&submit=Search

> <Link to Ligand-Target Pair in BindingDB>
http://www.bindingdb.org/jsp/dbsearch/PrimarySearch_ki.jsp?energyterm=kJ/mole&tag=r21&monomerid=65456&enzyme=Protein+cereblon&column=ki&startPg=0&Increment=50&submit=Search

> <Ligand HET ID in PDB>
Y70

> <PDB ID(s) for Ligand-Target Complex>
7SZA

> <PubChem CID of Ligand>
134780

> <PubChem SID of Ligand>
350083086

> <ChEBI ID of Ligand>


> <ChEMBL ID of Ligand>


> <DrugBank ID of Ligand>
DB08910

> <IUPHAR_GRAC ID of Ligand>


> <KEGG ID of Ligand>


> <ZINC ID of Ligand>
ZINC15953204

> <Number of Protein Chains in Target (bigger than 1 implies a multichain complex)>
1

> <BindingDB Target Chain Sequence>
MAGEGDQQDAAHNMGNHLPLLPAESEEEDEMEVEDQDSKEAKKPNIINFDTSLPTSHTYLGADMEEFHGRTLHDDDSCQVIPVLPQVMMILIPGQTLPLQLFHPQEVSMVRNLIQKDRTFAVLAYSNVQEREAQFGTTAEIYAYREEQDFGIEIVKVKAIGRQRFKVLELRTQSDGIQQAKVQILPECVLPSTMSAVQLESLNKCQIFPSKPVSREDQCSYKWWQKYQKRKFHCANLTSWPRWLYSLYDAETLMDRIKKQLREWDENLKDDSLPSNPIDFSYRVAACLPIDDVLRIQLLKIGSAIQRLRCELDIMNKCTSLCCKQCQETEITTKNEIFSLSLCGPMAAYVNPHGYVHETLTVYKACNLNLIGRPSTEHSWFPGYAWTVAQCKICASHIGWKFTATKKDMSPQKFWGLTRSALLPTIPDTEDEISPDKVILCL

> <PDB ID(s) of Target Chain>
4TZ4,5HXB,5V3O,6UML,6XK9,7LPS,7U8F,8CVP,8D7U,8D7V,8D7W,8D7X,8D7Y,8D7Z,8D80,8D81,8DEY,8OIZ,8OJH,8U15,8U16,8U17

> <UniProt (SwissProt) Recommended Name of Target Chain>
Protein cereblon

> <UniProt (SwissProt) Entry Name of Target Chain>
CRBN_HUMAN

> <UniProt (SwissProt) Primary ID of Target Chain>
Q96SW2

> <UniProt (SwissProt) Secondary ID(s) of Target Chain>
B2R6H4 C9IZA9 C9JAH6 Q6AI62 Q6NVZ0 Q9UHW4

> <UniProt (SwissProt) Alternative ID(s) of Target Chain>


> <UniProt (TrEMBL) Submitted Name of Target Chain>


> <UniProt (TrEMBL) Entry Name of Target Chain>


> <UniProt (TrEMBL) Primary ID of Target Chain>


> <UniProt (TrEMBL) Secondary ID(s) of Target Chain>


> <UniProt (TrEMBL) Alternative ID(s) of Target Chain>


$$$$

     RDKit          2D

 61 67  0  0  0  0  0  0  0  0999 V2000
   -2.9520   -4.6564    0.0000 C   0  0  0  0  0  0  0  0  0  0  0  0
   -2.6401   -3.1891    0.0000 C   0  0  0  0  0  0  0  0  0  0  0  0
   -3.7548   -2.1855    0.0000 O   0  0  0  0  0  0  0  0  0  0  0  0
   -1.2135   -2.7256    0.0000 C   0  0  0  0  0  0  0  0  0  0  0  0
   -0.0000   -3.6073    0.0000 C   0  0  0  0  0  0  0  0  0  0  0  0
    1.2135   -2.7256    0.0000 C   0  0  0  0  0  0  0  0  0  0  0  0
    2.6401   -3.1891    0.0000 C   0  0  0  0  0  0  0  0  0  0  0  0
    3.7548   -2.1855    0.0000 O   0  0  0  0  0  0  0  0  0  0  0  0
    2.9520   -4.6564    0.0000 N   0  0  0  0  0  0  0  0  0  0  0  0
    4.3786   -5.1199    0.0000 C   0  0  0  0  0  0  0  0  0  0  0  0
    4.6904   -6.5871    0.0000 C   0  0  0  0  0  0  0  0  0  0  0  0
    6.1170   -7.0506    0.0000 C   0  0  0  0  0  0  0  0  0  0  0  0
    6.4289   -8.5179    0.0000 C   0  0  0  0  0  0  0  0  0  0  0  0
    5.3142   -9.5216    0.0000 O   0  0  0  0  0  0  0  0  0  0  0  0
    7.2317   -6.0469    0.0000 C   0  0  0  0  0  0  0  0  0  0  0  0
    6.9199   -4.5797    0.0000 C   0  0  0  0  0  0  0  0  0  0  0  0
    8.0346   -3.5760    0.0000 C   0  0  0  0  0  0  0  0  0  0  0  0
    7.8778   -2.0842    0.0000 C   0  0  0  0  0  0  0  0  0  0  0  0
    9.2481   -1.4741    0.0000 N   0  0  0  0  0  0  0  0  0  0  0  0
   10.2518   -2.5889    0.0000 N   0  0  0  0  0  0  0  0  0  0  0  0
   11.7436   -2.4321    0.0000 C   0  0  0  0  0  0  0  0  0  0  0  0
    9.5018   -3.8879    0.0000 C   0  0  0  0  0  0  0  0  0  0  0  0
    5.4933   -4.1162    0.0000 C   0  0  0  0  0  0  0  0  0  0  0  0
    5.1814   -2.6490    0.0000 F   0  0  0  0  0  0  0  0  0  0  0  0
    0.7500   -1.2990    0.0000 C   0  0  0  0  0  0  0  0  0  0  0  0
    1.5000    0.0000    0.0000 C   0  0  0  0  0  0  0  0  0  0  0  0
    0.7500    1.2990    0.0000 C   0  0  0  0  0  0  0  0  0  0  0  0
    1.5000    2.5981    0.0000 O   0  0  0  0  0  0  0  0  0  0  0  0
    3.0000    2.5981    0.0000 C   0  0  0  0  0  0  0  0  0  0  0  0
    3.7500    3.8971    0.0000 C   0  0  0  0  0  0  0  0  0  0  0  0
    5.2500    3.8971    0.0000 C   0  0  0  0  0  0  0  0  0  0  0  0
    6.0000    5.1962    0.0000 C   0  0  0  0  0  0  0  0  0  0  0  0
    7.5000    5.1962    0.0000 C   0  0  0  0  0  0  0  0  0  0  0  0
    8.2500    6.4952    0.0000 C   0  0  0  0  0  0  0  0  0  0  0  0
    7.5000    7.7942    0.0000 O   0  0  0  0  0  0  0  0  0  0  0  0
    9.7500    6.4952    0.0000 N   0  0  0  0  0  0  0  0  0  0  0  0
   10.5000    7.7942    0.0000 C   0  0  0  0  0  0  0  0  0  0  0  0
   12.0000    7.7942    0.0000 C   0  0  0  0  0  0  0  0  0  0  0  0
   12.7500    9.0933    0.0000 C   0  0  0  0  0  0  0  0  0  0  0  0
   14.2500    9.0933    0.0000 C   0  0  0  0  0  0  0  0  0  0  0  0
   15.0000    7.7942    0.0000 C   0  0  0  0  0  0  0  0  0  0  0  0
   16.5000    7.7942    0.0000 C   0  0  0  0  0  0  0  0  0  0  0  0
   17.2500    9.0933    0.0000 C   0  0  0  0  0  0  0  0  0  0  0  0
   16.5000   10.3923    0.0000 C   0  0  0  0  0  0  0  0  0  0  0  0
   15.0000   10.3923    0.0000 C   0  0  0  0  0  0  0  0  0  0  0  0
   14.5365   11.8189    0.0000 C   0  0  0  0  0  0  0  0  0  0  0  0
   13.1099   12.2824    0.0000 O   0  0  0  0  0  0  0  0  0  0  0  0
   15.7500   12.7006    0.0000 N   0  0  0  0  0  0  0  0  0  0  0  0
   15.7500   14.2006    0.0000 C   0  0  0  0  0  0  0  0  0  0  0  0
   17.0490   14.9506    0.0000 C   0  0  0  0  0  0  0  0  0  0  0  0
   17.0490   16.4506    0.0000 C   0  0  0  0  0  0  0  0  0  0  0  0
   15.7500   17.2006    0.0000 C   0  0  0  0  0  0  0  0  0  0  0  0
   15.7500   18.7006    0.0000 O   0  0  0  0  0  0  0  0  0  0  0  0
   14.4510   16.4506    0.0000 N   0  0  0  0  0  0  0  0  0  0  0  0
   14.4510   14.9506    0.0000 C   0  0  0  0  0  0  0  0  0  0  0  0
   13.1519   14.2006    0.0000 O   0  0  0  0  0  0  0  0  0  0  0  0
   16.9635   11.8189    0.0000 C   0  0  0  0  0  0  0  0  0  0  0  0
   18.3901   12.2824    0.0000 O   0  0  0  0  0  0  0  0  0  0  0  0
   -0.7500    1.2990    0.0000 C   0  0  0  0  0  0  0  0  0  0  0  0
   -1.5000    0.0000    0.0000 C   0  0  0  0  0  0  0  0  0  0  0  0
   -0.7500   -1.2990    0.0000 N   0  0  0  0  0  0  0  0  0  0  0  0
  1  2  1  0
  2  3  2  0
  2  4  1  0
  4  5  2  0
  5  6  1  0
  6  7  1  0
  7  8  2  0
  7  9  1  0
  9 10  1  0
 10 11  2  0
 11 12  1  0
 12 13  1  0
 13 14  1  0
 12 15  2  0
 15 16  1  0
 16 17  1  0
 17 18  1  0
 18 19  2  0
 19 20  1  0
 20 21  1  0
 20 22  1  0
 16 23  2  0
 23 24  1  0
  6 25  2  0
 25 26  1  0
 26 27  2  0
 27 28  1  0
 28 29  1  0
 29 30  1  0
 30 31  1  0
 31 32  1  0
 32 33  1  0
 33 34  1  0
 34 35  2  0
 34 36  1  0
 36 37  1  0
 37 38  1  0
 38 39  1  0
 39 40  1  0
 40 41  2  0
 41 42  1  0
 42 43  2  0
 43 44  1  0
 44 45  2  0
 45 46  1  0
 46 47  2  0
 46 48  1  0
 48 49  1  0
 49 50  1  0
 50 51  1  0
 51 52  1  0
 52 53  2  0
 52 54  1  0
 54 55  1  0
 55 56  2  0
 48 57  1  0
 57 58  2  0
 27 59  1  0
 59 60  2  0
 60 61  1  0
 61  4  1  0
 23 10  1  0
 61 25  1  0
 22 17  2  0
 45 40  1  0
 55 49  1  0
 57 44  1  0
M  END
> <From>
www.bindingDB.org

> <BindingDB Reactant_set_id>
51586039

> <Ligand InChI>
InChI=1S/C44H44FN7O9/c1-25(54)35-21-32(41(57)48-33-19-26(24-53)18-31(40(33)45)28-22-47-50(2)23-28)36-20-29(14-16-51(35)36)61-17-5-3-4-11-37(55)46-15-7-9-27-8-6-10-30-39(27)44(60)52(43(30)59)34-12-13-38(56)49-42(34)58/h6,8,10,14,16,18-23,34,53H,3-5,7,9,11-13,15,17,24H2,1-2H3,(H,46,55)(H,48,57)(H,49,56,58)

> <Ligand InChI Key>
VVOJECSTVKGBLZ-UHFFFAOYSA-N

> <BindingDB MonomerID>
50638387

> <BindingDB Ligand Name>
CHEMBL5565647

> <Target Name>
Protein cereblon

> <Target Source Organism According to Curator or DataSource>
Human

> <Ki (nM)>


> <IC50 (nM)>
 790

> <Kd (nM)>


> <EC50 (nM)>


> <kon (M-1-s-1)>


> <koff (s-1)>


> <pH>


> <Temp C>


> <Curation/DataSource>
ChEMBL

> <Article DOI>


> <BindingDB Entry DOI>
10.7270/Q2NV9PV1

> <PMID>
38829718

> <PubChem AID>


> <Patent Number>


> <Authors>
Wu, T; Hu, J; Zhao, X; Zhang, C; Dong, R; Hu, Q; Xu, H; Shen, H; Zhang, X; Zhang, Y; Lin, B; Wu, X; Xiang, Q; Xu, Y

> <Date of publication>
//0

> <Date in BindingDB>
10/11/2025

> <Institution>
Shenyang Pharmaceutical University

> <Link to Ligand in BindingDB>
http://www.bindingdb.org/bind/chemsearch/marvin/MolStructure.jsp?monomerid=50638387

> <Link to Ligand-Target Pair in BindingDB>
http://www.bindingdb.org/rwd/jsp/dbsearch/PrimarySearch_ki.jsp?energyterm=kJ/mole&tag=pol&polymerid=50007050&target=Protein+cereblon&column=ki&startPg=0&Increment=50&submit=Search

> <Link to Ligand-Target Pair in BindingDB>
http://www.bindingdb.org/rwd/jsp/dbsearch/PrimarySearch_ki.jsp?energyterm=kJ/mole&tag=r21&monomerid=50638387&enzyme=Protein+cereblon&column=ki&startPg=0&Increment=50&submit=Search

> <Ligand HET ID in PDB>


> <PDB ID(s) for Ligand-Target Complex>


> <PubChem CID of Ligand>
177375919

> <PubChem SID of Ligand>
519658790

> <ChEBI ID of Ligand>


> <ChEMBL ID of Ligand>


> <DrugBank ID of Ligand>


> <IUPHAR_GRAC ID of Ligand>


> <KEGG ID of Ligand>


> <ZINC ID of Ligand>


> <Number of Protein Chains in Target (bigger than 1 implies a multichain complex)>
1

> <BindingDB Target Chain Sequence>
MAGEGDQQDAAHNMGNHLPLLPAESEEEDEMEVEDQDSKEAKKPNIINFDTSLPTSHTYLGADMEEFHGRTLHDDDSCQVIPVLPQVMMILIPGQTLPLQLFHPQEVSMVRNLIQKDRTFAVLAYSNVQEREAQFGTTAEIYAYREEQDFGIEIVKVKAIGRQRFKVLELRTQSDGIQQAKVQILPECVLPSTMSAVQLESLNKCQIFPSKPVSREDQCSYKWWQKYQKRKFHCANLTSWPRWLYSLYDAETLMDRIKKQLREWDENLKDDSLPSNPIDFSYRVAACLPIDDVLRIQLLKIGSAIQRLRCELDIMNKCTSLCCKQCQETEITTKNEIFSLSLCGPMAAYVNPHGYVHETLTVYKACNLNLIGRPSTEHSWFPGYAWTVAQCKICASHIGWKFTATKKDMSPQKFWGLTRSALLPTIPDTEDEISPDKVILCL

> <PDB ID(s) of Target Chain>
9DUR,8TNR,8TNQ,8TNP,9DWW,9DWV,9NGT,9NFR,9NFQ,8D81,8D80,8D7Z,8D7Y,8D7X,8D7W,8D7V,8D7U,8CVP,9Q2D,9Q03,9DQD,8UH6,9SAI,9SAF,9H59,9E2U,6BOY,6BNB,6BN9,6BN8,6BN7,9OUL,9Y7D,6XK9,6UML,5V3O,5HXB,9HNE,9D0X,9D0W,7U8F,9FJX,8OJH,8OIZ,7LPS,9SFM,9OTY,4TZ4,9DJX,9DJT,8U17,8U16,8U15,8TZX,8DEY,9CUO,4M91

> <UniProt (SwissProt) Recommended Name of Target Chain>
Protein cereblon

> <UniProt (SwissProt) Entry Name of Target Chain>
CRBN_HUMAN

> <UniProt (SwissProt) Primary ID of Target Chain>
Q96SW2

> <UniProt (SwissProt) Secondary ID(s) of Target Chain>
B2R6H4 C9IZA9 C9JAH6 Q6AI62 Q6NVZ0 Q9UHW4

> <UniProt (SwissProt) Alternative ID(s) of Target Chain>


> <UniProt (TrEMBL) Submitted Name of Target Chain>


> <UniProt (TrEMBL) Entry Name of Target Chain>


> <UniProt (TrEMBL) Primary ID of Target Chain>


> <UniProt (TrEMBL) Secondary ID(s) of Target Chain>


> <UniProt (TrEMBL) Alternative ID(s) of Target Chain>


$$$$
00070001.cdx
  Mrv0541 12012112552D          

 21 22  0  0  0  0            999 V2000
   -3.5724   -0.2063    0.0000 C   0  0  0  0  0  0  0  0  0  0  0  0
   -3.5724   -1.0313    0.0000 C   0  0  0  0  0  0  0  0  0  0  0  0
   -2.8579   -1.4438    0.0000 N   0  0  0  0  0  0  0  0  0  0  0  0
   -2.1434   -1.0313    0.0000 C   0  0  0  0  0  0  0  0  0  0  0  0
   -2.1434   -0.2063    0.0000 C   0  0  0  0  0  0  0  0  0  0  0  0
   -2.8579    0.2062    0.0000 C   0  0  0  0  0  0  0  0  0  0  0  0
   -2.8579    1.0312    0.0000 C   0  0  0  0  0  0  0  0  0  0  0  0
   -3.5724    1.4437    0.0000 O   0  0  0  0  0  0  0  0  0  0  0  0
   -2.1434    1.4437    0.0000 O   0  0  0  0  0  0  0  0  0  0  0  0
   -1.4289    0.2062    0.0000 N   0  0  0  0  0  0  0  0  0  0  0  0
   -0.7145   -0.2063    0.0000 C   0  0  0  0  0  0  0  0  0  0  0  0
    0.0000    0.2062    0.0000 C   0  0  0  0  0  0  0  0  0  0  0  0
    0.7145   -0.2063    0.0000 C   0  0  0  0  0  0  0  0  0  0  0  0
    1.4289    0.2062    0.0000 C   0  0  0  0  0  0  0  0  0  0  0  0
    1.4289    1.0312    0.0000 C   0  0  0  0  0  0  0  0  0  0  0  0
    0.7145    1.4438    0.0000 C   0  0  0  0  0  0  0  0  0  0  0  0
    0.0000    1.0312    0.0000 C   0  0  0  0  0  0  0  0  0  0  0  0
    2.1434    1.4437    0.0000 O   0  0  0  0  0  0  0  0  0  0  0  0
    2.8579    1.0312    0.0000 C   0  0  0  0  0  0  0  0  0  0  0  0
    2.8579    0.2063    0.0000 C   0  0  0  0  0  0  0  0  0  0  0  0
    3.5724    1.4437    0.0000 C   0  0  0  0  0  0  0  0  0  0  0  0
  1  2  4  0  0  0  0
  2  3  4  0  0  0  0
  3  4  4  0  0  0  0
  4  5  4  0  0  0  0
  5  6  4  0  0  0  0
  6  1  4  0  0  0  0
  6  7  1  0  0  0  0
  7  8  1  0  0  0  0
  7  9  2  0  0  0  0
  5 10  1  0  0  0  0
 10 11  1  0  0  0  0
 11 12  1  0  0  0  0
 12 13  4  0  0  0  0
 13 14  4  0  0  0  0
 14 15  4  0  0  0  0
 15 16  4  0  0  0  0
 16 17  4  0  0  0  0
 17 12  4  0  0  0  0
 15 18  1  0  0  0  0
 18 19  1  0  0  0  0
 19 20  1  0  0  0  0
 19 21  1  0  0  0  0
M  END
> <From>
www.bindingDB.org

> <BindingDB Reactant_set_id>
648139

> <Ligand InChI>
InChI=1S/C16H18N2O3/c1-11(2)21-13-5-3-12(4-6-13)9-18-15-10-17-8-7-14(15)16(19)20/h3-8,10-11,18H,9H2,1-2H3,(H,19,20)

> <Ligand InChI Key>
SVSRSWVLYKMWNZ-UHFFFAOYSA-N

> <BindingDB MonomerID>
314107

> <BindingDB Ligand Name>
3-{[4-(propan-2-yloxy)benzyl]amino}pyridine-4-carboxylic acid::US10179769, Example 11::US10807956, Example 11::US11214542, Example 11::US11639333, Example 11::US9611221, Example 11::US9725441, Example 11::US9828343, Example 11

> <Target Name>
Lysine-specific demethylase 4C

> <Target Source Organism According to Curator or DataSource>
Human

> <Ki (nM)>


> <IC50 (nM)>
 550

> <Kd (nM)>


> <EC50 (nM)>


> <kon (M-1-s-1)>


> <koff (s-1)>


> <pH>


> <Temp C>


> <Curation/DataSource>
US Patent

> <Article DOI>


> <BindingDB Entry DOI>
10.7270/Q29Z971T

> <PMID>


> <PubChem AID>
aid1796867

> <Patent Number>
US9725441

> <Authors>
Chen, YK; Kanouni, T; Nie, Z; Stafford, JA; Veal, JM; Wallace, MB

> <Institution>
Celgene Quanticel Research Inc

> <Link to Ligand in BindingDB>
http://www.bindingdb.org/bind/chemsearch/marvin/MolStructure.jsp?monomerid=314107

> <Link to Ligand-Target Pair in BindingDB>
http://www.bindingdb.org/jsp/dbsearch/PrimarySearch_ki.jsp?energyterm=kJ/mole&tag=pol&polymerid=8238&target=Lysine-specific+demethylase+4C&column=ki&startPg=0&Increment=50&submit=Search

> <Link to Ligand-Target Pair in BindingDB>
http://www.bindingdb.org/jsp/dbsearch/PrimarySearch_ki.jsp?energyterm=kJ/mole&tag=r21&monomerid=314107&enzyme=Lysine-specific+demethylase+4C&column=ki&startPg=0&Increment=50&submit=Search

> <Ligand HET ID in PDB>


> <PDB ID(s) for Ligand-Target Complex>


> <PubChem CID of Ligand>
86728198

> <PubChem SID of Ligand>
383540984

> <ChEBI ID of Ligand>


> <ChEMBL ID of Ligand>


> <DrugBank ID of Ligand>


> <IUPHAR_GRAC ID of Ligand>


> <KEGG ID of Ligand>


> <ZINC ID of Ligand>


> <Number of Protein Chains in Target (bigger than 1 implies a multichain complex)>
1

> <BindingDB Target Chain Sequence>
MEVAEVESPLNPSCKIMTFRPSMEEFREFNKYLAYMESKGAHRAGLAKVIPPKEWKPRQCYDDIDNLLIPAPIQQMVTGQSGLFTQYNIQKKAMTVKEFRQLANSGKYCTPRYLDYEDLERKYWKNLTFVAPIYGADINGSIYDEGVDEWNIARLNTVLDVVEEECGISIEGVNTPYLYFGMWKTTFAWHTEDMDLYSINYLHFGEPKSWYAIPPEHGKRLERLAQGFFPSSSQGCDAFLRHKMTLISPSVLKKYGIPFDKITQEAGEFMITFPYGYHAGFNHGFNCAESTNFATVRWIDYGKVAKLCTCRKDMVKISMDIFVRKFQPDRYQLWKQGKDIYTIDHTKPTPASTPEVKAWLQRRRKVRKASRSFQCARSTSKRPKADEEEEVSDEVDGAEVPNPDSVTDDLKVSEKSEAAVKLRNTEASSEEESSASRMQVEQNLSDHIKLSGNSCLSTSVTEDIKTEDDKAYAYRSVPSISSEADDSIPLSSGYEKPEKSDPSELSWPKSPESCSSVAESNGVLTEGEESDVESHGNGLEPGEIPAVPSGERNSFKVPSIAEGENKTSKSWRHPLSRPPARSPMTLVKQQAPSDEELPEVLSIEEEVEETESWAKPLIHLWQTKSPNFAAEQEYNATVARMKPHCAICTLLMPYHKPDSSNEENDARWETKLDEVVTSEGKTKPLIPEMCFIYSEENIEYSPPNAFLEEDGTSLLISCAKCCVRVHASCYGIPSHEICDGWLCARCKRNAWTAECCLCNLRGGALKQTKNNKWAHVMCAVAVPEVRFTNVPERTQIDVGRIPLQRLKLKCIFCRHRVKRVSGACIQCSYGRCPASFHVTCAHAAGVLMEPDDWPYVVNITCFRHKVNPNVKSKACEKVISVGQTVITKHRNTRYYSCRVMAVTSQTFYEVMFDDGSFSRDTFPEDIVSRDCLKLGPPAEGEVVQVKWPDGKLYGAKYFGSNIAHMYQVEFEDGSQIAMKREDIYTLDEELPKRVKARFSTASDMRFEDTFYGADIIQGERKRQRVLSSRFKNEYVADPVYRTFLKSSFQKKCQKRQ

> <PDB ID(s) of Target Chain>
2XDP,2XML,4XDO,4XDP,5KR7

> <UniProt (SwissProt) Recommended Name of Target Chain>
Lysine-specific demethylase 4C

> <UniProt (SwissProt) Entry Name of Target Chain>
KDM4C_HUMAN

> <UniProt (SwissProt) Primary ID of Target Chain>
Q9H3R0

> <UniProt (SwissProt) Secondary ID(s) of Target Chain>
B4E1Y4 B7ZL46 F5H347 F5H7P0 O94877 Q2M3M0 Q5JUC9 Q5VYJ2 Q5VYJ3

> <UniProt (SwissProt) Alternative ID(s) of Target Chain>


> <UniProt (TrEMBL) Submitted Name of Target Chain>


> <UniProt (TrEMBL) Entry Name of Target Chain>


> <UniProt (TrEMBL) Primary ID of Target Chain>


> <UniProt (TrEMBL) Secondary ID(s) of Target Chain>


> <UniProt (TrEMBL) Alternative ID(s) of Target Chain>


$$$$
 
     RDKit          2D

 32 36  0  0  0  0  0  0  0  0999 V2000
   -5.5140   -0.2411    0.0000 C   0  0  0  0  0  0  0  0  0  0  0  0
   -4.8058    0.1820    0.0000 C   0  0  0  0  0  0  0  0  0  0  0  0
   -4.0853   -0.2242    0.0000 N   0  0  0  0  0  0  0  0  0  0  0  0
   -4.0853   -1.0538    0.0000 C   0  0  0  0  0  0  0  0  0  0  0  0
   -4.7890   -1.4769    0.0000 C   0  0  0  0  0  0  0  0  0  0  0  0
   -5.5140   -1.0706    0.0000 O   0  0  0  0  0  0  0  0  0  0  0  0
   -3.3939    0.2324    0.0000 C   0  0  0  0  0  0  0  0  0  0  0  0
   -2.6732   -0.1823    0.0000 C   0  0  0  0  0  0  0  0  0  0  0  0
   -2.6732   -1.0118    0.0000 C   0  0  0  0  0  0  0  0  0  0  0  0
   -1.9567   -1.4266    0.0000 C   0  0  0  0  0  0  0  0  0  0  0  0
   -1.2360   -1.0118    0.0000 C   0  0  0  0  0  0  0  0  0  0  0  0
   -1.2360   -0.1823    0.0000 C   0  0  0  0  0  0  0  0  0  0  0  0
   -1.9567    0.2324    0.0000 C   0  0  0  0  0  0  0  0  0  0  0  0
   -0.5194   -1.4266    0.0000 C   0  0  0  0  0  0  0  0  0  0  0  0
    0.2010   -1.0118    0.0000 O   0  0  0  0  0  0  0  0  0  0  0  0
    0.2010   -0.1823    0.0000 C   0  0  0  0  0  0  0  0  0  0  0  0
   -0.5194    0.2324    0.0000 C   0  0  0  0  0  0  0  0  0  0  0  0
   -0.5194    1.0619    0.0000 C   0  0  0  0  0  0  0  0  0  0  0  0
    0.2010    1.4769    0.0000 C   0  0  0  0  0  0  0  0  0  0  0  0
    0.9175    1.0619    0.0000 C   0  0  0  0  0  0  0  0  0  0  0  0
    0.9175    0.2324    0.0000 C   0  0  0  0  0  0  0  0  0  0  0  0
    1.7093   -0.0231    0.0000 C   0  0  0  0  0  0  0  0  0  0  0  0
    2.1954    0.6262    0.0000 N   0  0  0  0  0  0  0  0  0  0  0  0
    3.0251    0.6262    0.0000 C   0  0  0  0  0  0  0  0  0  0  0  0
    3.4566    1.3093    0.0000 C   0  0  0  0  0  0  0  0  0  0  0  0
    4.2862    1.3093    0.0000 C   0  0  0  0  0  0  0  0  0  0  0  0
    4.6844    0.5801    0.0000 C   0  0  0  0  0  0  0  0  0  0  0  0
    5.5140    0.5801    0.0000 O   0  0  0  0  0  0  0  0  0  0  0  0
    4.2485   -0.1027    0.0000 N   0  0  0  0  0  0  0  0  0  0  0  0
    3.4190   -0.1027    0.0000 C   0  0  0  0  0  0  0  0  0  0  0  0
    2.9874   -0.8108    0.0000 O   0  0  0  0  0  0  0  0  0  0  0  0
    1.7093    1.3176    0.0000 C   0  0  0  0  0  0  0  0  0  0  0  0
  1  2  1  0
  2  3  1  0
  4  3  1  0
  5  4  1  0
  5  6  1  0
  6  1  1  0
  3  7  1  0
  7  8  1  0
  9  8  2  0
  9 10  1  0
 10 11  2  0
 12 11  1  0
 13 12  2  0
  8 13  1  0
 11 14  1  0
 14 15  1  0
 15 16  1  0
 17 16  2  0
 17 18  1  0
 18 19  2  0
 19 20  1  0
 20 21  2  0
 16 21  1  0
 21 22  1  0
 22 23  1  0
 24 23  1  0
 25 24  1  0
 26 25  1  0
 27 26  1  0
 28 27  2  0
 27 29  1  0
 29 30  1  0
 30 24  1  0
 31 30  2  0
 32 23  1  0
 20 32  1  0
M  END
> <From>
www.bindingDB.org

> <BindingDB Reactant_set_id>
51570928

> <Ligand InChI>
InChI=1S/C25H29N3O4/c29-24-9-8-22(25(30)26-24)28-15-20-2-1-3-23(21(20)16-28)32-17-19-6-4-18(5-7-19)14-27-10-12-31-13-11-27/h1-7,22H,8-17H2,(H,26,29,30)

> <Ligand InChI Key>
QANUJVJMFPONSK-UHFFFAOYSA-N

> <BindingDB MonomerID>
50631810

> <BindingDB Ligand Name>
CHEMBL5400126

> <Target Name>
Protein cereblon

> <Target Source Organism According to Curator or DataSource>
Homo sapiens

> <Ki (nM)>


> <IC50 (nM)>
 808

> <Kd (nM)>


> <EC50 (nM)>


> <kon (M-1-s-1)>


> <koff (s-1)>


> <pH>


> <Temp C>


> <Curation/DataSource>
ChEMBL

> <Article DOI>
10.1039/d3md00652b

> <BindingDB Entry DOI>
10.7270/Q2CV4P64

> <PMID>
38389883

> <PubChem AID>


> <Patent Number>


> <Authors>
Liu, Y; Nowak, RP; Che, J; Donovan, KA; Huerta, F; Liu, H; Metivier, RJ; Fischer, ES; Jones, LH

> <Date of publication>
2/21/2024

> <Date in BindingDB>
12/21/2024

> <Institution>
Dana-Farber Cancer Institute

> <Link to Ligand in BindingDB>
http://www.bindingdb.org/bind/chemsearch/marvin/MolStructure.jsp?monomerid=50631810

> <Link to Ligand-Target Pair in BindingDB>
http://www.bindingdb.org/jsp/dbsearch/PrimarySearch_ki.jsp?energyterm=kJ/mole&tag=pol&polymerid=50007050&target=Protein+cereblon&column=ki&startPg=0&Increment=50&submit=Search

> <Link to Ligand-Target Pair in BindingDB>
http://www.bindingdb.org/jsp/dbsearch/PrimarySearch_ki.jsp?energyterm=kJ/mole&tag=r21&monomerid=50631810&enzyme=Protein+cereblon&column=ki&startPg=0&Increment=50&submit=Search

> <Ligand HET ID in PDB>


> <PDB ID(s) for Ligand-Target Complex>


> <PubChem CID of Ligand>
134240457

> <PubChem SID of Ligand>
505036144

> <ChEBI ID of Ligand>


> <ChEMBL ID of Ligand>


> <DrugBank ID of Ligand>


> <IUPHAR_GRAC ID of Ligand>


> <KEGG ID of Ligand>


> <ZINC ID of Ligand>


> <Number of Protein Chains in Target (bigger than 1 implies a multichain complex)>
1

> <BindingDB Target Chain Sequence>
MAGEGDQQDAAHNMGNHLPLLPAESEEEDEMEVEDQDSKEAKKPNIINFDTSLPTSHTYLGADMEEFHGRTLHDDDSCQVIPVLPQVMMILIPGQTLPLQLFHPQEVSMVRNLIQKDRTFAVLAYSNVQEREAQFGTTAEIYAYREEQDFGIEIVKVKAIGRQRFKVLELRTQSDGIQQAKVQILPECVLPSTMSAVQLESLNKCQIFPSKPVSREDQCSYKWWQKYQKRKFHCANLTSWPRWLYSLYDAETLMDRIKKQLREWDENLKDDSLPSNPIDFSYRVAACLPIDDVLRIQLLKIGSAIQRLRCELDIMNKCTSLCCKQCQETEITTKNEIFSLSLCGPMAAYVNPHGYVHETLTVYKACNLNLIGRPSTEHSWFPGYAWTVAQCKICASHIGWKFTATKKDMSPQKFWGLTRSALLPTIPDTEDEISPDKVILCL

> <PDB ID(s) of Target Chain>
8TNR,8TNQ,8TNP,8D81,8D80,8D7Z,8D7Y,8D7X,8D7W,8D7V,8D7U,8CVP,9DQD,8UH6,6BOY,6BNB,6BN9,6BN8,6BN7,6XK9,6UML,5V3O,5HXB,7U8F,8OJH,8OIZ,7LPS,4TZ4,9DJX,9DJT,8U17,8U16,8U15,8TZX,8DEY,9CUO,4M91

> <UniProt (SwissProt) Recommended Name of Target Chain>
Protein cereblon

> <UniProt (SwissProt) Entry Name of Target Chain>
CRBN_HUMAN

> <UniProt (SwissProt) Primary ID of Target Chain>
Q96SW2

> <UniProt (SwissProt) Secondary ID(s) of Target Chain>
B2R6H4 C9IZA9 C9JAH6 Q6AI62 Q6NVZ0 Q9UHW4

> <UniProt (SwissProt) Alternative ID(s) of Target Chain>


> <UniProt (TrEMBL) Submitted Name of Target Chain>


> <UniProt (TrEMBL) Entry Name of Target Chain>


> <UniProt (TrEMBL) Primary ID of Target Chain>


> <UniProt (TrEMBL) Secondary ID(s) of Target Chain>


> <UniProt (TrEMBL) Alternative ID(s) of Target Chain>


$$$$

     RDKit          2D

 55 60  0  0  0  0  0  0  0  0999 V2000
   -3.9535    3.1099    0.0000 C   0  0  0  0  0  0  0  0  0  0  0  0
   -2.9499    4.2246    0.0000 C   0  0  0  0  0  0  0  0  0  0  0  0
   -1.9462    5.3393    0.0000 C   0  0  0  0  0  0  0  0  0  0  0  0
   -4.0646    5.2283    0.0000 O   0  0  0  0  0  0  0  0  0  0  0  0
   -1.8351    3.2209    0.0000 C   0  0  0  0  0  0  0  0  0  0  0  0
   -2.1470    1.7537    0.0000 C   0  0  0  0  0  0  0  0  0  0  0  0
   -1.0323    0.7500    0.0000 C   0  0  0  0  0  0  0  0  0  0  0  0
    0.3943    1.2135    0.0000 C   0  0  0  0  0  0  0  0  0  0  0  0
    1.2760    0.0000    0.0000 C   0  0  0  0  0  0  0  0  0  0  0  0
    0.3943   -1.2135    0.0000 N   0  0  0  0  0  0  0  0  0  0  0  0
   -1.0323   -0.7500    0.0000 N   0  0  0  0  0  0  0  0  0  0  0  0
   -2.2458   -1.6317    0.0000 C   0  0  0  0  0  0  0  0  0  0  0  0
   -2.0890   -3.1235    0.0000 C   0  0  0  0  0  0  0  0  0  0  0  0
   -3.3025   -4.0051    0.0000 C   0  0  0  0  0  0  0  0  0  0  0  0
   -3.1458   -5.4969    0.0000 C   0  0  0  0  0  0  0  0  0  0  0  0
   -4.3593   -6.3786    0.0000 C   0  0  0  0  0  0  0  0  0  0  0  0
   -4.2025   -7.8704    0.0000 C   0  0  0  0  0  0  0  0  0  0  0  0
   -5.4160   -8.7521    0.0000 C   0  0  0  0  0  0  0  0  0  0  0  0
   -5.2592  -10.2438    0.0000 C   0  0  0  0  0  0  0  0  0  0  0  0
   -6.4727  -11.1255    0.0000 C   0  0  0  0  0  0  0  0  0  0  0  0
   -6.3160  -12.6173    0.0000 N   0  0  0  0  0  0  0  0  0  0  0  0
   -7.5295  -13.4990    0.0000 C   0  0  0  0  0  0  0  0  0  0  0  0
   -8.8998  -12.8889    0.0000 C   0  0  0  0  0  0  0  0  0  0  0  0
  -10.1133  -13.7706    0.0000 C   0  0  0  0  0  0  0  0  0  0  0  0
   -9.9565  -15.2623    0.0000 C   0  0  0  0  0  0  0  0  0  0  0  0
   -8.5862  -15.8724    0.0000 C   0  0  0  0  0  0  0  0  0  0  0  0
   -7.3727  -14.9908    0.0000 C   0  0  0  0  0  0  0  0  0  0  0  0
   -6.1592  -15.8724    0.0000 C   0  0  0  0  0  0  0  0  0  0  0  0
   -4.7326  -15.4089    0.0000 O   0  0  0  0  0  0  0  0  0  0  0  0
   -6.6227  -17.2990    0.0000 N   0  0  0  0  0  0  0  0  0  0  0  0
   -5.7410  -18.5126    0.0000 C   0  0  0  0  0  0  0  0  0  0  0  0
   -6.3511  -19.8829    0.0000 C   0  0  0  0  0  0  0  0  0  0  0  0
   -5.4694  -21.0964    0.0000 C   0  0  0  0  0  0  0  0  0  0  0  0
   -3.9776  -20.9396    0.0000 C   0  0  0  0  0  0  0  0  0  0  0  0
   -3.0960  -22.1531    0.0000 O   0  0  0  0  0  0  0  0  0  0  0  0
   -3.3675  -19.5693    0.0000 N   0  0  0  0  0  0  0  0  0  0  0  0
   -4.2492  -18.3558    0.0000 C   0  0  0  0  0  0  0  0  0  0  0  0
   -3.6391  -16.9854    0.0000 O   0  0  0  0  0  0  0  0  0  0  0  0
   -8.1227  -17.2990    0.0000 C   0  0  0  0  0  0  0  0  0  0  0  0
   -9.0044  -18.5126    0.0000 O   0  0  0  0  0  0  0  0  0  0  0  0
    0.7062    2.6807    0.0000 C   0  0  0  0  0  0  0  0  0  0  0  0
   -0.4086    3.6844    0.0000 C   0  0  0  0  0  0  0  0  0  0  0  0
   -0.0967    5.1517    0.0000 N   0  0  0  0  0  0  0  0  0  0  0  0
    1.3299    5.6152    0.0000 C   0  0  0  0  0  0  0  0  0  0  0  0
    2.4446    4.6115    0.0000 O   0  0  0  0  0  0  0  0  0  0  0  0
    1.6418    7.0824    0.0000 C   0  0  0  0  0  0  0  0  0  0  0  0
    3.0684    7.5459    0.0000 C   0  0  0  0  0  0  0  0  0  0  0  0
    3.3802    9.0132    0.0000 C   0  0  0  0  0  0  0  0  0  0  0  0
    2.2655   10.0169    0.0000 C   0  0  0  0  0  0  0  0  0  0  0  0
    0.8389    9.5533    0.0000 C   0  0  0  0  0  0  0  0  0  0  0  0
   -0.2758   10.5570    0.0000 C   0  0  0  0  0  0  0  0  0  0  0  0
   -1.3905   11.5607    0.0000 F   0  0  0  0  0  0  0  0  0  0  0  0
    0.7279   11.6717    0.0000 F   0  0  0  0  0  0  0  0  0  0  0  0
   -1.2795    9.4423    0.0000 F   0  0  0  0  0  0  0  0  0  0  0  0
    0.5271    8.0861    0.0000 N   0  0  0  0  0  0  0  0  0  0  0  0
  1  2  1  0
  2  3  1  0
  2  4  1  0
  2  5  1  0
  5  6  2  0
  6  7  1  0
  7  8  2  0
  8  9  1  0
  9 10  2  0
 10 11  1  0
 11 12  1  0
 12 13  1  0
 13 14  1  0
 14 15  1  0
 15 16  1  0
 16 17  1  0
 17 18  1  0
 18 19  1  0
 19 20  1  0
 20 21  1  0
 21 22  1  0
 22 23  2  0
 23 24  1  0
 24 25  2  0
 25 26  1  0
 26 27  2  0
 27 28  1  0
 28 29  2  0
 28 30  1  0
 30 31  1  0
 31 32  1  0
 32 33  1  0
 33 34  1  0
 34 35  2  0
 34 36  1  0
 36 37  1  0
 37 38  2  0
 30 39  1  0
 39 40  2  0
  8 41  1  0
 41 42  2  0
 42 43  1  0
 43 44  1  0
 44 45  2  0
 44 46  1  0
 46 47  2  0
 47 48  1  0
 48 49  2  0
 49 50  1  0
 50 51  1  0
 51 52  1  0
 51 53  1  0
 51 54  1  0
 50 55  2  0
 42  5  1  0
 55 46  1  0
 11  7  1  0
 27 22  1  0
 37 31  1  0
 39 26  1  0
M  END
> <From>
www.bindingDB.org

> <BindingDB Reactant_set_id>
51589150

> <Ligand InChI>
InChI=1S/C39H42F3N7O6/c1-38(2,55)25-21-30-23(20-28(25)46-34(51)27-14-11-15-31(45-27)39(40,41)42)22-44-48(30)19-9-7-5-3-4-6-8-18-43-26-13-10-12-24-33(26)37(54)49(36(24)53)29-16-17-32(50)47-35(29)52/h10-15,20-22,29,43,55H,3-9,16-19H2,1-2H3,(H,46,51)(H,47,50,52)

> <Ligand InChI Key>
AIYLTRIUQAADGD-UHFFFAOYSA-N

> <BindingDB MonomerID>
50639834

> <BindingDB Ligand Name>
CHEMBL5560766

> <Target Name>
Protein cereblon

> <Target Source Organism According to Curator or DataSource>
Human

> <Ki (nM)>


> <IC50 (nM)>
 880

> <Kd (nM)>


> <EC50 (nM)>


> <kon (M-1-s-1)>


> <koff (s-1)>


> <pH>


> <Temp C>


> <Curation/DataSource>
ChEMBL

> <Article DOI>


> <BindingDB Entry DOI>
10.7270/Q23F4V8G

> <PMID>
38920289

> <PubChem AID>


> <Patent Number>


> <Authors>
Weiss, MM; Zheng, X; Ji, N; Browne, CM; Campbell, V; Chen, D; Enerson, B; Fei, X; Huang, X; Klaus, CR; Li, H; Mayo, M; McDonald, AA; Paul, A; Rong, H; Sharma, K; Shi, Y; Slavin, A; Walther, DM; Yuan, K; Zhang, Y; Zhu, X; Kelleher, J; Walker, D; Mainolfi, N

> <Date of publication>
//0

> <Date in BindingDB>
10/11/2025

> <Institution>
Kymera Therapeutics

> <Link to Ligand in BindingDB>
http://www.bindingdb.org/bind/chemsearch/marvin/MolStructure.jsp?monomerid=50639834

> <Link to Ligand-Target Pair in BindingDB>
http://www.bindingdb.org/rwd/jsp/dbsearch/PrimarySearch_ki.jsp?energyterm=kJ/mole&tag=pol&polymerid=50007050&target=Protein+cereblon&column=ki&startPg=0&Increment=50&submit=Search

> <Link to Ligand-Target Pair in BindingDB>
http://www.bindingdb.org/rwd/jsp/dbsearch/PrimarySearch_ki.jsp?energyterm=kJ/mole&tag=r21&monomerid=50639834&enzyme=Protein+cereblon&column=ki&startPg=0&Increment=50&submit=Search

> <Ligand HET ID in PDB>


> <PDB ID(s) for Ligand-Target Complex>


> <PubChem CID of Ligand>
177376820

> <PubChem SID of Ligand>
519660237

> <ChEBI ID of Ligand>


> <ChEMBL ID of Ligand>


> <DrugBank ID of Ligand>


> <IUPHAR_GRAC ID of Ligand>


> <KEGG ID of Ligand>


> <ZINC ID of Ligand>


> <Number of Protein Chains in Target (bigger than 1 implies a multichain complex)>
1

> <BindingDB Target Chain Sequence>
MAGEGDQQDAAHNMGNHLPLLPAESEEEDEMEVEDQDSKEAKKPNIINFDTSLPTSHTYLGADMEEFHGRTLHDDDSCQVIPVLPQVMMILIPGQTLPLQLFHPQEVSMVRNLIQKDRTFAVLAYSNVQEREAQFGTTAEIYAYREEQDFGIEIVKVKAIGRQRFKVLELRTQSDGIQQAKVQILPECVLPSTMSAVQLESLNKCQIFPSKPVSREDQCSYKWWQKYQKRKFHCANLTSWPRWLYSLYDAETLMDRIKKQLREWDENLKDDSLPSNPIDFSYRVAACLPIDDVLRIQLLKIGSAIQRLRCELDIMNKCTSLCCKQCQETEITTKNEIFSLSLCGPMAAYVNPHGYVHETLTVYKACNLNLIGRPSTEHSWFPGYAWTVAQCKICASHIGWKFTATKKDMSPQKFWGLTRSALLPTIPDTEDEISPDKVILCL

> <PDB ID(s) of Target Chain>
9DUR,8TNR,8TNQ,8TNP,9DWW,9DWV,9NGT,9NFR,9NFQ,8D81,8D80,8D7Z,8D7Y,8D7X,8D7W,8D7V,8D7U,8CVP,9Q2D,9Q03,9DQD,8UH6,9SAI,9SAF,9H59,9E2U,6BOY,6BNB,6BN9,6BN8,6BN7,9OUL,9Y7D,6XK9,6UML,5V3O,5HXB,9HNE,9D0X,9D0W,7U8F,9FJX,8OJH,8OIZ,7LPS,9SFM,9OTY,4TZ4,9DJX,9DJT,8U17,8U16,8U15,8TZX,8DEY,9CUO,4M91

> <UniProt (SwissProt) Recommended Name of Target Chain>
Protein cereblon

> <UniProt (SwissProt) Entry Name of Target Chain>
CRBN_HUMAN

> <UniProt (SwissProt) Primary ID of Target Chain>
Q96SW2

> <UniProt (SwissProt) Secondary ID(s) of Target Chain>
B2R6H4 C9IZA9 C9JAH6 Q6AI62 Q6NVZ0 Q9UHW4

> <UniProt (SwissProt) Alternative ID(s) of Target Chain>


> <UniProt (TrEMBL) Submitted Name of Target Chain>


> <UniProt (TrEMBL) Entry Name of Target Chain>


> <UniProt (TrEMBL) Primary ID of Target Chain>


> <UniProt (TrEMBL) Secondary ID(s) of Target Chain>


> <UniProt (TrEMBL) Alternative ID(s) of Target Chain>


$$$$
 
     RDKit          2D

 54 61  0  0  0  0  0  0  0  0999 V2000
   10.7339  -16.2570    0.0000 C   0  0  0  0  0  0  0  0  0  0  0  0
   11.8815  -15.0974    0.0000 C   0  0  0  0  0  0  0  0  0  0  0  0
   11.0866  -14.8905    0.0000 C   0  0  0  0  0  0  0  0  0  0  0  0
   10.5148  -15.4714    0.0000 C   0  0  0  0  0  0  0  0  0  0  0  0
   12.0960  -15.8868    0.0000 C   0  0  0  0  0  0  0  0  0  0  0  0
   11.5211  -16.4637    0.0000 C   0  0  0  0  0  0  0  0  0  0  0  0
   11.8920  -17.1889    0.0000 C   0  0  0  0  0  0  0  0  0  0  0  0
   12.6964  -17.0601    0.0000 N   0  0  0  0  0  0  0  0  0  0  0  0
   12.8223  -16.2554    0.0000 C   0  0  0  0  0  0  0  0  0  0  0  0
   13.5498  -15.8832    0.0000 O   0  0  0  0  0  0  0  0  0  0  0  0
   13.2734  -17.6350    0.0000 C   0  0  0  0  0  0  0  0  0  0  0  0
   13.0611  -18.4251    0.0000 C   0  0  0  0  0  0  0  0  0  0  0  0
   13.6361  -19.0008    0.0000 C   0  0  0  0  0  0  0  0  0  0  0  0
   14.4265  -18.7920    0.0000 C   0  0  0  0  0  0  0  0  0  0  0  0
   14.6388  -18.0018    0.0000 N   0  0  0  0  0  0  0  0  0  0  0  0
   14.0606  -17.4206    0.0000 C   0  0  0  0  0  0  0  0  0  0  0  0
   14.2716  -16.6311    0.0000 O   0  0  0  0  0  0  0  0  0  0  0  0
   15.0031  -19.3710    0.0000 O   0  0  0  0  0  0  0  0  0  0  0  0
    7.0039  -19.8437    0.0000 C   0  0  0  0  0  0  0  0  0  0  0  0
    7.2144  -20.6320    0.0000 C   0  0  0  0  0  0  0  0  0  0  0  0
    7.9980  -20.8427    0.0000 C   0  0  0  0  0  0  0  0  0  0  0  0
    8.5766  -20.2683    0.0000 C   0  0  0  0  0  0  0  0  0  0  0  0
    8.3661  -19.4800    0.0000 C   0  0  0  0  0  0  0  0  0  0  0  0
    7.5770  -19.2661    0.0000 C   0  0  0  0  0  0  0  0  0  0  0  0
    6.2158  -20.0613    0.0000 C   0  0  0  0  0  0  0  0  0  0  0  0
    7.0437  -19.0306    0.0000 N   0  0  0  0  0  0  0  0  0  0  0  0
    6.2797  -18.7409    0.0000 C   0  0  0  0  0  0  0  0  0  0  0  0
    5.7682  -19.3779    0.0000 C   0  0  0  0  0  0  0  0  0  0  0  0
    4.0226  -20.3224    0.0000 C   0  0  0  0  0  0  0  0  0  0  0  0
    4.0215  -21.1420    0.0000 C   0  0  0  0  0  0  0  0  0  0  0  0
    4.7295  -21.5509    0.0000 C   0  0  0  0  0  0  0  0  0  0  0  0
    4.7277  -19.9136    0.0000 C   0  0  0  0  0  0  0  0  0  0  0  0
    5.4364  -20.3188    0.0000 C   0  0  0  0  0  0  0  0  0  0  0  0
    5.4412  -21.1374    0.0000 C   0  0  0  0  0  0  0  0  0  0  0  0
    6.2212  -21.3859    0.0000 N   0  0  0  0  0  0  0  0  0  0  0  0
    6.6985  -20.7208    0.0000 C   0  0  0  0  0  0  0  0  0  0  0  0
    3.3135  -21.5500    0.0000 Cl  0  0  0  0  0  0  0  0  0  0  0  0
    7.4042  -21.1273    0.0000 O   0  0  0  0  0  0  0  0  0  0  0  0
    6.0650  -17.9524    0.0000 C   0  0  0  0  0  0  0  0  0  0  0  0
    6.6405  -17.3722    0.0000 N   0  0  0  0  0  0  0  0  0  0  0  0
    5.2748  -17.7441    0.0000 O   0  0  0  0  0  0  0  0  0  0  0  0
    4.9733  -19.1627    0.0000 C   0  0  0  0  0  0  0  0  0  0  0  0
    4.7646  -18.3650    0.0000 C   0  0  0  0  0  0  0  0  0  0  0  0
    3.9706  -18.1497    0.0000 C   0  0  0  0  0  0  0  0  0  0  0  0
    3.3859  -18.7308    0.0000 C   0  0  0  0  0  0  0  0  0  0  0  0
    3.6006  -19.5302    0.0000 C   0  0  0  0  0  0  0  0  0  0  0  0
    4.3943  -19.7418    0.0000 C   0  0  0  0  0  0  0  0  0  0  0  0
    4.7587  -17.5448    0.0000 F   0  0  0  0  0  0  0  0  0  0  0  0
    3.7615  -17.3597    0.0000 Cl  0  0  0  0  0  0  0  0  0  0  0  0
    7.4307  -17.5805    0.0000 C   0  0  0  0  0  0  0  0  0  0  0  0
    8.0062  -17.0003    0.0000 C   0  0  0  0  0  0  0  0  0  0  0  0
    8.7964  -17.2086    0.0000 C   0  0  0  0  0  0  0  0  0  0  0  0
    9.3719  -16.6285    0.0000 C   0  0  0  0  0  0  0  0  0  0  0  0
   10.1621  -16.8368    0.0000 C   0  0  0  0  0  0  0  0  0  0  0  0
  1  6  2  0
  5  2  2  0
  2  3  1  0
  3  4  2  0
  4  1  1  0
  5  6  1  0
  6  7  1  0
  7  8  1  0
  8  9  1  0
  9  5  1  0
  9 10  2  0
 11 12  1  0
 11 16  1  0
 12 13  1  0
 13 14  1  0
 14 15  1  0
 15 16  1  0
  8 11  1  0
 16 17  2  0
 14 18  2  0
 19 20  1  0
 19 24  1  0
 20 21  1  0
 21 22  1  0
 22 23  1  0
 23 24  1  0
 25 19  1  0
 19 26  1  0
 26 27  1  0
 27 28  1  0
 28 25  1  0
 29 30  2  0
 30 31  1  0
 31 34  2  0
 33 32  2  0
 32 29  1  0
 33 34  1  0
 34 35  1  0
 35 36  1  0
 25 36  1  1
 25 33  1  0
 30 37  1  0
 36 38  2  0
 27 39  1  6
 39 40  1  0
 39 41  2  0
 28 42  1  1
 42 43  2  0
 43 44  1  0
 44 45  2  0
 45 46  1  0
 46 47  2  0
 47 42  1  0
 43 48  1  0
 44 49  1  0
 40 50  1  0
 50 51  1  0
 51 52  1  0
 52 53  1  0
 53 54  1  0
 54  1  1  0
M  END
> <From>
www.bindingDB.org

> <BindingDB Reactant_set_id>
51235030

> <Ligand InChI>
InChI=1S/C41H42Cl2FN5O5/c42-24-14-15-28-30(21-24)46-39(54)41(28)33(26-12-8-13-29(43)34(26)44)35(48-40(41)18-4-2-5-19-40)37(52)45-20-6-1-3-9-23-10-7-11-25-27(23)22-49(38(25)53)31-16-17-32(50)47-36(31)51/h7-8,10-15,21,31,33,35,48H,1-6,9,16-20,22H2,(H,45,52)(H,46,54)(H,47,50,51)/t31?,33-,35+,41+/m0/s1

> <Ligand InChI Key>
BANRYGZZIMCKNA-OYGJEQPESA-N

> <BindingDB MonomerID>
50505628

> <BindingDB Ligand Name>
CHEMBL4449512

> <Target Name>
Protein cereblon

> <Target Source Organism According to Curator or DataSource>
Human

> <Ki (nM)>


> <IC50 (nM)>
 964

> <Kd (nM)>


> <EC50 (nM)>


> <kon (M-1-s-1)>


> <koff (s-1)>


> <pH>


> <Temp C>


> <Curation/DataSource>
ChEMBL

> <Article DOI>
10.1021/acs.jmedchem.9b00846

> <BindingDB Entry DOI>
10.7270/Q20C5026

> <PMID>
31560543

> <PubChem AID>


> <Patent Number>


> <Authors>
Yang, J; Li, Y; Aguilar, A; Liu, Z; Yang, CY; Wang, S

> <Date of publication>
11/14/2019

> <Date in BindingDB>
2/18/2021

> <Institution>
TBA

> <Link to Ligand in BindingDB>
http://www.bindingdb.org/bind/chemsearch/marvin/MolStructure.jsp?monomerid=50505628

> <Link to Ligand-Target Pair in BindingDB>
http://www.bindingdb.org/jsp/dbsearch/PrimarySearch_ki.jsp?energyterm=kJ/mole&tag=pol&polymerid=50007050&target=Protein+cereblon&column=ki&startPg=0&Increment=50&submit=Search

> <Link to Ligand-Target Pair in BindingDB>
http://www.bindingdb.org/jsp/dbsearch/PrimarySearch_ki.jsp?energyterm=kJ/mole&tag=r21&monomerid=50505628&enzyme=Protein+cereblon&column=ki&startPg=0&Increment=50&submit=Search

> <Ligand HET ID in PDB>


> <PDB ID(s) for Ligand-Target Complex>


> <PubChem CID of Ligand>
139600332

> <PubChem SID of Ligand>
440714213

> <ChEBI ID of Ligand>


> <ChEMBL ID of Ligand>


> <DrugBank ID of Ligand>


> <IUPHAR_GRAC ID of Ligand>


> <KEGG ID of Ligand>


> <ZINC ID of Ligand>


> <Number of Protein Chains in Target (bigger than 1 implies a multichain complex)>
1

> <BindingDB Target Chain Sequence>
MAGEGDQQDAAHNMGNHLPLLPAESEEEDEMEVEDQDSKEAKKPNIINFDTSLPTSHTYLGADMEEFHGRTLHDDDSCQVIPVLPQVMMILIPGQTLPLQLFHPQEVSMVRNLIQKDRTFAVLAYSNVQEREAQFGTTAEIYAYREEQDFGIEIVKVKAIGRQRFKVLELRTQSDGIQQAKVQILPECVLPSTMSAVQLESLNKCQIFPSKPVSREDQCSYKWWQKYQKRKFHCANLTSWPRWLYSLYDAETLMDRIKKQLREWDENLKDDSLPSNPIDFSYRVAACLPIDDVLRIQLLKIGSAIQRLRCELDIMNKCTSLCCKQCQETEITTKNEIFSLSLCGPMAAYVNPHGYVHETLTVYKACNLNLIGRPSTEHSWFPGYAWTVAQCKICASHIGWKFTATKKDMSPQKFWGLTRSALLPTIPDTEDEISPDKVILCL

> <PDB ID(s) of Target Chain>
4TZ4,5HXB,5V3O,6UML,6XK9,7LPS,7U8F,8CVP,8D7U,8D7V,8D7W,8D7X,8D7Y,8D7Z,8D80,8D81,8DEY,8OIZ,8OJH

> <UniProt (SwissProt) Recommended Name of Target Chain>
Protein cereblon

> <UniProt (SwissProt) Entry Name of Target Chain>
CRBN_HUMAN

> <UniProt (SwissProt) Primary ID of Target Chain>
Q96SW2

> <UniProt (SwissProt) Secondary ID(s) of Target Chain>
B2R6H4 C9IZA9 C9JAH6 Q6AI62 Q6NVZ0 Q9UHW4

> <UniProt (SwissProt) Alternative ID(s) of Target Chain>


> <UniProt (TrEMBL) Submitted Name of Target Chain>


> <UniProt (TrEMBL) Entry Name of Target Chain>


> <UniProt (TrEMBL) Primary ID of Target Chain>


> <UniProt (TrEMBL) Secondary ID(s) of Target Chain>


> <UniProt (TrEMBL) Alternative ID(s) of Target Chain>


$$$$
 
     RDKit          2D

 54 61  0  0  0  0  0  0  0  0999 V2000
   10.7339  -16.2570    0.0000 C   0  0  0  0  0  0  0  0  0  0  0  0
   11.8815  -15.0974    0.0000 C   0  0  0  0  0  0  0  0  0  0  0  0
   11.0866  -14.8905    0.0000 C   0  0  0  0  0  0  0  0  0  0  0  0
   10.5148  -15.4714    0.0000 C   0  0  0  0  0  0  0  0  0  0  0  0
   12.0960  -15.8868    0.0000 C   0  0  0  0  0  0  0  0  0  0  0  0
   11.5211  -16.4637    0.0000 C   0  0  0  0  0  0  0  0  0  0  0  0
   11.8920  -17.1889    0.0000 C   0  0  0  0  0  0  0  0  0  0  0  0
   12.6964  -17.0601    0.0000 N   0  0  0  0  0  0  0  0  0  0  0  0
   12.8223  -16.2554    0.0000 C   0  0  0  0  0  0  0  0  0  0  0  0
   13.5498  -15.8832    0.0000 O   0  0  0  0  0  0  0  0  0  0  0  0
   13.2734  -17.6350    0.0000 C   0  0  0  0  0  0  0  0  0  0  0  0
   13.0611  -18.4251    0.0000 C   0  0  0  0  0  0  0  0  0  0  0  0
   13.6361  -19.0008    0.0000 C   0  0  0  0  0  0  0  0  0  0  0  0
   14.4265  -18.7920    0.0000 C   0  0  0  0  0  0  0  0  0  0  0  0
   14.6388  -18.0018    0.0000 N   0  0  0  0  0  0  0  0  0  0  0  0
   14.0606  -17.4206    0.0000 C   0  0  0  0  0  0  0  0  0  0  0  0
   14.2716  -16.6311    0.0000 O   0  0  0  0  0  0  0  0  0  0  0  0
   15.0031  -19.3710    0.0000 O   0  0  0  0  0  0  0  0  0  0  0  0
    7.0039  -19.8437    0.0000 C   0  0  0  0  0  0  0  0  0  0  0  0
    7.2144  -20.6320    0.0000 C   0  0  0  0  0  0  0  0  0  0  0  0
    7.9980  -20.8427    0.0000 C   0  0  0  0  0  0  0  0  0  0  0  0
    8.5766  -20.2683    0.0000 C   0  0  0  0  0  0  0  0  0  0  0  0
    8.3661  -19.4800    0.0000 C   0  0  0  0  0  0  0  0  0  0  0  0
    7.5770  -19.2661    0.0000 C   0  0  0  0  0  0  0  0  0  0  0  0
    6.2158  -20.0613    0.0000 C   0  0  0  0  0  0  0  0  0  0  0  0
    7.0437  -19.0306    0.0000 N   0  0  0  0  0  0  0  0  0  0  0  0
    6.2797  -18.7409    0.0000 C   0  0  0  0  0  0  0  0  0  0  0  0
    5.7682  -19.3779    0.0000 C   0  0  0  0  0  0  0  0  0  0  0  0
    4.0226  -20.3224    0.0000 C   0  0  0  0  0  0  0  0  0  0  0  0
    4.0215  -21.1420    0.0000 C   0  0  0  0  0  0  0  0  0  0  0  0
    4.7295  -21.5509    0.0000 C   0  0  0  0  0  0  0  0  0  0  0  0
    4.7277  -19.9136    0.0000 C   0  0  0  0  0  0  0  0  0  0  0  0
    5.4364  -20.3188    0.0000 C   0  0  0  0  0  0  0  0  0  0  0  0
    5.4412  -21.1374    0.0000 C   0  0  0  0  0  0  0  0  0  0  0  0
    6.2212  -21.3859    0.0000 N   0  0  0  0  0  0  0  0  0  0  0  0
    6.6985  -20.7208    0.0000 C   0  0  0  0  0  0  0  0  0  0  0  0
    3.3135  -21.5500    0.0000 Cl  0  0  0  0  0  0  0  0  0  0  0  0
    7.4042  -21.1273    0.0000 O   0  0  0  0  0  0  0  0  0  0  0  0
    6.0650  -17.9524    0.0000 C   0  0  0  0  0  0  0  0  0  0  0  0
    6.6405  -17.3722    0.0000 N   0  0  0  0  0  0  0  0  0  0  0  0
    5.2748  -17.7441    0.0000 O   0  0  0  0  0  0  0  0  0  0  0  0
    4.9733  -19.1627    0.0000 C   0  0  0  0  0  0  0  0  0  0  0  0
    4.7646  -18.3650    0.0000 C   0  0  0  0  0  0  0  0  0  0  0  0
    3.9706  -18.1497    0.0000 C   0  0  0  0  0  0  0  0  0  0  0  0
    3.3859  -18.7308    0.0000 C   0  0  0  0  0  0  0  0  0  0  0  0
    3.6006  -19.5302    0.0000 C   0  0  0  0  0  0  0  0  0  0  0  0
    4.3943  -19.7418    0.0000 C   0  0  0  0  0  0  0  0  0  0  0  0
    4.7587  -17.5448    0.0000 F   0  0  0  0  0  0  0  0  0  0  0  0
    3.7615  -17.3597    0.0000 Cl  0  0  0  0  0  0  0  0  0  0  0  0
    7.4307  -17.5805    0.0000 C   0  0  0  0  0  0  0  0  0  0  0  0
    8.0062  -17.0003    0.0000 C   0  0  0  0  0  0  0  0  0  0  0  0
    8.7964  -17.2086    0.0000 C   0  0  0  0  0  0  0  0  0  0  0  0
    9.3719  -16.6285    0.0000 C   0  0  0  0  0  0  0  0  0  0  0  0
   10.1621  -16.8368    0.0000 C   0  0  0  0  0  0  0  0  0  0  0  0
  1  6  2  0
  5  2  2  0
  2  3  1  0
  3  4  2  0
  4  1  1  0
  5  6  1  0
  6  7  1  0
  7  8  1  0
  8  9  1  0
  9  5  1  0
  9 10  2  0
 11 12  1  0
 11 16  1  0
 12 13  1  0
 13 14  1  0
 14 15  1  0
 15 16  1  0
  8 11  1  0
 16 17  2  0
 14 18  2  0
 19 20  1  0
 19 24  1  0
 20 21  1  0
 21 22  1  0
 22 23  1  0
 23 24  1  0
 25 19  1  0
 19 26  1  0
 26 27  1  0
 27 28  1  0
 28 25  1  0
 29 30  2  0
 30 31  1  0
 31 34  2  0
 33 32  2  0
 32 29  1  0
 33 34  1  0
 34 35  1  0
 35 36  1  0
 25 36  1  1
 25 33  1  0
 30 37  1  0
 36 38  2  0
 27 39  1  6
 39 40  1  0
 39 41  2  0
 28 42  1  1
 42 43  2  0
 43 44  1  0
 44 45  2  0
 45 46  1  0
 46 47  2  0
 47 42  1  0
 43 48  1  0
 44 49  1  0
 40 50  1  0
 50 51  1  0
 51 52  1  0
 52 53  1  0
 53 54  1  0
 54  1  1  0
M  END
> <From>
www.bindingDB.org

> <BindingDB Reactant_set_id>
51235028

> <Ligand InChI>
InChI=1S/C41H42Cl2FN5O5/c42-24-14-15-28-30(21-24)46-39(54)41(28)33(26-12-8-13-29(43)34(26)44)35(48-40(41)18-4-2-5-19-40)37(52)45-20-6-1-3-9-23-10-7-11-25-27(23)22-49(38(25)53)31-16-17-32(50)47-36(31)51/h7-8,10-15,21,31,33,35,48H,1-6,9,16-20,22H2,(H,45,52)(H,46,54)(H,47,50,51)/t31?,33-,35+,41+/m0/s1

> <Ligand InChI Key>
BANRYGZZIMCKNA-OYGJEQPESA-N

> <BindingDB MonomerID>
50505628

> <BindingDB Ligand Name>
CHEMBL4449512

> <Target Name>
Protein cereblon

> <Target Source Organism According to Curator or DataSource>
Human

> <Ki (nM)>


> <IC50 (nM)>
 982

> <Kd (nM)>


> <EC50 (nM)>


> <kon (M-1-s-1)>


> <koff (s-1)>


> <pH>


> <Temp C>


> <Curation/DataSource>
ChEMBL

> <Article DOI>
10.1021/acs.jmedchem.9b00846

> <BindingDB Entry DOI>
10.7270/Q20C5026

> <PMID>
31560543

> <PubChem AID>


> <Patent Number>


> <Authors>
Yang, J; Li, Y; Aguilar, A; Liu, Z; Yang, CY; Wang, S

> <Date of publication>
11/14/2019

> <Date in BindingDB>
2/18/2021

> <Institution>
TBA

> <Link to Ligand in BindingDB>
http://www.bindingdb.org/bind/chemsearch/marvin/MolStructure.jsp?monomerid=50505628

> <Link to Ligand-Target Pair in BindingDB>
http://www.bindingdb.org/jsp/dbsearch/PrimarySearch_ki.jsp?energyterm=kJ/mole&tag=pol&polymerid=50007050&target=Protein+cereblon&column=ki&startPg=0&Increment=50&submit=Search

> <Link to Ligand-Target Pair in BindingDB>
http://www.bindingdb.org/jsp/dbsearch/PrimarySearch_ki.jsp?energyterm=kJ/mole&tag=r21&monomerid=50505628&enzyme=Protein+cereblon&column=ki&startPg=0&Increment=50&submit=Search

> <Ligand HET ID in PDB>


> <PDB ID(s) for Ligand-Target Complex>


> <PubChem CID of Ligand>
139600332

> <PubChem SID of Ligand>
440714213

> <ChEBI ID of Ligand>


> <ChEMBL ID of Ligand>


> <DrugBank ID of Ligand>


> <IUPHAR_GRAC ID of Ligand>


> <KEGG ID of Ligand>


> <ZINC ID of Ligand>


> <Number of Protein Chains in Target (bigger than 1 implies a multichain complex)>
1

> <BindingDB Target Chain Sequence>
MAGEGDQQDAAHNMGNHLPLLPAESEEEDEMEVEDQDSKEAKKPNIINFDTSLPTSHTYLGADMEEFHGRTLHDDDSCQVIPVLPQVMMILIPGQTLPLQLFHPQEVSMVRNLIQKDRTFAVLAYSNVQEREAQFGTTAEIYAYREEQDFGIEIVKVKAIGRQRFKVLELRTQSDGIQQAKVQILPECVLPSTMSAVQLESLNKCQIFPSKPVSREDQCSYKWWQKYQKRKFHCANLTSWPRWLYSLYDAETLMDRIKKQLREWDENLKDDSLPSNPIDFSYRVAACLPIDDVLRIQLLKIGSAIQRLRCELDIMNKCTSLCCKQCQETEITTKNEIFSLSLCGPMAAYVNPHGYVHETLTVYKACNLNLIGRPSTEHSWFPGYAWTVAQCKICASHIGWKFTATKKDMSPQKFWGLTRSALLPTIPDTEDEISPDKVILCL

> <PDB ID(s) of Target Chain>
4TZ4,5HXB,5V3O,6UML,6XK9,7LPS,7U8F,8CVP,8D7U,8D7V,8D7W,8D7X,8D7Y,8D7Z,8D80,8D81,8DEY,8OIZ,8OJH

> <UniProt (SwissProt) Recommended Name of Target Chain>
Protein cereblon

> <UniProt (SwissProt) Entry Name of Target Chain>
CRBN_HUMAN

> <UniProt (SwissProt) Primary ID of Target Chain>
Q96SW2

> <UniProt (SwissProt) Secondary ID(s) of Target Chain>
B2R6H4 C9IZA9 C9JAH6 Q6AI62 Q6NVZ0 Q9UHW4

> <UniProt (SwissProt) Alternative ID(s) of Target Chain>


> <UniProt (TrEMBL) Submitted Name of Target Chain>


> <UniProt (TrEMBL) Entry Name of Target Chain>


> <UniProt (TrEMBL) Primary ID of Target Chain>


> <UniProt (TrEMBL) Secondary ID(s) of Target Chain>


> <UniProt (TrEMBL) Alternative ID(s) of Target Chain>


$$$$
 
     RDKit          2D

 56 63  0  0  0  0  0  0  0  0999 V2000
   41.7469   -1.4487    0.0000 O   0  0  0  0  0  0  0  0  0  0  0  0
   42.3289   -2.0306    0.0000 S   0  0  0  0  0  0  0  0  0  0  0  0
   42.5419   -1.2357    0.0000 O   0  0  0  0  0  0  0  0  0  0  0  0
   39.5911   -6.7769    0.0000 N   0  0  0  0  0  0  0  0  0  0  0  0
   39.5899   -7.5964    0.0000 C   0  0  0  0  0  0  0  0  0  0  0  0
   40.2980   -8.0054    0.0000 N   0  0  0  0  0  0  0  0  0  0  0  0
   40.2962   -6.3680    0.0000 C   0  0  0  0  0  0  0  0  0  0  0  0
   41.0048   -6.7733    0.0000 C   0  0  0  0  0  0  0  0  0  0  0  0
   41.0096   -7.5919    0.0000 C   0  0  0  0  0  0  0  0  0  0  0  0
   41.7896   -7.8403    0.0000 N   0  0  0  0  0  0  0  0  0  0  0  0
   42.2670   -7.1752    0.0000 C   0  0  0  0  0  0  0  0  0  0  0  0
   41.7819   -6.5158    0.0000 C   0  0  0  0  0  0  0  0  0  0  0  0
   40.2906   -5.5536    0.0000 C   0  0  0  0  0  0  0  0  0  0  0  0
   40.9503   -5.0713    0.0000 C   0  0  0  0  0  0  0  0  0  0  0  0
   40.6954   -4.2948    0.0000 N   0  0  0  0  0  0  0  0  0  0  0  0
   39.8782   -4.2973    0.0000 N   0  0  0  0  0  0  0  0  0  0  0  0
   39.6281   -5.0752    0.0000 C   0  0  0  0  0  0  0  0  0  0  0  0
   38.8819   -8.0044    0.0000 N   0  0  0  0  0  0  0  0  0  0  0  0
   38.1745   -7.5953    0.0000 C   0  0  0  0  0  0  0  0  0  0  0  0
   38.1797   -6.7782    0.0000 C   0  0  0  0  0  0  0  0  0  0  0  0
   37.4732   -6.3691    0.0000 C   0  0  0  0  0  0  0  0  0  0  0  0
   36.7642   -6.7772    0.0000 C   0  0  0  0  0  0  0  0  0  0  0  0
   36.7661   -7.5987    0.0000 C   0  0  0  0  0  0  0  0  0  0  0  0
   37.4733   -8.0040    0.0000 C   0  0  0  0  0  0  0  0  0  0  0  0
   36.0562   -6.3690    0.0000 C   0  0  0  0  0  0  0  0  0  0  0  0
   36.0558   -5.5518    0.0000 O   0  0  0  0  0  0  0  0  0  0  0  0
   35.3487   -6.7780    0.0000 N   0  0  0  0  0  0  0  0  0  0  0  0
   41.1738   -3.6323    0.0000 C   0  0  0  0  0  0  0  0  0  0  0  0
   41.9848   -3.5020    0.0000 C   0  0  0  0  0  0  0  0  0  0  0  0
   41.8545   -2.6952    0.0000 N   0  0  0  0  0  0  0  0  0  0  0  0
   41.0478   -2.8255    0.0000 C   0  0  0  0  0  0  0  0  0  0  0  0
   43.1458   -2.1157    0.0000 C   0  0  0  0  0  0  0  0  0  0  0  0
   43.6255   -1.4541    0.0000 C   0  0  0  0  0  0  0  0  0  0  0  0
   41.7510   -4.2098    0.0000 C   0  0  0  0  0  0  0  0  0  0  0  0
   42.5404   -3.9984    0.0000 C   0  0  0  0  0  0  0  0  0  0  0  0
   43.3289   -3.7883    0.0000 N   0  0  0  0  0  0  0  0  0  0  0  0
   34.6408   -6.3698    0.0000 C   0  0  0  0  0  0  0  0  0  0  0  0
   33.9333   -6.7788    0.0000 C   0  0  0  0  0  0  0  0  0  0  0  0
   34.6404   -5.5526    0.0000 C   0  0  0  0  0  0  0  0  0  0  0  0
   33.2254   -6.3705    0.0000 C   0  0  0  0  0  0  0  0  0  0  0  0
   33.9324   -5.1444    0.0000 C   0  0  0  0  0  0  0  0  0  0  0  0
   33.2249   -5.5533    0.0000 N   0  0  0  0  0  0  0  0  0  0  0  0
   32.5170   -5.1451    0.0000 C   0  0  0  0  0  0  0  0  0  0  0  0
   32.5179   -4.3295    0.0000 C   0  0  0  0  0  0  0  0  0  0  0  0
   31.1054   -5.1518    0.0000 C   0  0  0  0  0  0  0  0  0  0  0  0
   31.8131   -5.5562    0.0000 C   0  0  0  0  0  0  0  0  0  0  0  0
   31.1024   -4.3304    0.0000 C   0  0  0  0  0  0  0  0  0  0  0  0
   31.8084   -3.9222    0.0000 C   0  0  0  0  0  0  0  0  0  0  0  0
   30.3947   -3.9215    0.0000 C   0  0  0  0  0  0  0  0  0  0  0  0
   30.3949   -3.1033    0.0000 C   0  0  0  0  0  0  0  0  0  0  0  0
   29.6904   -2.6963    0.0000 N   0  0  0  0  0  0  0  0  0  0  0  0
   28.9811   -3.1030    0.0000 C   0  0  0  0  0  0  0  0  0  0  0  0
   28.9809   -3.9211    0.0000 C   0  0  0  0  0  0  0  0  0  0  0  0
   29.6900   -4.3326    0.0000 C   0  0  0  0  0  0  0  0  0  0  0  0
   31.1027   -2.6949    0.0000 O   0  0  0  0  0  0  0  0  0  0  0  0
   28.2741   -2.6933    0.0000 O   0  0  0  0  0  0  0  0  0  0  0  0
  2  1  2  0
  3  2  2  0
  4  5  2  0
  5  6  1  0
  6  9  2  0
  8  7  2  0
  7  4  1  0
  8  9  1  0
  9 10  1  0
 10 11  1  0
 11 12  2  0
 12  8  1  0
 13 14  2  0
 14 15  1  0
 15 16  1  0
 16 17  2  0
 17 13  1  0
  7 13  1  0
  5 18  1  0
 18 19  1  0
 19 20  2  0
 20 21  1  0
 21 22  2  0
 22 23  1  0
 23 24  2  0
 24 19  1  0
 22 25  1  0
 25 26  2  0
 25 27  1  0
 15 28  1  0
 28 29  1  0
 29 30  1  0
 30 31  1  0
 31 28  1  0
 30  2  1  0
  2 32  1  0
 32 33  1  0
 28 34  1  0
 34 35  1  0
 35 36  3  0
 27 37  1  0
 37 38  1  0
 37 39  1  0
 38 40  1  0
 39 41  1  0
 40 42  1  0
 42 41  1  0
 42 43  1  0
 43 44  2  0
 44 48  1  0
 47 45  1  0
 45 46  2  0
 46 43  1  0
 47 48  2  0
 49 50  1  0
 49 54  1  0
 50 51  1  0
 51 52  1  0
 52 53  1  0
 53 54  1  0
 47 49  1  0
 50 55  2  0
 52 56  2  0
M  END
> <From>
www.bindingDB.org

> <BindingDB Reactant_set_id>
51451988

> <Ligand InChI>


> <Ligand InChI Key>


> <BindingDB MonomerID>
50586183

> <BindingDB Ligand Name>
CHEMBL5094176

> <Target Name>
Protein cereblon

> <Target Source Organism According to Curator or DataSource>
Human

> <Ki (nM)>


> <IC50 (nM)>
 1045

> <Kd (nM)>


> <EC50 (nM)>


> <kon (M-1-s-1)>


> <koff (s-1)>


> <pH>


> <Temp C>


> <Curation/DataSource>
ChEMBL

> <Article DOI>
10.1021/acsmedchemlett.1c00650

> <BindingDB Entry DOI>
10.7270/Q2D79GBF

> <PMID>
35300081

> <PubChem AID>


> <Patent Number>


> <Authors>
Alcock, LJ; Chang, Y; Jarusiewicz, JA; Actis, M; Nithianantham, S; Mayasundari, A; Min, J; Maxwell, D; Hunt, J; Smart, B; Yang, JJ; Nishiguchi, G; Fischer, M; Mullighan, CG; Rankovic, Z

> <Date of publication>
3/10/2022

> <Date in BindingDB>
3/7/2023

> <Institution>
St. Jude Children's Research Hospital

> <Link to Ligand in BindingDB>
http://www.bindingdb.org/bind/chemsearch/marvin/MolStructure.jsp?monomerid=50586183

> <Link to Ligand-Target Pair in BindingDB>
http://www.bindingdb.org/jsp/dbsearch/PrimarySearch_ki.jsp?energyterm=kJ/mole&tag=pol&polymerid=50007050&target=Protein+cereblon&column=ki&startPg=0&Increment=50&submit=Search

> <Link to Ligand-Target Pair in BindingDB>
http://www.bindingdb.org/jsp/dbsearch/PrimarySearch_ki.jsp?energyterm=kJ/mole&tag=r21&monomerid=50586183&enzyme=Protein+cereblon&column=ki&startPg=0&Increment=50&submit=Search

> <Ligand HET ID in PDB>


> <PDB ID(s) for Ligand-Target Complex>


> <PubChem CID of Ligand>
164540926

> <PubChem SID of Ligand>
476022270

> <ChEBI ID of Ligand>


> <ChEMBL ID of Ligand>


> <DrugBank ID of Ligand>


> <IUPHAR_GRAC ID of Ligand>


> <KEGG ID of Ligand>


> <ZINC ID of Ligand>


> <Number of Protein Chains in Target (bigger than 1 implies a multichain complex)>
1

> <BindingDB Target Chain Sequence>
MAGEGDQQDAAHNMGNHLPLLPAESEEEDEMEVEDQDSKEAKKPNIINFDTSLPTSHTYLGADMEEFHGRTLHDDDSCQVIPVLPQVMMILIPGQTLPLQLFHPQEVSMVRNLIQKDRTFAVLAYSNVQEREAQFGTTAEIYAYREEQDFGIEIVKVKAIGRQRFKVLELRTQSDGIQQAKVQILPECVLPSTMSAVQLESLNKCQIFPSKPVSREDQCSYKWWQKYQKRKFHCANLTSWPRWLYSLYDAETLMDRIKKQLREWDENLKDDSLPSNPIDFSYRVAACLPIDDVLRIQLLKIGSAIQRLRCELDIMNKCTSLCCKQCQETEITTKNEIFSLSLCGPMAAYVNPHGYVHETLTVYKACNLNLIGRPSTEHSWFPGYAWTVAQCKICASHIGWKFTATKKDMSPQKFWGLTRSALLPTIPDTEDEISPDKVILCL

> <PDB ID(s) of Target Chain>
4TZ4,5HXB,5V3O,6UML,6XK9,7LPS,7U8F,8CVP,8D7U,8D7V,8D7W,8D7X,8D7Y,8D7Z,8D80,8D81,8DEY,8OIZ,8OJH

> <UniProt (SwissProt) Recommended Name of Target Chain>
Protein cereblon

> <UniProt (SwissProt) Entry Name of Target Chain>
CRBN_HUMAN

> <UniProt (SwissProt) Primary ID of Target Chain>
Q96SW2

> <UniProt (SwissProt) Secondary ID(s) of Target Chain>
B2R6H4 C9IZA9 C9JAH6 Q6AI62 Q6NVZ0 Q9UHW4

> <UniProt (SwissProt) Alternative ID(s) of Target Chain>


> <UniProt (TrEMBL) Submitted Name of Target Chain>


> <UniProt (TrEMBL) Entry Name of Target Chain>


> <UniProt (TrEMBL) Primary ID of Target Chain>


> <UniProt (TrEMBL) Secondary ID(s) of Target Chain>


> <UniProt (TrEMBL) Alternative ID(s) of Target Chain>


$$$$

     RDKit          2D

 59 65  0  0  0  0  0  0  0  0999 V2000
   -2.9520   -4.6564    0.0000 C   0  0  0  0  0  0  0  0  0  0  0  0
   -2.6401   -3.1891    0.0000 C   0  0  0  0  0  0  0  0  0  0  0  0
   -3.7548   -2.1855    0.0000 O   0  0  0  0  0  0  0  0  0  0  0  0
   -1.2135   -2.7256    0.0000 C   0  0  0  0  0  0  0  0  0  0  0  0
   -0.0000   -3.6073    0.0000 C   0  0  0  0  0  0  0  0  0  0  0  0
    1.2135   -2.7256    0.0000 C   0  0  0  0  0  0  0  0  0  0  0  0
    2.6401   -3.1891    0.0000 C   0  0  0  0  0  0  0  0  0  0  0  0
    3.7548   -2.1855    0.0000 O   0  0  0  0  0  0  0  0  0  0  0  0
    2.9520   -4.6564    0.0000 N   0  0  0  0  0  0  0  0  0  0  0  0
    4.3786   -5.1199    0.0000 C   0  0  0  0  0  0  0  0  0  0  0  0
    4.6904   -6.5871    0.0000 C   0  0  0  0  0  0  0  0  0  0  0  0
    6.1170   -7.0506    0.0000 C   0  0  0  0  0  0  0  0  0  0  0  0
    6.4289   -8.5179    0.0000 C   0  0  0  0  0  0  0  0  0  0  0  0
    5.3142   -9.5216    0.0000 O   0  0  0  0  0  0  0  0  0  0  0  0
    7.2317   -6.0469    0.0000 C   0  0  0  0  0  0  0  0  0  0  0  0
    6.9199   -4.5797    0.0000 C   0  0  0  0  0  0  0  0  0  0  0  0
    8.0346   -3.5760    0.0000 C   0  0  0  0  0  0  0  0  0  0  0  0
    7.8778   -2.0842    0.0000 C   0  0  0  0  0  0  0  0  0  0  0  0
    9.2481   -1.4741    0.0000 N   0  0  0  0  0  0  0  0  0  0  0  0
   10.2518   -2.5889    0.0000 N   0  0  0  0  0  0  0  0  0  0  0  0
   11.7436   -2.4321    0.0000 C   0  0  0  0  0  0  0  0  0  0  0  0
    9.5018   -3.8879    0.0000 C   0  0  0  0  0  0  0  0  0  0  0  0
    5.4933   -4.1162    0.0000 C   0  0  0  0  0  0  0  0  0  0  0  0
    5.1814   -2.6490    0.0000 F   0  0  0  0  0  0  0  0  0  0  0  0
    0.7500   -1.2990    0.0000 C   0  0  0  0  0  0  0  0  0  0  0  0
    1.5000    0.0000    0.0000 C   0  0  0  0  0  0  0  0  0  0  0  0
    0.7500    1.2990    0.0000 C   0  0  0  0  0  0  0  0  0  0  0  0
    1.5000    2.5981    0.0000 O   0  0  0  0  0  0  0  0  0  0  0  0
    3.0000    2.5981    0.0000 C   0  0  0  0  0  0  0  0  0  0  0  0
    3.7500    3.8971    0.0000 C   0  0  0  0  0  0  0  0  0  0  0  0
    5.2500    3.8971    0.0000 C   0  0  0  0  0  0  0  0  0  0  0  0
    6.0000    5.1962    0.0000 C   0  0  0  0  0  0  0  0  0  0  0  0
    5.2500    6.4952    0.0000 O   0  0  0  0  0  0  0  0  0  0  0  0
    7.5000    5.1962    0.0000 N   0  0  0  0  0  0  0  0  0  0  0  0
    8.2500    6.4952    0.0000 C   0  0  0  0  0  0  0  0  0  0  0  0
    9.7500    6.4952    0.0000 C   0  0  0  0  0  0  0  0  0  0  0  0
   10.5000    7.7942    0.0000 N   0  0  0  0  0  0  0  0  0  0  0  0
   12.0000    7.7942    0.0000 C   0  0  0  0  0  0  0  0  0  0  0  0
   12.7500    6.4952    0.0000 C   0  0  0  0  0  0  0  0  0  0  0  0
   14.2500    6.4952    0.0000 C   0  0  0  0  0  0  0  0  0  0  0  0
   15.0000    7.7942    0.0000 C   0  0  0  0  0  0  0  0  0  0  0  0
   14.2500    9.0933    0.0000 C   0  0  0  0  0  0  0  0  0  0  0  0
   12.7500    9.0933    0.0000 C   0  0  0  0  0  0  0  0  0  0  0  0
   12.2865   10.5199    0.0000 C   0  0  0  0  0  0  0  0  0  0  0  0
   10.8599   10.9834    0.0000 O   0  0  0  0  0  0  0  0  0  0  0  0
   13.5000   11.4015    0.0000 N   0  0  0  0  0  0  0  0  0  0  0  0
   13.5000   12.9015    0.0000 C   0  0  0  0  0  0  0  0  0  0  0  0
   14.7990   13.6515    0.0000 C   0  0  0  0  0  0  0  0  0  0  0  0
   14.7990   15.1515    0.0000 C   0  0  0  0  0  0  0  0  0  0  0  0
   13.5000   15.9015    0.0000 C   0  0  0  0  0  0  0  0  0  0  0  0
   13.5000   17.4015    0.0000 O   0  0  0  0  0  0  0  0  0  0  0  0
   12.2010   15.1515    0.0000 N   0  0  0  0  0  0  0  0  0  0  0  0
   12.2010   13.6515    0.0000 C   0  0  0  0  0  0  0  0  0  0  0  0
   10.9019   12.9015    0.0000 O   0  0  0  0  0  0  0  0  0  0  0  0
   14.7135   10.5199    0.0000 C   0  0  0  0  0  0  0  0  0  0  0  0
   16.1401   10.9834    0.0000 O   0  0  0  0  0  0  0  0  0  0  0  0
   -0.7500    1.2990    0.0000 C   0  0  0  0  0  0  0  0  0  0  0  0
   -1.5000    0.0000    0.0000 C   0  0  0  0  0  0  0  0  0  0  0  0
   -0.7500   -1.2990    0.0000 N   0  0  0  0  0  0  0  0  0  0  0  0
  1  2  1  0
  2  3  2  0
  2  4  1  0
  4  5  2  0
  5  6  1  0
  6  7  1  0
  7  8  2  0
  7  9  1  0
  9 10  1  0
 10 11  2  0
 11 12  1  0
 12 13  1  0
 13 14  1  0
 12 15  2  0
 15 16  1  0
 16 17  1  0
 17 18  1  0
 18 19  2  0
 19 20  1  0
 20 21  1  0
 20 22  1  0
 16 23  2  0
 23 24  1  0
  6 25  2  0
 25 26  1  0
 26 27  2  0
 27 28  1  0
 28 29  1  0
 29 30  1  0
 30 31  1  0
 31 32  1  0
 32 33  2  0
 32 34  1  0
 34 35  1  0
 35 36  1  0
 36 37  1  0
 37 38  1  0
 38 39  2  0
 39 40  1  0
 40 41  2  0
 41 42  1  0
 42 43  2  0
 43 44  1  0
 44 45  2  0
 44 46  1  0
 46 47  1  0
 47 48  1  0
 48 49  1  0
 49 50  1  0
 50 51  2  0
 50 52  1  0
 52 53  1  0
 53 54  2  0
 46 55  1  0
 55 56  2  0
 27 57  1  0
 57 58  2  0
 58 59  1  0
 59  4  1  0
 23 10  1  0
 59 25  1  0
 22 17  2  0
 43 38  1  0
 53 47  1  0
 55 42  1  0
M  END
> <From>
www.bindingDB.org

> <BindingDB Reactant_set_id>
51586042

> <Ligand InChI>
InChI=1S/C41H39FN8O9/c1-22(52)32-18-28(38(55)46-30-16-23(21-51)15-27(37(30)42)24-19-45-48(2)20-24)33-17-25(10-13-49(32)33)59-14-4-7-34(53)44-12-11-43-29-6-3-5-26-36(29)41(58)50(40(26)57)31-8-9-35(54)47-39(31)56/h3,5-6,10,13,15-20,31,43,51H,4,7-9,11-12,14,21H2,1-2H3,(H,44,53)(H,46,55)(H,47,54,56)

> <Ligand InChI Key>
RFOWAAZLTHLZHO-UHFFFAOYSA-N

> <BindingDB MonomerID>
50638391

> <BindingDB Ligand Name>
CHEMBL5532417

> <Target Name>
Protein cereblon

> <Target Source Organism According to Curator or DataSource>
Human

> <Ki (nM)>


> <IC50 (nM)>
 1100

> <Kd (nM)>


> <EC50 (nM)>


> <kon (M-1-s-1)>


> <koff (s-1)>


> <pH>


> <Temp C>


> <Curation/DataSource>
ChEMBL

> <Article DOI>


> <BindingDB Entry DOI>
10.7270/Q2NV9PV1

> <PMID>
38829718

> <PubChem AID>


> <Patent Number>


> <Authors>
Wu, T; Hu, J; Zhao, X; Zhang, C; Dong, R; Hu, Q; Xu, H; Shen, H; Zhang, X; Zhang, Y; Lin, B; Wu, X; Xiang, Q; Xu, Y

> <Date of publication>
//0

> <Date in BindingDB>
10/11/2025

> <Institution>
Shenyang Pharmaceutical University

> <Link to Ligand in BindingDB>
http://www.bindingdb.org/bind/chemsearch/marvin/MolStructure.jsp?monomerid=50638391

> <Link to Ligand-Target Pair in BindingDB>
http://www.bindingdb.org/rwd/jsp/dbsearch/PrimarySearch_ki.jsp?energyterm=kJ/mole&tag=pol&polymerid=50007050&target=Protein+cereblon&column=ki&startPg=0&Increment=50&submit=Search

> <Link to Ligand-Target Pair in BindingDB>
http://www.bindingdb.org/rwd/jsp/dbsearch/PrimarySearch_ki.jsp?energyterm=kJ/mole&tag=r21&monomerid=50638391&enzyme=Protein+cereblon&column=ki&startPg=0&Increment=50&submit=Search

> <Ligand HET ID in PDB>


> <PDB ID(s) for Ligand-Target Complex>


> <PubChem CID of Ligand>
177375922

> <PubChem SID of Ligand>
519658794

> <ChEBI ID of Ligand>


> <ChEMBL ID of Ligand>


> <DrugBank ID of Ligand>


> <IUPHAR_GRAC ID of Ligand>


> <KEGG ID of Ligand>


> <ZINC ID of Ligand>


> <Number of Protein Chains in Target (bigger than 1 implies a multichain complex)>
1

> <BindingDB Target Chain Sequence>
MAGEGDQQDAAHNMGNHLPLLPAESEEEDEMEVEDQDSKEAKKPNIINFDTSLPTSHTYLGADMEEFHGRTLHDDDSCQVIPVLPQVMMILIPGQTLPLQLFHPQEVSMVRNLIQKDRTFAVLAYSNVQEREAQFGTTAEIYAYREEQDFGIEIVKVKAIGRQRFKVLELRTQSDGIQQAKVQILPECVLPSTMSAVQLESLNKCQIFPSKPVSREDQCSYKWWQKYQKRKFHCANLTSWPRWLYSLYDAETLMDRIKKQLREWDENLKDDSLPSNPIDFSYRVAACLPIDDVLRIQLLKIGSAIQRLRCELDIMNKCTSLCCKQCQETEITTKNEIFSLSLCGPMAAYVNPHGYVHETLTVYKACNLNLIGRPSTEHSWFPGYAWTVAQCKICASHIGWKFTATKKDMSPQKFWGLTRSALLPTIPDTEDEISPDKVILCL

> <PDB ID(s) of Target Chain>
9DUR,8TNR,8TNQ,8TNP,9DWW,9DWV,9NGT,9NFR,9NFQ,8D81,8D80,8D7Z,8D7Y,8D7X,8D7W,8D7V,8D7U,8CVP,9Q2D,9Q03,9DQD,8UH6,9SAI,9SAF,9H59,9E2U,6BOY,6BNB,6BN9,6BN8,6BN7,9OUL,9Y7D,6XK9,6UML,5V3O,5HXB,9HNE,9D0X,9D0W,7U8F,9FJX,8OJH,8OIZ,7LPS,9SFM,9OTY,4TZ4,9DJX,9DJT,8U17,8U16,8U15,8TZX,8DEY,9CUO,4M91

> <UniProt (SwissProt) Recommended Name of Target Chain>
Protein cereblon

> <UniProt (SwissProt) Entry Name of Target Chain>
CRBN_HUMAN

> <UniProt (SwissProt) Primary ID of Target Chain>
Q96SW2

> <UniProt (SwissProt) Secondary ID(s) of Target Chain>
B2R6H4 C9IZA9 C9JAH6 Q6AI62 Q6NVZ0 Q9UHW4

> <UniProt (SwissProt) Alternative ID(s) of Target Chain>


> <UniProt (TrEMBL) Submitted Name of Target Chain>


> <UniProt (TrEMBL) Entry Name of Target Chain>


> <UniProt (TrEMBL) Primary ID of Target Chain>


> <UniProt (TrEMBL) Secondary ID(s) of Target Chain>


> <UniProt (TrEMBL) Alternative ID(s) of Target Chain>


$$$$

     RDKit          2D

 55 60  0  0  0  0  0  0  0  0999 V2000
   -1.5639    5.4635    0.0000 C   0  0  0  0  0  0  0  0  0  0  0  0
   -0.0967    5.1517    0.0000 C   0  0  0  0  0  0  0  0  0  0  0  0
    1.3705    4.8398    0.0000 C   0  0  0  0  0  0  0  0  0  0  0  0
    0.2152    6.6189    0.0000 O   0  0  0  0  0  0  0  0  0  0  0  0
   -0.4086    3.6844    0.0000 C   0  0  0  0  0  0  0  0  0  0  0  0
    0.7062    2.6807    0.0000 C   0  0  0  0  0  0  0  0  0  0  0  0
    0.3943    1.2135    0.0000 C   0  0  0  0  0  0  0  0  0  0  0  0
    1.2760    0.0000    0.0000 N   0  0  0  0  0  0  0  0  0  0  0  0
    0.3943   -1.2135    0.0000 N   0  0  0  0  0  0  0  0  0  0  0  0
    0.8578   -2.6401    0.0000 C   0  0  0  0  0  0  0  0  0  0  0  0
   -0.1459   -3.7548    0.0000 C   0  0  0  0  0  0  0  0  0  0  0  0
    0.3177   -5.1814    0.0000 C   0  0  0  0  0  0  0  0  0  0  0  0
   -0.6860   -6.2961    0.0000 C   0  0  0  0  0  0  0  0  0  0  0  0
   -0.2225   -7.7227    0.0000 C   0  0  0  0  0  0  0  0  0  0  0  0
   -1.2262   -8.8374    0.0000 C   0  0  0  0  0  0  0  0  0  0  0  0
   -0.7627  -10.2640    0.0000 C   0  0  0  0  0  0  0  0  0  0  0  0
   -1.7664  -11.3787    0.0000 C   0  0  0  0  0  0  0  0  0  0  0  0
   -1.3029  -12.8053    0.0000 C   0  0  0  0  0  0  0  0  0  0  0  0
   -2.3066  -13.9200    0.0000 N   0  0  0  0  0  0  0  0  0  0  0  0
   -1.8430  -15.3466    0.0000 C   0  0  0  0  0  0  0  0  0  0  0  0
   -0.3758  -15.6585    0.0000 C   0  0  0  0  0  0  0  0  0  0  0  0
    0.0877  -17.0851    0.0000 C   0  0  0  0  0  0  0  0  0  0  0  0
   -0.9160  -18.1998    0.0000 C   0  0  0  0  0  0  0  0  0  0  0  0
   -2.3832  -17.8879    0.0000 C   0  0  0  0  0  0  0  0  0  0  0  0
   -2.8467  -16.4613    0.0000 C   0  0  0  0  0  0  0  0  0  0  0  0
   -4.3467  -16.4613    0.0000 C   0  0  0  0  0  0  0  0  0  0  0  0
   -5.2284  -15.2478    0.0000 O   0  0  0  0  0  0  0  0  0  0  0  0
   -4.8102  -17.8879    0.0000 N   0  0  0  0  0  0  0  0  0  0  0  0
   -6.2368  -18.3514    0.0000 C   0  0  0  0  0  0  0  0  0  0  0  0
   -7.3516  -17.3478    0.0000 C   0  0  0  0  0  0  0  0  0  0  0  0
   -8.7781  -17.8113    0.0000 C   0  0  0  0  0  0  0  0  0  0  0  0
   -9.0900  -19.2785    0.0000 C   0  0  0  0  0  0  0  0  0  0  0  0
  -10.5166  -19.7420    0.0000 O   0  0  0  0  0  0  0  0  0  0  0  0
   -7.9753  -20.2822    0.0000 N   0  0  0  0  0  0  0  0  0  0  0  0
   -6.5487  -19.8187    0.0000 C   0  0  0  0  0  0  0  0  0  0  0  0
   -5.4340  -20.8224    0.0000 O   0  0  0  0  0  0  0  0  0  0  0  0
   -3.5967  -18.7696    0.0000 C   0  0  0  0  0  0  0  0  0  0  0  0
   -3.5967  -20.2696    0.0000 O   0  0  0  0  0  0  0  0  0  0  0  0
   -1.0323   -0.7500    0.0000 C   0  0  0  0  0  0  0  0  0  0  0  0
   -1.0323    0.7500    0.0000 C   0  0  0  0  0  0  0  0  0  0  0  0
   -2.1470    1.7537    0.0000 C   0  0  0  0  0  0  0  0  0  0  0  0
   -1.8351    3.2209    0.0000 C   0  0  0  0  0  0  0  0  0  0  0  0
   -2.9499    4.2246    0.0000 N   0  0  0  0  0  0  0  0  0  0  0  0
   -4.3764    3.7611    0.0000 C   0  0  0  0  0  0  0  0  0  0  0  0
   -4.6883    2.2939    0.0000 O   0  0  0  0  0  0  0  0  0  0  0  0
   -5.4912    4.7648    0.0000 C   0  0  0  0  0  0  0  0  0  0  0  0
   -5.1793    6.2320    0.0000 C   0  0  0  0  0  0  0  0  0  0  0  0
   -6.2940    7.2357    0.0000 C   0  0  0  0  0  0  0  0  0  0  0  0
   -7.7206    6.7722    0.0000 C   0  0  0  0  0  0  0  0  0  0  0  0
   -8.0325    5.3050    0.0000 C   0  0  0  0  0  0  0  0  0  0  0  0
   -9.4590    4.8414    0.0000 C   0  0  0  0  0  0  0  0  0  0  0  0
  -10.8856    4.3779    0.0000 F   0  0  0  0  0  0  0  0  0  0  0  0
   -9.9226    6.2680    0.0000 F   0  0  0  0  0  0  0  0  0  0  0  0
   -8.9955    3.4148    0.0000 F   0  0  0  0  0  0  0  0  0  0  0  0
   -6.9177    4.3013    0.0000 N   0  0  0  0  0  0  0  0  0  0  0  0
  1  2  1  0
  2  3  1  0
  2  4  1  0
  2  5  1  0
  5  6  2  0
  6  7  1  0
  7  8  2  0
  8  9  1  0
  9 10  1  0
 10 11  1  0
 11 12  1  0
 12 13  1  0
 13 14  1  0
 14 15  1  0
 15 16  1  0
 16 17  1  0
 17 18  1  0
 18 19  1  0
 19 20  1  0
 20 21  2  0
 21 22  1  0
 22 23  2  0
 23 24  1  0
 24 25  2  0
 25 26  1  0
 26 27  2  0
 26 28  1  0
 28 29  1  0
 29 30  1  0
 30 31  1  0
 31 32  1  0
 32 33  2  0
 32 34  1  0
 34 35  1  0
 35 36  2  0
 28 37  1  0
 37 38  2  0
  9 39  1  0
 39 40  2  0
 40 41  1  0
 41 42  2  0
 42 43  1  0
 43 44  1  0
 44 45  2  0
 44 46  1  0
 46 47  2  0
 47 48  1  0
 48 49  2  0
 49 50  1  0
 50 51  1  0
 51 52  1  0
 51 53  1  0
 51 54  1  0
 50 55  2  0
 42  5  1  0
 55 46  1  0
 40  7  1  0
 25 20  1  0
 35 29  1  0
 37 24  1  0
M  END
> <From>
www.bindingDB.org

> <BindingDB Reactant_set_id>
51589149

> <Ligand InChI>
InChI=1S/C39H42F3N7O6/c1-38(2,55)25-21-28-23(20-29(25)45-34(51)27-14-11-15-31(44-27)39(40,41)42)22-48(47-28)19-9-7-5-3-4-6-8-18-43-26-13-10-12-24-33(26)37(54)49(36(24)53)30-16-17-32(50)46-35(30)52/h10-15,20-22,30,43,55H,3-9,16-19H2,1-2H3,(H,45,51)(H,46,50,52)

> <Ligand InChI Key>
OXMXTNDWZBEXAL-UHFFFAOYSA-N

> <BindingDB MonomerID>
50639833

> <BindingDB Ligand Name>
CHEMBL5556489

> <Target Name>
Protein cereblon

> <Target Source Organism According to Curator or DataSource>
Human

> <Ki (nM)>


> <IC50 (nM)>
>1100

> <Kd (nM)>


> <EC50 (nM)>


> <kon (M-1-s-1)>


> <koff (s-1)>


> <pH>


> <Temp C>


> <Curation/DataSource>
ChEMBL

> <Article DOI>


> <BindingDB Entry DOI>
10.7270/Q23F4V8G

> <PMID>
38920289

> <PubChem AID>


> <Patent Number>


> <Authors>
Weiss, MM; Zheng, X; Ji, N; Browne, CM; Campbell, V; Chen, D; Enerson, B; Fei, X; Huang, X; Klaus, CR; Li, H; Mayo, M; McDonald, AA; Paul, A; Rong, H; Sharma, K; Shi, Y; Slavin, A; Walther, DM; Yuan, K; Zhang, Y; Zhu, X; Kelleher, J; Walker, D; Mainolfi, N

> <Date of publication>
//0

> <Date in BindingDB>
10/11/2025

> <Institution>
Kymera Therapeutics

> <Link to Ligand in BindingDB>
http://www.bindingdb.org/bind/chemsearch/marvin/MolStructure.jsp?monomerid=50639833

> <Link to Ligand-Target Pair in BindingDB>
http://www.bindingdb.org/rwd/jsp/dbsearch/PrimarySearch_ki.jsp?energyterm=kJ/mole&tag=pol&polymerid=50007050&target=Protein+cereblon&column=ki&startPg=0&Increment=50&submit=Search

> <Link to Ligand-Target Pair in BindingDB>
http://www.bindingdb.org/rwd/jsp/dbsearch/PrimarySearch_ki.jsp?energyterm=kJ/mole&tag=r21&monomerid=50639833&enzyme=Protein+cereblon&column=ki&startPg=0&Increment=50&submit=Search

> <Ligand HET ID in PDB>


> <PDB ID(s) for Ligand-Target Complex>


> <PubChem CID of Ligand>
177376819

> <PubChem SID of Ligand>
519660236

> <ChEBI ID of Ligand>


> <ChEMBL ID of Ligand>


> <DrugBank ID of Ligand>


> <IUPHAR_GRAC ID of Ligand>


> <KEGG ID of Ligand>


> <ZINC ID of Ligand>


> <Number of Protein Chains in Target (bigger than 1 implies a multichain complex)>
1

> <BindingDB Target Chain Sequence>
MAGEGDQQDAAHNMGNHLPLLPAESEEEDEMEVEDQDSKEAKKPNIINFDTSLPTSHTYLGADMEEFHGRTLHDDDSCQVIPVLPQVMMILIPGQTLPLQLFHPQEVSMVRNLIQKDRTFAVLAYSNVQEREAQFGTTAEIYAYREEQDFGIEIVKVKAIGRQRFKVLELRTQSDGIQQAKVQILPECVLPSTMSAVQLESLNKCQIFPSKPVSREDQCSYKWWQKYQKRKFHCANLTSWPRWLYSLYDAETLMDRIKKQLREWDENLKDDSLPSNPIDFSYRVAACLPIDDVLRIQLLKIGSAIQRLRCELDIMNKCTSLCCKQCQETEITTKNEIFSLSLCGPMAAYVNPHGYVHETLTVYKACNLNLIGRPSTEHSWFPGYAWTVAQCKICASHIGWKFTATKKDMSPQKFWGLTRSALLPTIPDTEDEISPDKVILCL

> <PDB ID(s) of Target Chain>
9DUR,8TNR,8TNQ,8TNP,9DWW,9DWV,9NGT,9NFR,9NFQ,8D81,8D80,8D7Z,8D7Y,8D7X,8D7W,8D7V,8D7U,8CVP,9Q2D,9Q03,9DQD,8UH6,9SAI,9SAF,9H59,9E2U,6BOY,6BNB,6BN9,6BN8,6BN7,9OUL,9Y7D,6XK9,6UML,5V3O,5HXB,9HNE,9D0X,9D0W,7U8F,9FJX,8OJH,8OIZ,7LPS,9SFM,9OTY,4TZ4,9DJX,9DJT,8U17,8U16,8U15,8TZX,8DEY,9CUO,4M91

> <UniProt (SwissProt) Recommended Name of Target Chain>
Protein cereblon

> <UniProt (SwissProt) Entry Name of Target Chain>
CRBN_HUMAN

> <UniProt (SwissProt) Primary ID of Target Chain>
Q96SW2

> <UniProt (SwissProt) Secondary ID(s) of Target Chain>
B2R6H4 C9IZA9 C9JAH6 Q6AI62 Q6NVZ0 Q9UHW4

> <UniProt (SwissProt) Alternative ID(s) of Target Chain>


> <UniProt (TrEMBL) Submitted Name of Target Chain>


> <UniProt (TrEMBL) Entry Name of Target Chain>


> <UniProt (TrEMBL) Primary ID of Target Chain>


> <UniProt (TrEMBL) Secondary ID(s) of Target Chain>


> <UniProt (TrEMBL) Alternative ID(s) of Target Chain>


$$$$

     RDKit          2D

 19 21  0  0  0  0  0  0  0  0999 V2000
    2.8053   -1.8531    0.0000 C   0  0  0  0  0  0  0  0  0  0  0  0
    2.8042   -2.6800    0.0000 C   0  0  0  0  0  0  0  0  0  0  0  0
    3.5186   -3.0927    0.0000 C   0  0  0  0  0  0  0  0  0  0  0  0
    3.5167   -1.4405    0.0000 C   0  0  0  0  0  0  0  0  0  0  0  0
    5.0227   -1.5910    0.0000 C   0  0  0  0  0  0  0  0  0  0  0  0
    4.2318   -1.8495    0.0000 C   0  0  0  0  0  0  0  0  0  0  0  0
    4.2343   -2.6821    0.0000 C   0  0  0  0  0  0  0  0  0  0  0  0
    5.0277   -2.9357    0.0000 C   0  0  0  0  0  0  0  0  0  0  0  0
    5.5128   -2.2588    0.0000 N   0  0  0  0  0  0  0  0  0  0  0  0
    5.2749   -0.8060    0.0000 O   0  0  0  0  0  0  0  0  0  0  0  0
    6.3358   -2.2587    0.0000 C   0  0  0  0  0  0  0  0  0  0  0  0
    6.7509   -2.9723    0.0000 C   0  0  0  0  0  0  0  0  0  0  0  0
    7.5718   -2.9697    0.0000 C   0  0  0  0  0  0  0  0  0  0  0  0
    7.9839   -2.2550    0.0000 C   0  0  0  0  0  0  0  0  0  0  0  0
    7.5688   -1.5415    0.0000 N   0  0  0  0  0  0  0  0  0  0  0  0
    6.7416   -1.5426    0.0000 C   0  0  0  0  0  0  0  0  0  0  0  0
    6.3260   -0.8304    0.0000 O   0  0  0  0  0  0  0  0  0  0  0  0
    8.8084   -2.2535    0.0000 O   0  0  0  0  0  0  0  0  0  0  0  0
    2.0911   -1.4410    0.0000 O   0  0  0  0  0  0  0  0  0  0  0  0
  1  2  2  0
  2  3  1  0
  3  7  2  0
  6  4  2  0
  4  1  1  0
  6  7  1  0
  5  6  1  0
  7  8  1  0
  8  9  1  0
  9  5  1  0
  5 10  2  0
 11 12  1  0
 11 16  1  0
 12 13  1  0
 13 14  1  0
 14 15  1  0
 15 16  1  0
  9 11  1  0
 16 17  2  0
 14 18  2  0
  1 19  1  0
M  END
> <From>
www.bindingDB.org

> <BindingDB Reactant_set_id>
51526246

> <Ligand InChI>
InChI=1S/C13H12N2O4/c16-8-2-1-7-6-15(13(19)9(7)5-8)10-3-4-11(17)14-12(10)18/h1-2,5,10,16H,3-4,6H2,(H,14,17,18)

> <Ligand InChI Key>
VOTVGZSDHZUGID-UHFFFAOYSA-N

> <BindingDB MonomerID>
50614098

> <BindingDB Ligand Name>
CHEMBL2324703

> <Target Name>
Protein cereblon

> <Target Source Organism According to Curator or DataSource>
Human

> <Ki (nM)>


> <IC50 (nM)>
 1140

> <Kd (nM)>


> <EC50 (nM)>


> <kon (M-1-s-1)>


> <koff (s-1)>


> <pH>


> <Temp C>


> <Curation/DataSource>
ChEMBL

> <Article DOI>


> <BindingDB Entry DOI>
10.7270/Q2V12923

> <PMID>
36970148

> <PubChem AID>


> <Patent Number>


> <Authors>
n/a

> <Date of publication>
3/22/2023

> <Date in BindingDB>
4/22/2024

> <Institution>
n/a

> <Link to Ligand in BindingDB>
http://www.bindingdb.org/bind/chemsearch/marvin/MolStructure.jsp?monomerid=50614098

> <Link to Ligand-Target Pair in BindingDB>
http://www.bindingdb.org/jsp/dbsearch/PrimarySearch_ki.jsp?energyterm=kJ/mole&tag=pol&polymerid=50007050&target=Protein+cereblon&column=ki&startPg=0&Increment=50&submit=Search

> <Link to Ligand-Target Pair in BindingDB>
http://www.bindingdb.org/jsp/dbsearch/PrimarySearch_ki.jsp?energyterm=kJ/mole&tag=r21&monomerid=50614098&enzyme=Protein+cereblon&column=ki&startPg=0&Increment=50&submit=Search

> <Ligand HET ID in PDB>


> <PDB ID(s) for Ligand-Target Complex>


> <PubChem CID of Ligand>
71517903

> <PubChem SID of Ligand>
494503846

> <ChEBI ID of Ligand>


> <ChEMBL ID of Ligand>


> <DrugBank ID of Ligand>


> <IUPHAR_GRAC ID of Ligand>


> <KEGG ID of Ligand>


> <ZINC ID of Ligand>


> <Number of Protein Chains in Target (bigger than 1 implies a multichain complex)>
1

> <BindingDB Target Chain Sequence>
MAGEGDQQDAAHNMGNHLPLLPAESEEEDEMEVEDQDSKEAKKPNIINFDTSLPTSHTYLGADMEEFHGRTLHDDDSCQVIPVLPQVMMILIPGQTLPLQLFHPQEVSMVRNLIQKDRTFAVLAYSNVQEREAQFGTTAEIYAYREEQDFGIEIVKVKAIGRQRFKVLELRTQSDGIQQAKVQILPECVLPSTMSAVQLESLNKCQIFPSKPVSREDQCSYKWWQKYQKRKFHCANLTSWPRWLYSLYDAETLMDRIKKQLREWDENLKDDSLPSNPIDFSYRVAACLPIDDVLRIQLLKIGSAIQRLRCELDIMNKCTSLCCKQCQETEITTKNEIFSLSLCGPMAAYVNPHGYVHETLTVYKACNLNLIGRPSTEHSWFPGYAWTVAQCKICASHIGWKFTATKKDMSPQKFWGLTRSALLPTIPDTEDEISPDKVILCL

> <PDB ID(s) of Target Chain>
4TZ4,5HXB,5V3O,6UML,6XK9,7LPS,7U8F,8CVP,8D7U,8D7V,8D7W,8D7X,8D7Y,8D7Z,8D80,8D81,8DEY,8OIZ,8OJH,8U15,8U16,8U17

> <UniProt (SwissProt) Recommended Name of Target Chain>
Protein cereblon

> <UniProt (SwissProt) Entry Name of Target Chain>
CRBN_HUMAN

> <UniProt (SwissProt) Primary ID of Target Chain>
Q96SW2

> <UniProt (SwissProt) Secondary ID(s) of Target Chain>
B2R6H4 C9IZA9 C9JAH6 Q6AI62 Q6NVZ0 Q9UHW4

> <UniProt (SwissProt) Alternative ID(s) of Target Chain>


> <UniProt (TrEMBL) Submitted Name of Target Chain>


> <UniProt (TrEMBL) Entry Name of Target Chain>


> <UniProt (TrEMBL) Primary ID of Target Chain>


> <UniProt (TrEMBL) Secondary ID(s) of Target Chain>


> <UniProt (TrEMBL) Alternative ID(s) of Target Chain>


$$$$
 
     RDKit          2D

 63 71  0  0  0  0  0  0  0  0999 V2000
    5.0988   -6.2949    0.0000 C   0  0  0  0  0  0  0  0  0  0  0  0
    5.2956   -6.9259    0.0000 C   0  0  0  0  0  0  0  0  0  0  0  0
    4.7321   -7.5321    0.0000 C   0  0  0  0  0  0  0  0  0  0  0  0
    4.8895   -8.3414    0.0000 C   0  0  0  0  0  0  0  0  0  0  0  0
    4.1682   -8.7416    0.0000 N   0  0  0  0  0  0  0  0  0  0  0  0
    4.1561   -9.5659    0.0000 N   0  0  0  0  0  0  0  0  0  0  0  0
    4.8618   -9.9920    0.0000 C   0  0  0  0  0  0  0  0  0  0  0  0
    5.5832   -9.5918    0.0000 N   0  0  0  0  0  0  0  0  0  0  0  0
    5.5988   -8.7656    0.0000 C   0  0  0  0  0  0  0  0  0  0  0  0
    6.3206   -8.3651    0.0000 N   0  0  0  0  0  0  0  0  0  0  0  0
    7.0307   -8.7930    0.0000 C   0  0  0  0  0  0  0  0  0  0  0  0
    7.7522   -8.3929    0.0000 C   0  0  0  0  0  0  0  0  0  0  0  0
    8.4594   -8.8205    0.0000 C   0  0  0  0  0  0  0  0  0  0  0  0
    8.4417   -9.6503    0.0000 C   0  0  0  0  0  0  0  0  0  0  0  0
    7.7204  -10.0504    0.0000 C   0  0  0  0  0  0  0  0  0  0  0  0
    7.0112   -9.6193    0.0000 C   0  0  0  0  0  0  0  0  0  0  0  0
    9.1474  -10.0745    0.0000 N   0  0  0  0  0  0  0  0  0  0  0  0
    9.1333  -10.8988    0.0000 C   0  0  0  0  0  0  0  0  0  0  0  0
    9.8390  -11.3287    0.0000 C   0  0  0  0  0  0  0  0  0  0  0  0
   10.5603  -10.9285    0.0000 N   0  0  0  0  0  0  0  0  0  0  0  0
   10.5780  -10.1023    0.0000 C   0  0  0  0  0  0  0  0  0  0  0  0
    9.8688   -9.6744    0.0000 C   0  0  0  0  0  0  0  0  0  0  0  0
   11.2703  -11.3528    0.0000 C   0  0  0  0  0  0  0  0  0  0  0  0
   11.2577  -12.0139    0.0000 O   0  0  0  0  0  0  0  0  0  0  0  0
   11.9921  -10.9524    0.0000 C   0  0  0  0  0  0  0  0  0  0  0  0
   12.7026  -11.3775    0.0000 C   0  0  0  0  0  0  0  0  0  0  0  0
   13.4245  -10.9771    0.0000 C   0  0  0  0  0  0  0  0  0  0  0  0
   13.4335  -10.3181    0.0000 O   0  0  0  0  0  0  0  0  0  0  0  0
   14.1308  -11.4035    0.0000 N   0  0  0  0  0  0  0  0  0  0  0  0
   14.8522  -11.0033    0.0000 C   0  0  0  0  0  0  0  0  0  0  0  0
   15.5615  -11.4311    0.0000 C   0  0  0  0  0  0  0  0  0  0  0  0
   15.5473  -12.2554    0.0000 C   0  0  0  0  0  0  0  0  0  0  0  0
   14.8224  -12.6575    0.0000 C   0  0  0  0  0  0  0  0  0  0  0  0
   14.1168  -12.2277    0.0000 C   0  0  0  0  0  0  0  0  0  0  0  0
   16.2528  -12.6803    0.0000 C   0  0  0  0  0  0  0  0  0  0  0  0
   16.2354  -13.5106    0.0000 N   0  0  0  0  0  0  0  0  0  0  0  0
   16.9394  -13.9365    0.0000 C   0  0  0  0  0  0  0  0  0  0  0  0
   16.9203  -14.7589    0.0000 C   0  0  0  0  0  0  0  0  0  0  0  0
   16.1990  -15.1590    0.0000 N   0  0  0  0  0  0  0  0  0  0  0  0
   15.4929  -14.7296    0.0000 C   0  0  0  0  0  0  0  0  0  0  0  0
   15.5140  -13.9107    0.0000 C   0  0  0  0  0  0  0  0  0  0  0  0
   16.1808  -15.9838    0.0000 C   0  0  0  0  0  0  0  0  0  0  0  0
   16.8860  -16.4149    0.0000 C   0  0  0  0  0  0  0  0  0  0  0  0
   16.8659  -17.2389    0.0000 C   0  0  0  0  0  0  0  0  0  0  0  0
   16.1447  -17.6390    0.0000 C   0  0  0  0  0  0  0  0  0  0  0  0
   15.4340  -17.2068    0.0000 C   0  0  0  0  0  0  0  0  0  0  0  0
   15.4559  -16.3859    0.0000 C   0  0  0  0  0  0  0  0  0  0  0  0
   16.2923  -18.4465    0.0000 C   0  0  0  0  0  0  0  0  0  0  0  0
   15.8375  -18.9298    0.0000 O   0  0  0  0  0  0  0  0  0  0  0  0
   17.1111  -18.5523    0.0000 N   0  0  0  0  0  0  0  0  0  0  0  0
   17.4638  -17.8067    0.0000 C   0  0  0  0  0  0  0  0  0  0  0  0
   18.1151  -17.6855    0.0000 O   0  0  0  0  0  0  0  0  0  0  0  0
   17.5115  -19.2741    0.0000 C   0  0  0  0  0  0  0  0  0  0  0  0
   17.1302  -20.0099    0.0000 C   0  0  0  0  0  0  0  0  0  0  0  0
   16.4713  -20.0457    0.0000 O   0  0  0  0  0  0  0  0  0  0  0  0
   17.5822  -20.7041    0.0000 N   0  0  0  0  0  0  0  0  0  0  0  0
   18.4043  -20.6608    0.0000 C   0  0  0  0  0  0  0  0  0  0  0  0
   18.7660  -21.2161    0.0000 O   0  0  0  0  0  0  0  0  0  0  0  0
   18.7800  -19.9250    0.0000 C   0  0  0  0  0  0  0  0  0  0  0  0
   18.3334  -19.2325    0.0000 C   0  0  0  0  0  0  0  0  0  0  0  0
    3.5648   -8.1797    0.0000 C   0  0  0  0  0  0  0  0  0  0  0  0
    3.9159   -7.4323    0.0000 C   0  0  0  0  0  0  0  0  0  0  0  0
    5.9367   -7.0758    0.0000 C   0  0  0  0  0  0  0  0  0  0  0  0
  1  2  1  0
  2  3  1  0
  3  4  2  0
  4  5  1  0
  5  6  1  0
  6  7  2  0
  7  8  1  0
  8  9  2  0
  9  4  1  0
  9 10  1  0
 11 10  1  1
 11 12  1  0
 12 13  1  0
 13 14  1  0
 14 15  1  0
 15 16  1  0
 16 11  1  0
 14 17  1  1
 17 18  1  0
 18 19  1  0
 19 20  1  0
 20 21  1  0
 21 22  1  0
 22 17  1  0
 20 23  1  0
 23 24  2  0
 23 25  1  0
 25 26  1  0
 26 27  1  0
 27 28  2  0
 27 29  1  0
 29 30  1  0
 30 31  1  0
 31 32  1  0
 32 33  1  0
 33 34  1  0
 34 29  1  0
 32 35  1  0
 35 36  1  0
 36 37  1  0
 37 38  1  0
 38 39  1  0
 39 40  1  0
 40 41  1  0
 41 36  1  0
 39 42  1  0
 42 43  2  0
 43 44  1  0
 44 45  2  0
 45 46  1  0
 46 47  2  0
 47 42  1  0
 45 48  1  0
 48 49  2  0
 48 50  1  0
 50 51  1  0
 51 44  1  0
 51 52  2  0
 50 53  1  0
 53 54  1  0
 54 55  2  0
 54 56  1  0
 56 57  1  0
 57 58  2  0
 57 59  1  0
 59 60  1  0
 60 53  1  0
  5 61  1  0
 61 62  2  0
 62  3  1  0
  2 63  1  0
M  END
> <From>
www.bindingDB.org

> <BindingDB Reactant_set_id>
51388394

> <Ligand InChI>
InChI=1S/C46H61N11O6/c1-30(2)35-15-18-56-42(35)43(47-29-48-56)49-32-3-5-33(6-4-32)52-23-25-55(26-24-52)41(60)12-11-40(59)54-16-13-31(14-17-54)28-51-19-21-53(22-20-51)34-7-8-36-37(27-34)46(63)57(45(36)62)38-9-10-39(58)50-44(38)61/h7-8,15,18,27,29-33,38H,3-6,9-14,16-17,19-26,28H2,1-2H3,(H,47,48,49)(H,50,58,61)/t32-,33+,38?

> <Ligand InChI Key>
PVLXFMAKABZOPF-YVLRYLSESA-N

> <BindingDB MonomerID>
50560887

> <BindingDB Ligand Name>
CHEMBL4798668

> <Target Name>
Protein cereblon

> <Target Source Organism According to Curator or DataSource>
Human

> <Ki (nM)>


> <IC50 (nM)>
 1200

> <Kd (nM)>


> <EC50 (nM)>


> <kon (M-1-s-1)>


> <koff (s-1)>


> <pH>


> <Temp C>


> <Curation/DataSource>
ChEMBL

> <Article DOI>
10.1021/acs.jmedchem.0c01125

> <BindingDB Entry DOI>
10.7270/Q2P84GMZ

> <PMID>
32803978

> <PubChem AID>


> <Patent Number>


> <Authors>
Degorce, SL; Tavana, O; Banks, E; Crafter, C; Gingipalli, L; Kouvchinov, D; Mao, Y; Pachl, F; Solanki, A; Valge-Archer, V; Yang, B; Edmondson, SD

> <Date of publication>
9/24/2020

> <Date in BindingDB>
3/28/2022

> <Institution>
AstraZeneca

> <Link to Ligand in BindingDB>
http://www.bindingdb.org/bind/chemsearch/marvin/MolStructure.jsp?monomerid=50560887

> <Link to Ligand-Target Pair in BindingDB>
http://www.bindingdb.org/jsp/dbsearch/PrimarySearch_ki.jsp?energyterm=kJ/mole&tag=pol&polymerid=50007050&target=Protein+cereblon&column=ki&startPg=0&Increment=50&submit=Search

> <Link to Ligand-Target Pair in BindingDB>
http://www.bindingdb.org/jsp/dbsearch/PrimarySearch_ki.jsp?energyterm=kJ/mole&tag=r21&monomerid=50560887&enzyme=Protein+cereblon&column=ki&startPg=0&Increment=50&submit=Search

> <Ligand HET ID in PDB>


> <PDB ID(s) for Ligand-Target Complex>


> <PubChem CID of Ligand>
162675573

> <PubChem SID of Ligand>
461831279

> <ChEBI ID of Ligand>


> <ChEMBL ID of Ligand>


> <DrugBank ID of Ligand>


> <IUPHAR_GRAC ID of Ligand>


> <KEGG ID of Ligand>


> <ZINC ID of Ligand>


> <Number of Protein Chains in Target (bigger than 1 implies a multichain complex)>
1

> <BindingDB Target Chain Sequence>
MAGEGDQQDAAHNMGNHLPLLPAESEEEDEMEVEDQDSKEAKKPNIINFDTSLPTSHTYLGADMEEFHGRTLHDDDSCQVIPVLPQVMMILIPGQTLPLQLFHPQEVSMVRNLIQKDRTFAVLAYSNVQEREAQFGTTAEIYAYREEQDFGIEIVKVKAIGRQRFKVLELRTQSDGIQQAKVQILPECVLPSTMSAVQLESLNKCQIFPSKPVSREDQCSYKWWQKYQKRKFHCANLTSWPRWLYSLYDAETLMDRIKKQLREWDENLKDDSLPSNPIDFSYRVAACLPIDDVLRIQLLKIGSAIQRLRCELDIMNKCTSLCCKQCQETEITTKNEIFSLSLCGPMAAYVNPHGYVHETLTVYKACNLNLIGRPSTEHSWFPGYAWTVAQCKICASHIGWKFTATKKDMSPQKFWGLTRSALLPTIPDTEDEISPDKVILCL

> <PDB ID(s) of Target Chain>
4TZ4,5HXB,5V3O,6UML,6XK9,7LPS,7U8F,8CVP,8D7U,8D7V,8D7W,8D7X,8D7Y,8D7Z,8D80,8D81,8DEY,8OIZ,8OJH

> <UniProt (SwissProt) Recommended Name of Target Chain>
Protein cereblon

> <UniProt (SwissProt) Entry Name of Target Chain>
CRBN_HUMAN

> <UniProt (SwissProt) Primary ID of Target Chain>
Q96SW2

> <UniProt (SwissProt) Secondary ID(s) of Target Chain>
B2R6H4 C9IZA9 C9JAH6 Q6AI62 Q6NVZ0 Q9UHW4

> <UniProt (SwissProt) Alternative ID(s) of Target Chain>


> <UniProt (TrEMBL) Submitted Name of Target Chain>


> <UniProt (TrEMBL) Entry Name of Target Chain>


> <UniProt (TrEMBL) Primary ID of Target Chain>


> <UniProt (TrEMBL) Secondary ID(s) of Target Chain>


> <UniProt (TrEMBL) Alternative ID(s) of Target Chain>


$$$$
 
     RDKit          2D

 54 61  0  0  0  0  0  0  0  0999 V2000
   10.7339  -16.2570    0.0000 C   0  0  0  0  0  0  0  0  0  0  0  0
   11.8815  -15.0974    0.0000 C   0  0  0  0  0  0  0  0  0  0  0  0
   11.0866  -14.8905    0.0000 C   0  0  0  0  0  0  0  0  0  0  0  0
   10.5148  -15.4714    0.0000 C   0  0  0  0  0  0  0  0  0  0  0  0
   12.0960  -15.8868    0.0000 C   0  0  0  0  0  0  0  0  0  0  0  0
   11.5211  -16.4637    0.0000 C   0  0  0  0  0  0  0  0  0  0  0  0
   11.8920  -17.1889    0.0000 C   0  0  0  0  0  0  0  0  0  0  0  0
   12.6964  -17.0601    0.0000 N   0  0  0  0  0  0  0  0  0  0  0  0
   12.8223  -16.2554    0.0000 C   0  0  0  0  0  0  0  0  0  0  0  0
   13.5498  -15.8832    0.0000 O   0  0  0  0  0  0  0  0  0  0  0  0
   13.2734  -17.6350    0.0000 C   0  0  0  0  0  0  0  0  0  0  0  0
   13.0611  -18.4251    0.0000 C   0  0  0  0  0  0  0  0  0  0  0  0
   13.6361  -19.0008    0.0000 C   0  0  0  0  0  0  0  0  0  0  0  0
   14.4265  -18.7920    0.0000 C   0  0  0  0  0  0  0  0  0  0  0  0
   14.6388  -18.0018    0.0000 N   0  0  0  0  0  0  0  0  0  0  0  0
   14.0606  -17.4206    0.0000 C   0  0  0  0  0  0  0  0  0  0  0  0
   14.2716  -16.6311    0.0000 O   0  0  0  0  0  0  0  0  0  0  0  0
   15.0031  -19.3710    0.0000 O   0  0  0  0  0  0  0  0  0  0  0  0
    7.0039  -19.8437    0.0000 C   0  0  0  0  0  0  0  0  0  0  0  0
    7.2144  -20.6320    0.0000 C   0  0  0  0  0  0  0  0  0  0  0  0
    7.9980  -20.8427    0.0000 C   0  0  0  0  0  0  0  0  0  0  0  0
    8.5766  -20.2683    0.0000 C   0  0  0  0  0  0  0  0  0  0  0  0
    8.3661  -19.4800    0.0000 C   0  0  0  0  0  0  0  0  0  0  0  0
    7.5770  -19.2661    0.0000 C   0  0  0  0  0  0  0  0  0  0  0  0
    6.2158  -20.0613    0.0000 C   0  0  0  0  0  0  0  0  0  0  0  0
    7.0437  -19.0306    0.0000 N   0  0  0  0  0  0  0  0  0  0  0  0
    6.2797  -18.7409    0.0000 C   0  0  0  0  0  0  0  0  0  0  0  0
    5.7682  -19.3779    0.0000 C   0  0  0  0  0  0  0  0  0  0  0  0
    4.0226  -20.3224    0.0000 C   0  0  0  0  0  0  0  0  0  0  0  0
    4.0215  -21.1420    0.0000 C   0  0  0  0  0  0  0  0  0  0  0  0
    4.7295  -21.5509    0.0000 C   0  0  0  0  0  0  0  0  0  0  0  0
    4.7277  -19.9136    0.0000 C   0  0  0  0  0  0  0  0  0  0  0  0
    5.4364  -20.3188    0.0000 C   0  0  0  0  0  0  0  0  0  0  0  0
    5.4412  -21.1374    0.0000 C   0  0  0  0  0  0  0  0  0  0  0  0
    6.2212  -21.3859    0.0000 N   0  0  0  0  0  0  0  0  0  0  0  0
    6.6985  -20.7208    0.0000 C   0  0  0  0  0  0  0  0  0  0  0  0
    3.3135  -21.5500    0.0000 Cl  0  0  0  0  0  0  0  0  0  0  0  0
    7.4042  -21.1273    0.0000 O   0  0  0  0  0  0  0  0  0  0  0  0
    6.0650  -17.9524    0.0000 C   0  0  0  0  0  0  0  0  0  0  0  0
    6.6405  -17.3722    0.0000 N   0  0  0  0  0  0  0  0  0  0  0  0
    5.2748  -17.7441    0.0000 O   0  0  0  0  0  0  0  0  0  0  0  0
    4.9733  -19.1627    0.0000 C   0  0  0  0  0  0  0  0  0  0  0  0
    4.7646  -18.3650    0.0000 C   0  0  0  0  0  0  0  0  0  0  0  0
    3.9706  -18.1497    0.0000 C   0  0  0  0  0  0  0  0  0  0  0  0
    3.3859  -18.7308    0.0000 C   0  0  0  0  0  0  0  0  0  0  0  0
    3.6006  -19.5302    0.0000 C   0  0  0  0  0  0  0  0  0  0  0  0
    4.3943  -19.7418    0.0000 C   0  0  0  0  0  0  0  0  0  0  0  0
    4.7587  -17.5448    0.0000 F   0  0  0  0  0  0  0  0  0  0  0  0
    3.7615  -17.3597    0.0000 Cl  0  0  0  0  0  0  0  0  0  0  0  0
    7.4307  -17.5805    0.0000 C   0  0  0  0  0  0  0  0  0  0  0  0
    8.0062  -17.0003    0.0000 C   0  0  0  0  0  0  0  0  0  0  0  0
    8.7964  -17.2086    0.0000 C   0  0  0  0  0  0  0  0  0  0  0  0
    9.3719  -16.6285    0.0000 C   0  0  0  0  0  0  0  0  0  0  0  0
   10.1621  -16.8368    0.0000 C   0  0  0  0  0  0  0  0  0  0  0  0
  1  6  2  0
  5  2  2  0
  2  3  1  0
  3  4  2  0
  4  1  1  0
  5  6  1  0
  6  7  1  0
  7  8  1  0
  8  9  1  0
  9  5  1  0
  9 10  2  0
 11 12  1  0
 11 16  1  0
 12 13  1  0
 13 14  1  0
 14 15  1  0
 15 16  1  0
  8 11  1  0
 16 17  2  0
 14 18  2  0
 19 20  1  0
 19 24  1  0
 20 21  1  0
 21 22  1  0
 22 23  1  0
 23 24  1  0
 25 19  1  0
 19 26  1  0
 26 27  1  0
 27 28  1  0
 28 25  1  0
 29 30  2  0
 30 31  1  0
 31 34  2  0
 33 32  2  0
 32 29  1  0
 33 34  1  0
 34 35  1  0
 35 36  1  0
 25 36  1  1
 25 33  1  0
 30 37  1  0
 36 38  2  0
 27 39  1  6
 39 40  1  0
 39 41  2  0
 28 42  1  1
 42 43  2  0
 43 44  1  0
 44 45  2  0
 45 46  1  0
 46 47  2  0
 47 42  1  0
 43 48  1  0
 44 49  1  0
 40 50  1  0
 50 51  1  0
 51 52  1  0
 52 53  1  0
 53 54  1  0
 54  1  1  0
M  END
> <From>
www.bindingDB.org

> <BindingDB Reactant_set_id>
51235042

> <Ligand InChI>
InChI=1S/C41H42Cl2FN5O5/c42-24-14-15-28-30(21-24)46-39(54)41(28)33(26-12-8-13-29(43)34(26)44)35(48-40(41)18-4-2-5-19-40)37(52)45-20-6-1-3-9-23-10-7-11-25-27(23)22-49(38(25)53)31-16-17-32(50)47-36(31)51/h7-8,10-15,21,31,33,35,48H,1-6,9,16-20,22H2,(H,45,52)(H,46,54)(H,47,50,51)/t31?,33-,35+,41+/m0/s1

> <Ligand InChI Key>
BANRYGZZIMCKNA-OYGJEQPESA-N

> <BindingDB MonomerID>
50505628

> <BindingDB Ligand Name>
CHEMBL4449512

> <Target Name>
Protein cereblon

> <Target Source Organism According to Curator or DataSource>
Human

> <Ki (nM)>


> <IC50 (nM)>
 1372

> <Kd (nM)>


> <EC50 (nM)>


> <kon (M-1-s-1)>


> <koff (s-1)>


> <pH>


> <Temp C>


> <Curation/DataSource>
ChEMBL

> <Article DOI>
10.1021/acs.jmedchem.9b00846

> <BindingDB Entry DOI>
10.7270/Q20C5026

> <PMID>
31560543

> <PubChem AID>


> <Patent Number>


> <Authors>
Yang, J; Li, Y; Aguilar, A; Liu, Z; Yang, CY; Wang, S

> <Date of publication>
11/14/2019

> <Date in BindingDB>
2/18/2021

> <Institution>
TBA

> <Link to Ligand in BindingDB>
http://www.bindingdb.org/bind/chemsearch/marvin/MolStructure.jsp?monomerid=50505628

> <Link to Ligand-Target Pair in BindingDB>
http://www.bindingdb.org/jsp/dbsearch/PrimarySearch_ki.jsp?energyterm=kJ/mole&tag=pol&polymerid=50007050&target=Protein+cereblon&column=ki&startPg=0&Increment=50&submit=Search

> <Link to Ligand-Target Pair in BindingDB>
http://www.bindingdb.org/jsp/dbsearch/PrimarySearch_ki.jsp?energyterm=kJ/mole&tag=r21&monomerid=50505628&enzyme=Protein+cereblon&column=ki&startPg=0&Increment=50&submit=Search

> <Ligand HET ID in PDB>


> <PDB ID(s) for Ligand-Target Complex>


> <PubChem CID of Ligand>
139600332

> <PubChem SID of Ligand>
440714213

> <ChEBI ID of Ligand>


> <ChEMBL ID of Ligand>


> <DrugBank ID of Ligand>


> <IUPHAR_GRAC ID of Ligand>


> <KEGG ID of Ligand>


> <ZINC ID of Ligand>


> <Number of Protein Chains in Target (bigger than 1 implies a multichain complex)>
1

> <BindingDB Target Chain Sequence>
MAGEGDQQDAAHNMGNHLPLLPAESEEEDEMEVEDQDSKEAKKPNIINFDTSLPTSHTYLGADMEEFHGRTLHDDDSCQVIPVLPQVMMILIPGQTLPLQLFHPQEVSMVRNLIQKDRTFAVLAYSNVQEREAQFGTTAEIYAYREEQDFGIEIVKVKAIGRQRFKVLELRTQSDGIQQAKVQILPECVLPSTMSAVQLESLNKCQIFPSKPVSREDQCSYKWWQKYQKRKFHCANLTSWPRWLYSLYDAETLMDRIKKQLREWDENLKDDSLPSNPIDFSYRVAACLPIDDVLRIQLLKIGSAIQRLRCELDIMNKCTSLCCKQCQETEITTKNEIFSLSLCGPMAAYVNPHGYVHETLTVYKACNLNLIGRPSTEHSWFPGYAWTVAQCKICASHIGWKFTATKKDMSPQKFWGLTRSALLPTIPDTEDEISPDKVILCL

> <PDB ID(s) of Target Chain>
4TZ4,5HXB,5V3O,6UML,6XK9,7LPS,7U8F,8CVP,8D7U,8D7V,8D7W,8D7X,8D7Y,8D7Z,8D80,8D81,8DEY,8OIZ,8OJH

> <UniProt (SwissProt) Recommended Name of Target Chain>
Protein cereblon

> <UniProt (SwissProt) Entry Name of Target Chain>
CRBN_HUMAN

> <UniProt (SwissProt) Primary ID of Target Chain>
Q96SW2

> <UniProt (SwissProt) Secondary ID(s) of Target Chain>
B2R6H4 C9IZA9 C9JAH6 Q6AI62 Q6NVZ0 Q9UHW4

> <UniProt (SwissProt) Alternative ID(s) of Target Chain>


> <UniProt (TrEMBL) Submitted Name of Target Chain>


> <UniProt (TrEMBL) Entry Name of Target Chain>


> <UniProt (TrEMBL) Primary ID of Target Chain>


> <UniProt (TrEMBL) Secondary ID(s) of Target Chain>


> <UniProt (TrEMBL) Alternative ID(s) of Target Chain>


$$$$
 
     RDKit          2D

 30 33  0  0  0  0  0  0  0  0999 V2000
   -1.2130    0.3565    0.0000 C   0  0  0  0  0  0  0  0  0  0  0  0
   -0.4986    0.7691    0.0000 C   0  0  0  0  0  0  0  0  0  0  0  0
    0.2158    0.3565    0.0000 C   0  0  0  0  0  0  0  0  0  0  0  0
    0.2158   -0.4684    0.0000 C   0  0  0  0  0  0  0  0  0  0  0  0
   -0.4986   -0.8809    0.0000 C   0  0  0  0  0  0  0  0  0  0  0  0
   -1.2130   -0.4684    0.0000 C   0  0  0  0  0  0  0  0  0  0  0  0
    1.0004   -0.7233    0.0000 C   0  0  0  0  0  0  0  0  0  0  0  0
    1.4853   -0.0559    0.0000 N   0  0  0  0  0  0  0  0  0  0  0  0
    1.0004    0.6115    0.0000 C   0  0  0  0  0  0  0  0  0  0  0  0
    1.2139    1.4081    0.0000 O   0  0  0  0  0  0  0  0  0  0  0  0
    2.3101   -0.0559    0.0000 C   0  0  0  0  0  0  0  0  0  0  0  0
    2.7224    0.6582    0.0000 C   0  0  0  0  0  0  0  0  0  0  0  0
    3.5472    0.6582    0.0000 C   0  0  0  0  0  0  0  0  0  0  0  0
    3.9595   -0.0560    0.0000 C   0  0  0  0  0  0  0  0  0  0  0  0
    3.5472   -0.7702    0.0000 N   0  0  0  0  0  0  0  0  0  0  0  0
    2.7224   -0.7702    0.0000 C   0  0  0  0  0  0  0  0  0  0  0  0
    2.3101   -1.4845    0.0000 O   0  0  0  0  0  0  0  0  0  0  0  0
    4.7843   -0.0560    0.0000 O   0  0  0  0  0  0  0  0  0  0  0  0
   -1.9273    0.7689    0.0000 S   0  0  0  0  0  0  0  0  0  0  0  0
   -2.6415    0.3565    0.0000 N   0  0  0  0  0  0  0  0  0  0  0  0
   -1.5141    1.4845    0.0000 O   0  0  0  0  0  0  0  0  0  0  0  0
   -2.3389    1.4845    0.0000 O   0  0  0  0  0  0  0  0  0  0  0  0
   -2.6415   -0.4681    0.0000 C   0  0  0  0  0  0  0  0  0  0  0  0
   -3.3558   -0.8805    0.0000 N   0  0  0  0  0  0  0  0  0  0  0  0
   -4.0700   -0.4681    0.0000 C   0  0  0  0  0  0  0  0  0  0  0  0
   -4.0701    0.3566    0.0000 C   0  0  0  0  0  0  0  0  0  0  0  0
   -3.3558    0.7689    0.0000 C   0  0  0  0  0  0  0  0  0  0  0  0
   -4.7843    0.7689    0.0000 C   0  0  0  0  0  0  0  0  0  0  0  0
   -4.7843   -0.8805    0.0000 O   0  0  0  0  0  0  0  0  0  0  0  0
   -1.9273   -0.8805    0.0000 O   0  0  0  0  0  0  0  0  0  0  0  0
  1  2  1  0
  3  2  2  0
  4  3  1  0
  5  4  2  0
  6  5  1  0
  1  6  2  0
  4  7  1  0
  8  7  1  0
  9  8  1  0
  3  9  1  0
  9 10  2  0
  8 11  1  0
 12 11  1  0
 13 12  1  0
 14 13  1  0
 15 14  1  0
 16 15  1  0
 11 16  1  0
 16 17  2  0
 14 18  2  0
  1 19  1  0
 19 20  1  0
 19 21  2  0
 19 22  2  0
 23 20  1  0
 24 23  1  0
 25 24  1  0
 26 25  1  0
 27 26  2  0
 20 27  1  0
 26 28  1  0
 25 29  2  0
 23 30  2  0
M  END
> <From>
www.bindingDB.org

> <BindingDB Reactant_set_id>
51568407

> <Ligand InChI>
InChI=1S/C18H16N4O7S/c1-9-7-22(18(27)20-15(9)24)30(28,29)11-3-2-10-8-21(17(26)12(10)6-11)13-4-5-14(23)19-16(13)25/h2-3,6-7,13H,4-5,8H2,1H3,(H,19,23,25)(H,20,24,27)

> <Ligand InChI Key>
QTCPUQCPILDKJV-UHFFFAOYSA-N

> <BindingDB MonomerID>
50630780

> <BindingDB Ligand Name>
CHEMBL5397937

> <Target Name>
Protein cereblon

> <Target Source Organism According to Curator or DataSource>
Homo sapiens

> <Ki (nM)>


> <IC50 (nM)>
 1377

> <Kd (nM)>


> <EC50 (nM)>


> <kon (M-1-s-1)>


> <koff (s-1)>


> <pH>


> <Temp C>


> <Curation/DataSource>
ChEMBL

> <Article DOI>
10.1021/acsmedchemlett.3c00371

> <BindingDB Entry DOI>
10.7270/Q28D01RH

> <PMID>
37974938

> <PubChem AID>


> <Patent Number>


> <Authors>
Cruite, JT; Nowak, RP; Donovan, KA; Ficarro, SB; Huang, H; Liu, H; Liu, Y; Marto, JA; Metivier, RJ; Fischer, ES; Jones, LH

> <Date of publication>
11/9/2023

> <Date in BindingDB>
12/20/2024

> <Institution>
Dana-Farber Cancer Institute

> <Link to Ligand in BindingDB>
http://www.bindingdb.org/bind/chemsearch/marvin/MolStructure.jsp?monomerid=50630780

> <Link to Ligand-Target Pair in BindingDB>
http://www.bindingdb.org/jsp/dbsearch/PrimarySearch_ki.jsp?energyterm=kJ/mole&tag=pol&polymerid=50007050&target=Protein+cereblon&column=ki&startPg=0&Increment=50&submit=Search

> <Link to Ligand-Target Pair in BindingDB>
http://www.bindingdb.org/jsp/dbsearch/PrimarySearch_ki.jsp?energyterm=kJ/mole&tag=r21&monomerid=50630780&enzyme=Protein+cereblon&column=ki&startPg=0&Increment=50&submit=Search

> <Ligand HET ID in PDB>


> <PDB ID(s) for Ligand-Target Complex>


> <PubChem CID of Ligand>
168190706

> <PubChem SID of Ligand>
505048751

> <ChEBI ID of Ligand>


> <ChEMBL ID of Ligand>


> <DrugBank ID of Ligand>


> <IUPHAR_GRAC ID of Ligand>


> <KEGG ID of Ligand>


> <ZINC ID of Ligand>


> <Number of Protein Chains in Target (bigger than 1 implies a multichain complex)>
1

> <BindingDB Target Chain Sequence>
MAGEGDQQDAAHNMGNHLPLLPAESEEEDEMEVEDQDSKEAKKPNIINFDTSLPTSHTYLGADMEEFHGRTLHDDDSCQVIPVLPQVMMILIPGQTLPLQLFHPQEVSMVRNLIQKDRTFAVLAYSNVQEREAQFGTTAEIYAYREEQDFGIEIVKVKAIGRQRFKVLELRTQSDGIQQAKVQILPECVLPSTMSAVQLESLNKCQIFPSKPVSREDQCSYKWWQKYQKRKFHCANLTSWPRWLYSLYDAETLMDRIKKQLREWDENLKDDSLPSNPIDFSYRVAACLPIDDVLRIQLLKIGSAIQRLRCELDIMNKCTSLCCKQCQETEITTKNEIFSLSLCGPMAAYVNPHGYVHETLTVYKACNLNLIGRPSTEHSWFPGYAWTVAQCKICASHIGWKFTATKKDMSPQKFWGLTRSALLPTIPDTEDEISPDKVILCL

> <PDB ID(s) of Target Chain>
8TNR,8TNQ,8TNP,8D81,8D80,8D7Z,8D7Y,8D7X,8D7W,8D7V,8D7U,8CVP,9DQD,8UH6,6BOY,6BNB,6BN9,6BN8,6BN7,6XK9,6UML,5V3O,5HXB,7U8F,8OJH,8OIZ,7LPS,4TZ4,9DJX,9DJT,8U17,8U16,8U15,8TZX,8DEY,9CUO,4M91

> <UniProt (SwissProt) Recommended Name of Target Chain>
Protein cereblon

> <UniProt (SwissProt) Entry Name of Target Chain>
CRBN_HUMAN

> <UniProt (SwissProt) Primary ID of Target Chain>
Q96SW2

> <UniProt (SwissProt) Secondary ID(s) of Target Chain>
B2R6H4 C9IZA9 C9JAH6 Q6AI62 Q6NVZ0 Q9UHW4

> <UniProt (SwissProt) Alternative ID(s) of Target Chain>


> <UniProt (TrEMBL) Submitted Name of Target Chain>


> <UniProt (TrEMBL) Entry Name of Target Chain>


> <UniProt (TrEMBL) Primary ID of Target Chain>


> <UniProt (TrEMBL) Secondary ID(s) of Target Chain>


> <UniProt (TrEMBL) Alternative ID(s) of Target Chain>


$$$$
00144001.cdx
  Mrv0541 11201412292D          

 32 36  0  0  0  0            999 V2000
   -2.0457   -1.0939    0.0000 C   0  0  0  0  0  0  0  0  0  0  0  0
   -2.0457   -1.9189    0.0000 C   0  0  0  0  0  0  0  0  0  0  0  0
   -1.3312   -2.3314    0.0000 C   0  0  0  0  0  0  0  0  0  0  0  0
   -0.6168   -1.9189    0.0000 C   0  0  0  0  0  0  0  0  0  0  0  0
   -0.6168   -1.0939    0.0000 C   0  0  0  0  0  0  0  0  0  0  0  0
   -1.3312   -0.6814    0.0000 C   0  0  0  0  0  0  0  0  0  0  0  0
    0.1679   -2.1738    0.0000 N   0  0  0  0  0  0  0  0  0  0  0  0
    0.6528   -1.5064    0.0000 C   0  0  0  0  0  0  0  0  0  0  0  0
   -2.7602   -2.3314    0.0000 Cl  0  0  0  0  0  0  0  0  0  0  0  0
    1.4778   -1.5064    0.0000 O   0  0  0  0  0  0  0  0  0  0  0  0
    0.9525    0.2410    0.0000 N   0  0  0  0  0  0  0  0  0  0  0  0
    0.1679    0.4960    0.0000 C   0  0  2  0  0  0  0  0  0  0  0  0
    0.1679   -0.8389    0.0000 C   0  0  2  0  0  0  0  0  0  0  0  0
   -0.9004    0.4119    0.0000 C   0  0  0  0  0  0  0  0  0  0  0  0
   -0.6869    1.2088    0.0000 C   0  0  0  0  0  0  0  0  0  0  0  0
   -1.2703    1.7921    0.0000 C   0  0  0  0  0  0  0  0  0  0  0  0
   -2.0671    1.5786    0.0000 C   0  0  0  0  0  0  0  0  0  0  0  0
   -2.2807    0.7817    0.0000 C   0  0  0  0  0  0  0  0  0  0  0  0
   -1.6973    0.1984    0.0000 C   0  0  0  0  0  0  0  0  0  0  0  0
   -3.0776    0.5682    0.0000 Cl  0  0  0  0  0  0  0  0  0  0  0  0
   -1.9108   -0.5985    0.0000 F   0  0  0  0  0  0  0  0  0  0  0  0
   -0.3171   -0.1715    0.0000 C   0  0  1  0  0  0  0  0  0  0  0  0
    1.5358   -0.0006    0.0000 C   0  0  0  0  0  0  0  0  0  0  0  0
    0.9525   -0.5840    0.0000 C   0  0  0  0  0  0  0  0  0  0  0  0
    1.7774   -0.5840    0.0000 C   0  0  0  0  0  0  0  0  0  0  0  0
    2.4941   -0.9926    0.0000 C   0  0  0  0  0  0  0  0  0  0  0  0
    3.0776   -0.4093    0.0000 C   0  0  0  0  0  0  0  0  0  0  0  0
    2.2526   -0.4093    0.0000 C   0  0  0  0  0  0  0  0  0  0  0  0
    0.1679    1.3210    0.0000 C   0  0  0  0  0  0  0  0  0  0  0  0
   -0.5466    1.7335    0.0000 O   0  0  0  0  0  0  0  0  0  0  0  0
    0.9648    1.5345    0.0000 N   0  0  0  0  0  0  0  0  0  0  0  0
    1.1783    2.3314    0.0000 C   0  0  0  0  0  0  0  0  0  0  0  0
  1  2  2  0  0  0  0
  2  3  1  0  0  0  0
  3  4  2  0  0  0  0
  4  5  1  0  0  0  0
  5  6  2  0  0  0  0
  6  1  1  0  0  0  0
  4  7  1  0  0  0  0
  7  8  1  0  0  0  0
 13  8  1  1  0  0  0
 13  5  1  0  0  0  0
  2  9  1  0  0  0  0
  8 10  2  0  0  0  0
 24 11  1  0  0  0  0
 12 11  1  0  0  0  0
 22 12  1  0  0  0  0
 13 22  1  0  0  0  0
 13 24  1  0  0  0  0
 14 15  2  0  0  0  0
 15 16  1  0  0  0  0
 16 17  2  0  0  0  0
 17 18  1  0  0  0  0
 18 19  2  0  0  0  0
 19 14  1  0  0  0  0
 18 20  1  0  0  0  0
 19 21  1  0  0  0  0
 22 14  1  1  0  0  0
 23 24  1  0  0  0  0
 24 25  1  0  0  0  0
 25 26  1  0  0  0  0
 26 27  1  0  0  0  0
 27 28  1  0  0  0  0
 28 23  1  0  0  0  0
 12 29  1  6  0  0  0
 29 30  2  0  0  0  0
 29 31  1  0  0  0  0
 31 32  1  0  0  0  0
M  END
> <From>
www.bindingDB.org

> <BindingDB Reactant_set_id>
51235038

> <Ligand InChI>
InChI=1S/C24H24Cl2FN3O2/c1-28-21(31)20-18(14-6-5-7-16(26)19(14)27)24(23(30-20)10-3-2-4-11-23)15-9-8-13(25)12-17(15)29-22(24)32/h5-9,12,18,20,30H,2-4,10-11H2,1H3,(H,28,31)(H,29,32)/t18-,20+,24+/m0/s1

> <Ligand InChI Key>
LHBZDASUSDFFIL-MFSJNOQSSA-N

> <BindingDB MonomerID>
112754

> <BindingDB Ligand Name>
US8629141, 21

> <Target Name>
Protein cereblon

> <Target Source Organism According to Curator or DataSource>
Human

> <Ki (nM)>


> <IC50 (nM)>
 1470

> <Kd (nM)>


> <EC50 (nM)>


> <kon (M-1-s-1)>


> <koff (s-1)>


> <pH>


> <Temp C>


> <Curation/DataSource>
ChEMBL

> <Article DOI>
10.1021/acs.jmedchem.9b00846

> <BindingDB Entry DOI>
10.7270/Q20C5026

> <PMID>
31560543

> <PubChem AID>


> <Patent Number>


> <Authors>
Yang, J; Li, Y; Aguilar, A; Liu, Z; Yang, CY; Wang, S

> <Date of publication>
11/14/2019

> <Date in BindingDB>
2/18/2021

> <Institution>
TBA

> <Link to Ligand in BindingDB>
http://www.bindingdb.org/bind/chemsearch/marvin/MolStructure.jsp?monomerid=112754

> <Link to Ligand-Target Pair in BindingDB>
http://www.bindingdb.org/jsp/dbsearch/PrimarySearch_ki.jsp?energyterm=kJ/mole&tag=pol&polymerid=50007050&target=Protein+cereblon&column=ki&startPg=0&Increment=50&submit=Search

> <Link to Ligand-Target Pair in BindingDB>
http://www.bindingdb.org/jsp/dbsearch/PrimarySearch_ki.jsp?energyterm=kJ/mole&tag=r21&monomerid=112754&enzyme=Protein+cereblon&column=ki&startPg=0&Increment=50&submit=Search

> <Ligand HET ID in PDB>


> <PDB ID(s) for Ligand-Target Complex>


> <PubChem CID of Ligand>
71020635

> <PubChem SID of Ligand>
194690495

> <ChEBI ID of Ligand>


> <ChEMBL ID of Ligand>


> <DrugBank ID of Ligand>


> <IUPHAR_GRAC ID of Ligand>


> <KEGG ID of Ligand>


> <ZINC ID of Ligand>


> <Number of Protein Chains in Target (bigger than 1 implies a multichain complex)>
1

> <BindingDB Target Chain Sequence>
MAGEGDQQDAAHNMGNHLPLLPAESEEEDEMEVEDQDSKEAKKPNIINFDTSLPTSHTYLGADMEEFHGRTLHDDDSCQVIPVLPQVMMILIPGQTLPLQLFHPQEVSMVRNLIQKDRTFAVLAYSNVQEREAQFGTTAEIYAYREEQDFGIEIVKVKAIGRQRFKVLELRTQSDGIQQAKVQILPECVLPSTMSAVQLESLNKCQIFPSKPVSREDQCSYKWWQKYQKRKFHCANLTSWPRWLYSLYDAETLMDRIKKQLREWDENLKDDSLPSNPIDFSYRVAACLPIDDVLRIQLLKIGSAIQRLRCELDIMNKCTSLCCKQCQETEITTKNEIFSLSLCGPMAAYVNPHGYVHETLTVYKACNLNLIGRPSTEHSWFPGYAWTVAQCKICASHIGWKFTATKKDMSPQKFWGLTRSALLPTIPDTEDEISPDKVILCL

> <PDB ID(s) of Target Chain>
4TZ4,5HXB,5V3O,6UML,6XK9,7LPS,7U8F,8CVP,8D7U,8D7V,8D7W,8D7X,8D7Y,8D7Z,8D80,8D81,8DEY,8OIZ,8OJH

> <UniProt (SwissProt) Recommended Name of Target Chain>
Protein cereblon

> <UniProt (SwissProt) Entry Name of Target Chain>
CRBN_HUMAN

> <UniProt (SwissProt) Primary ID of Target Chain>
Q96SW2

> <UniProt (SwissProt) Secondary ID(s) of Target Chain>
B2R6H4 C9IZA9 C9JAH6 Q6AI62 Q6NVZ0 Q9UHW4

> <UniProt (SwissProt) Alternative ID(s) of Target Chain>


> <UniProt (TrEMBL) Submitted Name of Target Chain>


> <UniProt (TrEMBL) Entry Name of Target Chain>


> <UniProt (TrEMBL) Primary ID of Target Chain>


> <UniProt (TrEMBL) Secondary ID(s) of Target Chain>


> <UniProt (TrEMBL) Alternative ID(s) of Target Chain>


$$$$
 
  Mrv0541 11231401562D          

 19 21  0  0  0  0            999 V2000
    0.8646  -22.9723    0.0000 C   0  0  0  0  0  0  0  0  0  0  0  0
    1.6916  -22.9723    0.0000 C   0  0  0  0  0  0  0  0  0  0  0  0
    2.1028  -22.2600    0.0000 C   0  0  0  0  0  0  0  0  0  0  0  0
    1.6916  -21.5432    0.0000 N   0  0  0  0  0  0  0  0  0  0  0  0
    0.8646  -21.5432    0.0000 C   0  0  0  0  0  0  0  0  0  0  0  0
    0.4488  -22.2600    0.0000 C   0  0  0  0  0  0  0  0  0  0  0  0
   -0.3797  -22.2649    0.0000 N   0  0  0  0  0  0  0  0  0  0  0  0
   -0.8667  -21.5966    0.0000 C   0  0  0  0  0  0  0  0  0  0  0  0
   -0.8649  -22.9346    0.0000 C   0  0  0  0  0  0  0  0  0  0  0  0
   -1.6518  -22.6803    0.0000 C   0  0  0  0  0  0  0  0  0  0  0  0
   -1.6493  -21.8553    0.0000 C   0  0  0  0  0  0  0  0  0  0  0  0
   -2.3613  -21.4425    0.0000 C   0  0  0  0  0  0  0  0  0  0  0  0
   -3.0763  -21.8535    0.0000 C   0  0  0  0  0  0  0  0  0  0  0  0
   -3.0748  -22.6816    0.0000 C   0  0  0  0  0  0  0  0  0  0  0  0
   -2.3622  -23.0907    0.0000 C   0  0  0  0  0  0  0  0  0  0  0  0
   -0.6138  -20.8092    0.0000 O   0  0  0  0  0  0  0  0  0  0  0  0
   -0.6082  -23.7207    0.0000 O   0  0  0  0  0  0  0  0  0  0  0  0
    0.4518  -20.8266    0.0000 O   0  0  0  0  0  0  0  0  0  0  0  0
    2.9298  -22.2612    0.0000 O   0  0  0  0  0  0  0  0  0  0  0  0
  9  7  1  0  0  0  0
  6  7  1  0  0  0  0
  2  3  1  0  0  0  0
  3  4  1  0  0  0  0
 10 11  2  0  0  0  0
  4  5  1  0  0  0  0
 11 12  1  0  0  0  0
  5  6  1  0  0  0  0
 12 13  2  0  0  0  0
  7  8  1  0  0  0  0
 13 14  1  0  0  0  0
 14 15  2  0  0  0  0
 15 10  1  0  0  0  0
  1  2  1  0  0  0  0
  8 16  2  0  0  0  0
  1  6  1  0  0  0  0
  9 17  2  0  0  0  0
  8 11  1  0  0  0  0
  5 18  2  0  0  0  0
 10  9  1  0  0  0  0
  3 19  2  0  0  0  0
M  END
> <From>
www.bindingDB.org

> <BindingDB Reactant_set_id>
51526238

> <Ligand InChI>
InChI=1S/C13H10N2O4/c16-10-6-5-9(11(17)14-10)15-12(18)7-3-1-2-4-8(7)13(15)19/h1-4,9H,5-6H2,(H,14,16,17)

> <Ligand InChI Key>
UEJJHQNACJXSKW-UHFFFAOYSA-N

> <BindingDB MonomerID>
50070114

> <BindingDB Ligand Name>
(+/-)-thalidomide::2-(2,6-Dioxo-piperidin-3-yl)-isoindole-1,3-dione::2-(2,6-dioxopiperidin-3-yl)isoindoline-1,3-dione::CHEMBL468::K-17::THALIDOMIDE::Thalomid::US11059801, Compound D-62::[(R,S)-2-(2,6-dioxo-3-piperidinyl)-1H-isoindole-1,3(2H)-dione

> <Target Name>
Protein cereblon

> <Target Source Organism According to Curator or DataSource>
Human

> <Ki (nM)>


> <IC50 (nM)>
 1490

> <Kd (nM)>


> <EC50 (nM)>


> <kon (M-1-s-1)>


> <koff (s-1)>


> <pH>


> <Temp C>


> <Curation/DataSource>
ChEMBL

> <Article DOI>


> <BindingDB Entry DOI>
10.7270/Q2V12923

> <PMID>
36970148

> <PubChem AID>


> <Patent Number>


> <Authors>
Nowak, RP; Che, J; Ferrao, S; Kong, NR; Liu, H; Zerfas, BL; Jones, LH

> <Date of publication>
3/22/2023

> <Date in BindingDB>
4/22/2024

> <Institution>
Dana-Farber Cancer Institute

> <Link to Ligand in BindingDB>
http://www.bindingdb.org/bind/chemsearch/marvin/MolStructure.jsp?monomerid=50070114

> <Link to Ligand-Target Pair in BindingDB>
http://www.bindingdb.org/jsp/dbsearch/PrimarySearch_ki.jsp?energyterm=kJ/mole&tag=pol&polymerid=50007050&target=Protein+cereblon&column=ki&startPg=0&Increment=50&submit=Search

> <Link to Ligand-Target Pair in BindingDB>
http://www.bindingdb.org/jsp/dbsearch/PrimarySearch_ki.jsp?energyterm=kJ/mole&tag=r21&monomerid=50070114&enzyme=Protein+cereblon&column=ki&startPg=0&Increment=50&submit=Search

> <Ligand HET ID in PDB>
EF2

> <PDB ID(s) for Ligand-Target Complex>
4CI1,8BC7,5AMI,5AMH,7BQU,5YIZ,7PSO,4V32,4V2Y,5OH1,5AMK,5AMJ,6R13,6R12,6R19,6R18,6R1C,6R1A,6R1W,6R0U,6R0S,5YJ0,4TZC,8OU3

> <PubChem CID of Ligand>
5426

> <PubChem SID of Ligand>
103964042

> <ChEBI ID of Ligand>
74947

> <ChEMBL ID of Ligand>
CHEMBL468

> <DrugBank ID of Ligand>
DB01041

> <IUPHAR_GRAC ID of Ligand>
7327

> <KEGG ID of Ligand>
C07910

> <ZINC ID of Ligand>
ZINC01530948

> <Number of Protein Chains in Target (bigger than 1 implies a multichain complex)>
1

> <BindingDB Target Chain Sequence>
MAGEGDQQDAAHNMGNHLPLLPAESEEEDEMEVEDQDSKEAKKPNIINFDTSLPTSHTYLGADMEEFHGRTLHDDDSCQVIPVLPQVMMILIPGQTLPLQLFHPQEVSMVRNLIQKDRTFAVLAYSNVQEREAQFGTTAEIYAYREEQDFGIEIVKVKAIGRQRFKVLELRTQSDGIQQAKVQILPECVLPSTMSAVQLESLNKCQIFPSKPVSREDQCSYKWWQKYQKRKFHCANLTSWPRWLYSLYDAETLMDRIKKQLREWDENLKDDSLPSNPIDFSYRVAACLPIDDVLRIQLLKIGSAIQRLRCELDIMNKCTSLCCKQCQETEITTKNEIFSLSLCGPMAAYVNPHGYVHETLTVYKACNLNLIGRPSTEHSWFPGYAWTVAQCKICASHIGWKFTATKKDMSPQKFWGLTRSALLPTIPDTEDEISPDKVILCL

> <PDB ID(s) of Target Chain>
4TZ4,5HXB,5V3O,6UML,6XK9,7LPS,7U8F,8CVP,8D7U,8D7V,8D7W,8D7X,8D7Y,8D7Z,8D80,8D81,8DEY,8OIZ,8OJH,8U15,8U16,8U17

> <UniProt (SwissProt) Recommended Name of Target Chain>
Protein cereblon

> <UniProt (SwissProt) Entry Name of Target Chain>
CRBN_HUMAN

> <UniProt (SwissProt) Primary ID of Target Chain>
Q96SW2

> <UniProt (SwissProt) Secondary ID(s) of Target Chain>
B2R6H4 C9IZA9 C9JAH6 Q6AI62 Q6NVZ0 Q9UHW4

> <UniProt (SwissProt) Alternative ID(s) of Target Chain>


> <UniProt (TrEMBL) Submitted Name of Target Chain>


> <UniProt (TrEMBL) Entry Name of Target Chain>


> <UniProt (TrEMBL) Primary ID of Target Chain>


> <UniProt (TrEMBL) Secondary ID(s) of Target Chain>


> <UniProt (TrEMBL) Alternative ID(s) of Target Chain>


$$$$
 
     RDKit          2D

 48 53  0  0  0  0  0  0  0  0999 V2000
   15.2941  -24.5735    0.0000 C   0  0  0  0  0  0  0  0  0  0  0  0
   15.2929  -25.3930    0.0000 C   0  0  0  0  0  0  0  0  0  0  0  0
   16.0010  -25.8020    0.0000 C   0  0  0  0  0  0  0  0  0  0  0  0
   15.9992  -24.1646    0.0000 C   0  0  0  0  0  0  0  0  0  0  0  0
   16.7078  -24.5699    0.0000 C   0  0  0  0  0  0  0  0  0  0  0  0
   16.7126  -25.3885    0.0000 C   0  0  0  0  0  0  0  0  0  0  0  0
   17.4926  -25.6369    0.0000 C   0  0  0  0  0  0  0  0  0  0  0  0
   17.9700  -24.9718    0.0000 N   0  0  0  0  0  0  0  0  0  0  0  0
   17.4849  -24.3124    0.0000 C   0  0  0  0  0  0  0  0  0  0  0  0
   18.7864  -24.9657    0.0000 C   0  0  0  0  0  0  0  0  0  0  0  0
   19.1979  -25.6728    0.0000 C   0  0  0  0  0  0  0  0  0  0  0  0
   20.0115  -25.6700    0.0000 N   0  0  0  0  0  0  0  0  0  0  0  0
   20.4198  -24.9617    0.0000 C   0  0  0  0  0  0  0  0  0  0  0  0
   20.0083  -24.2546    0.0000 C   0  0  0  0  0  0  0  0  0  0  0  0
   19.1885  -24.2558    0.0000 C   0  0  0  0  0  0  0  0  0  0  0  0
   15.9968  -23.3474    0.0000 N   0  0  0  0  0  0  0  0  0  0  0  0
   15.2878  -22.9410    0.0000 C   0  0  0  0  0  0  0  0  0  0  0  0
   15.2854  -22.1238    0.0000 C   0  0  0  0  0  0  0  0  0  0  0  0
   14.5765  -21.7173    0.0000 C   0  0  0  0  0  0  0  0  0  0  0  0
   14.5740  -20.9001    0.0000 C   0  0  0  0  0  0  0  0  0  0  0  0
   13.8651  -20.4936    0.0000 N   0  0  0  0  0  0  0  0  0  0  0  0
   13.8627  -19.6764    0.0000 C   0  0  0  0  0  0  0  0  0  0  0  0
   13.1537  -19.2699    0.0000 O   0  0  0  0  0  0  0  0  0  0  0  0
   14.5692  -19.2657    0.0000 C   0  0  0  0  0  0  0  0  0  0  0  0
   15.2781  -19.6722    0.0000 C   0  0  0  0  0  0  0  0  0  0  0  0
   14.5667  -18.4485    0.0000 N   0  0  0  0  0  0  0  0  0  0  0  0
   15.2732  -18.0378    0.0000 N   0  0  0  0  0  0  0  0  0  0  0  0
   15.2708  -17.2206    0.0000 C   0  0  0  0  0  0  0  0  0  0  0  0
   15.9292  -16.7367    0.0000 N   0  0  0  0  0  0  0  0  0  0  0  0
   15.6744  -15.9603    0.0000 C   0  0  0  0  0  0  0  0  0  0  0  0
   14.8571  -15.9627    0.0000 C   0  0  0  0  0  0  0  0  0  0  0  0
   14.6070  -16.7407    0.0000 S   0  0  0  0  0  0  0  0  0  0  0  0
   16.1504  -15.2977    0.0000 C   0  0  0  0  0  0  0  0  0  0  0  0
   16.9644  -15.3821    0.0000 C   0  0  0  0  0  0  0  0  0  0  0  0
   17.4426  -14.7204    0.0000 C   0  0  0  0  0  0  0  0  0  0  0  0
   17.1080  -13.9738    0.0000 C   0  0  0  0  0  0  0  0  0  0  0  0
   16.2906  -13.8930    0.0000 C   0  0  0  0  0  0  0  0  0  0  0  0
   15.8160  -14.5557    0.0000 C   0  0  0  0  0  0  0  0  0  0  0  0
   17.5850  -13.3114    0.0000 C   0  0  0  0  0  0  0  0  0  0  0  0
   18.3991  -13.3947    0.0000 C   0  0  0  0  0  0  0  0  0  0  0  0
   18.8764  -12.7324    0.0000 C   0  0  0  0  0  0  0  0  0  0  0  0
   18.5408  -11.9863    0.0000 C   0  0  0  0  0  0  0  0  0  0  0  0
   17.7233  -11.9066    0.0000 C   0  0  0  0  0  0  0  0  0  0  0  0
   17.2496  -12.5699    0.0000 C   0  0  0  0  0  0  0  0  0  0  0  0
   18.7918  -26.3819    0.0000 O   0  0  0  0  0  0  0  0  0  0  0  0
   21.2370  -24.9599    0.0000 O   0  0  0  0  0  0  0  0  0  0  0  0
   17.7497  -26.4127    0.0000 O   0  0  0  0  0  0  0  0  0  0  0  0
   17.7329  -23.5338    0.0000 O   0  0  0  0  0  0  0  0  0  0  0  0
  1  2  2  0
  2  3  1  0
  3  6  2  0
  5  4  2  0
  4  1  1  0
  5  6  1  0
  6  7  1  0
  7  8  1  0
  8  9  1  0
  9  5  1  0
 10 11  1  0
 10 15  1  0
 11 12  1  0
 12 13  1  0
 13 14  1  0
 14 15  1  0
  8 10  1  0
  4 16  1  0
 16 17  1  0
 17 18  1  0
 18 19  1  0
 19 20  1  0
 20 21  1  0
 21 22  1  0
 22 23  2  0
 22 24  1  0
 24 25  1  0
 24 26  2  0
 26 27  1  0
 27 28  1  0
 28 29  2  0
 29 30  1  0
 30 31  2  0
 31 32  1  0
 32 28  1  0
 33 34  2  0
 34 35  1  0
 35 36  2  0
 36 37  1  0
 37 38  2  0
 38 33  1  0
 30 33  1  0
 39 40  2  0
 40 41  1  0
 41 42  2  0
 42 43  1  0
 43 44  2  0
 44 39  1  0
 36 39  1  0
 11 45  2  0
 13 46  2  0
  7 47  2  0
  9 48  2  0
M  END
> <From>
www.bindingDB.org

> <BindingDB Reactant_set_id>
51413241

> <Ligand InChI>
InChI=1S/C35H33N7O5S/c1-21(40-41-35-38-27(20-48-35)24-14-12-23(13-15-24)22-8-3-2-4-9-22)31(44)37-19-6-5-18-36-26-11-7-10-25-30(26)34(47)42(33(25)46)28-16-17-29(43)39-32(28)45/h2-4,7-15,20,28,36H,5-6,16-19H2,1H3,(H,37,44)(H,38,41)(H,39,43,45)/b40-21+

> <Ligand InChI Key>
NGIBNEVPRVRVCR-VQWGYEAZSA-N

> <BindingDB MonomerID>
50570884

> <BindingDB Ligand Name>
CHEMBL4860669

> <Target Name>
Protein cereblon

> <Target Source Organism According to Curator or DataSource>
Human

> <Ki (nM)>


> <IC50 (nM)>
 1600

> <Kd (nM)>


> <EC50 (nM)>


> <kon (M-1-s-1)>


> <koff (s-1)>


> <pH>


> <Temp C>


> <Curation/DataSource>
ChEMBL

> <Article DOI>
10.1016/j.ejmech.2021.113435

> <BindingDB Entry DOI>
10.7270/Q2QV3R91

> <PMID>
33892272

> <PubChem AID>


> <Patent Number>


> <Authors>
Fischer, PD; Papadopoulos, E; Dempersmier, JM; Wang, ZF; Nowak, RP; Donovan, KA; Kalabathula, J; Gorgulla, C; Junghanns, PPM; Kabha, E; Dimitrakakis, N; Petrov, OI; Mitsiades, C; Ducho, C; Gelev, V; Fischer, ES; Wagner, G; Arthanari, H

> <Date of publication>
7/5/2021

> <Date in BindingDB>
8/20/2022

> <Institution>
Dana-Farber Cancer Institute

> <Link to Ligand in BindingDB>
http://www.bindingdb.org/bind/chemsearch/marvin/MolStructure.jsp?monomerid=50570884

> <Link to Ligand-Target Pair in BindingDB>
http://www.bindingdb.org/jsp/dbsearch/PrimarySearch_ki.jsp?energyterm=kJ/mole&tag=pol&polymerid=50007050&target=Protein+cereblon&column=ki&startPg=0&Increment=50&submit=Search

> <Link to Ligand-Target Pair in BindingDB>
http://www.bindingdb.org/jsp/dbsearch/PrimarySearch_ki.jsp?energyterm=kJ/mole&tag=r21&monomerid=50570884&enzyme=Protein+cereblon&column=ki&startPg=0&Increment=50&submit=Search

> <Ligand HET ID in PDB>


> <PDB ID(s) for Ligand-Target Complex>


> <PubChem CID of Ligand>
164614329

> <PubChem SID of Ligand>
471061029

> <ChEBI ID of Ligand>


> <ChEMBL ID of Ligand>


> <DrugBank ID of Ligand>


> <IUPHAR_GRAC ID of Ligand>


> <KEGG ID of Ligand>


> <ZINC ID of Ligand>


> <Number of Protein Chains in Target (bigger than 1 implies a multichain complex)>
1

> <BindingDB Target Chain Sequence>
MAGEGDQQDAAHNMGNHLPLLPAESEEEDEMEVEDQDSKEAKKPNIINFDTSLPTSHTYLGADMEEFHGRTLHDDDSCQVIPVLPQVMMILIPGQTLPLQLFHPQEVSMVRNLIQKDRTFAVLAYSNVQEREAQFGTTAEIYAYREEQDFGIEIVKVKAIGRQRFKVLELRTQSDGIQQAKVQILPECVLPSTMSAVQLESLNKCQIFPSKPVSREDQCSYKWWQKYQKRKFHCANLTSWPRWLYSLYDAETLMDRIKKQLREWDENLKDDSLPSNPIDFSYRVAACLPIDDVLRIQLLKIGSAIQRLRCELDIMNKCTSLCCKQCQETEITTKNEIFSLSLCGPMAAYVNPHGYVHETLTVYKACNLNLIGRPSTEHSWFPGYAWTVAQCKICASHIGWKFTATKKDMSPQKFWGLTRSALLPTIPDTEDEISPDKVILCL

> <PDB ID(s) of Target Chain>
4TZ4,5HXB,5V3O,6UML,6XK9,7LPS,7U8F,8CVP,8D7U,8D7V,8D7W,8D7X,8D7Y,8D7Z,8D80,8D81,8DEY,8OIZ,8OJH

> <UniProt (SwissProt) Recommended Name of Target Chain>
Protein cereblon

> <UniProt (SwissProt) Entry Name of Target Chain>
CRBN_HUMAN

> <UniProt (SwissProt) Primary ID of Target Chain>
Q96SW2

> <UniProt (SwissProt) Secondary ID(s) of Target Chain>
B2R6H4 C9IZA9 C9JAH6 Q6AI62 Q6NVZ0 Q9UHW4

> <UniProt (SwissProt) Alternative ID(s) of Target Chain>


> <UniProt (TrEMBL) Submitted Name of Target Chain>


> <UniProt (TrEMBL) Entry Name of Target Chain>


> <UniProt (TrEMBL) Primary ID of Target Chain>


> <UniProt (TrEMBL) Secondary ID(s) of Target Chain>


> <UniProt (TrEMBL) Alternative ID(s) of Target Chain>


$$$$
 
     RDKit          2D

 27 30  0  0  0  0  0  0  0  0999 V2000
   -1.2197    0.3565    0.0000 C   0  0  0  0  0  0  0  0  0  0  0  0
   -0.5052    0.7691    0.0000 C   0  0  0  0  0  0  0  0  0  0  0  0
    0.2092    0.3565    0.0000 C   0  0  0  0  0  0  0  0  0  0  0  0
    0.2092   -0.4684    0.0000 C   0  0  0  0  0  0  0  0  0  0  0  0
   -0.5052   -0.8809    0.0000 C   0  0  0  0  0  0  0  0  0  0  0  0
   -1.2197   -0.4684    0.0000 C   0  0  0  0  0  0  0  0  0  0  0  0
    0.9938   -0.7233    0.0000 C   0  0  0  0  0  0  0  0  0  0  0  0
    1.4787   -0.0559    0.0000 N   0  0  0  0  0  0  0  0  0  0  0  0
    0.9938    0.6115    0.0000 C   0  0  0  0  0  0  0  0  0  0  0  0
    1.2072    1.4081    0.0000 O   0  0  0  0  0  0  0  0  0  0  0  0
    2.3034   -0.0559    0.0000 C   0  0  0  0  0  0  0  0  0  0  0  0
    2.7158    0.6582    0.0000 C   0  0  0  0  0  0  0  0  0  0  0  0
    3.5405    0.6582    0.0000 C   0  0  0  0  0  0  0  0  0  0  0  0
    3.9529   -0.0560    0.0000 C   0  0  0  0  0  0  0  0  0  0  0  0
    3.5406   -0.7702    0.0000 N   0  0  0  0  0  0  0  0  0  0  0  0
    2.7158   -0.7702    0.0000 C   0  0  0  0  0  0  0  0  0  0  0  0
    2.3034   -1.4845    0.0000 O   0  0  0  0  0  0  0  0  0  0  0  0
    4.7776   -0.0560    0.0000 O   0  0  0  0  0  0  0  0  0  0  0  0
   -1.9339    0.7689    0.0000 S   0  0  0  0  0  0  0  0  0  0  0  0
   -2.6482    0.3565    0.0000 N   0  0  0  0  0  0  0  0  0  0  0  0
   -1.5208    1.4845    0.0000 O   0  0  0  0  0  0  0  0  0  0  0  0
   -2.3455    1.4845    0.0000 O   0  0  0  0  0  0  0  0  0  0  0  0
   -2.7343   -0.4632    0.0000 C   0  0  0  0  0  0  0  0  0  0  0  0
   -3.5407   -0.6346    0.0000 C   0  0  0  0  0  0  0  0  0  0  0  0
   -3.9529    0.0792    0.0000 C   0  0  0  0  0  0  0  0  0  0  0  0
   -3.4012    0.6918    0.0000 N   0  0  0  0  0  0  0  0  0  0  0  0
   -4.7776    0.0792    0.0000 F   0  0  0  0  0  0  0  0  0  0  0  0
  1  2  1  0
  3  2  2  0
  4  3  1  0
  5  4  2  0
  6  5  1  0
  1  6  2  0
  4  7  1  0
  8  7  1  0
  9  8  1  0
  3  9  1  0
  9 10  2  0
  8 11  1  0
 12 11  1  0
 13 12  1  0
 14 13  1  0
 15 14  1  0
 16 15  1  0
 11 16  1  0
 16 17  2  0
 14 18  2  0
  1 19  1  0
 19 20  1  0
 19 21  2  0
 19 22  2  0
 23 20  1  0
 23 24  2  0
 24 25  1  0
 25 26  2  0
 26 20  1  0
 25 27  1  0
M  END
> <From>
www.bindingDB.org

> <BindingDB Reactant_set_id>
51568403

> <Ligand InChI>
InChI=1S/C16H13FN4O5S/c17-13-5-6-21(19-13)27(25,26)10-2-1-9-8-20(16(24)11(9)7-10)12-3-4-14(22)18-15(12)23/h1-2,5-7,12H,3-4,8H2,(H,18,22,23)

> <Ligand InChI Key>
IUXYXXBAHQMFKK-UHFFFAOYSA-N

> <BindingDB MonomerID>
50630776

> <BindingDB Ligand Name>
CHEMBL5413999

> <Target Name>
Protein cereblon

> <Target Source Organism According to Curator or DataSource>
Homo sapiens

> <Ki (nM)>


> <IC50 (nM)>
 1629

> <Kd (nM)>


> <EC50 (nM)>


> <kon (M-1-s-1)>


> <koff (s-1)>


> <pH>


> <Temp C>


> <Curation/DataSource>
ChEMBL

> <Article DOI>
10.1021/acsmedchemlett.3c00371

> <BindingDB Entry DOI>
10.7270/Q28D01RH

> <PMID>
37974938

> <PubChem AID>


> <Patent Number>


> <Authors>
Cruite, JT; Nowak, RP; Donovan, KA; Ficarro, SB; Huang, H; Liu, H; Liu, Y; Marto, JA; Metivier, RJ; Fischer, ES; Jones, LH

> <Date of publication>
11/9/2023

> <Date in BindingDB>
12/20/2024

> <Institution>
Dana-Farber Cancer Institute

> <Link to Ligand in BindingDB>
http://www.bindingdb.org/bind/chemsearch/marvin/MolStructure.jsp?monomerid=50630776

> <Link to Ligand-Target Pair in BindingDB>
http://www.bindingdb.org/jsp/dbsearch/PrimarySearch_ki.jsp?energyterm=kJ/mole&tag=pol&polymerid=50007050&target=Protein+cereblon&column=ki&startPg=0&Increment=50&submit=Search

> <Link to Ligand-Target Pair in BindingDB>
http://www.bindingdb.org/jsp/dbsearch/PrimarySearch_ki.jsp?energyterm=kJ/mole&tag=r21&monomerid=50630776&enzyme=Protein+cereblon&column=ki&startPg=0&Increment=50&submit=Search

> <Ligand HET ID in PDB>


> <PDB ID(s) for Ligand-Target Complex>


> <PubChem CID of Ligand>
168190701

> <PubChem SID of Ligand>
505048747

> <ChEBI ID of Ligand>


> <ChEMBL ID of Ligand>


> <DrugBank ID of Ligand>


> <IUPHAR_GRAC ID of Ligand>


> <KEGG ID of Ligand>


> <ZINC ID of Ligand>


> <Number of Protein Chains in Target (bigger than 1 implies a multichain complex)>
1

> <BindingDB Target Chain Sequence>
MAGEGDQQDAAHNMGNHLPLLPAESEEEDEMEVEDQDSKEAKKPNIINFDTSLPTSHTYLGADMEEFHGRTLHDDDSCQVIPVLPQVMMILIPGQTLPLQLFHPQEVSMVRNLIQKDRTFAVLAYSNVQEREAQFGTTAEIYAYREEQDFGIEIVKVKAIGRQRFKVLELRTQSDGIQQAKVQILPECVLPSTMSAVQLESLNKCQIFPSKPVSREDQCSYKWWQKYQKRKFHCANLTSWPRWLYSLYDAETLMDRIKKQLREWDENLKDDSLPSNPIDFSYRVAACLPIDDVLRIQLLKIGSAIQRLRCELDIMNKCTSLCCKQCQETEITTKNEIFSLSLCGPMAAYVNPHGYVHETLTVYKACNLNLIGRPSTEHSWFPGYAWTVAQCKICASHIGWKFTATKKDMSPQKFWGLTRSALLPTIPDTEDEISPDKVILCL

> <PDB ID(s) of Target Chain>
8TNR,8TNQ,8TNP,8D81,8D80,8D7Z,8D7Y,8D7X,8D7W,8D7V,8D7U,8CVP,9DQD,8UH6,6BOY,6BNB,6BN9,6BN8,6BN7,6XK9,6UML,5V3O,5HXB,7U8F,8OJH,8OIZ,7LPS,4TZ4,9DJX,9DJT,8U17,8U16,8U15,8TZX,8DEY,9CUO,4M91

> <UniProt (SwissProt) Recommended Name of Target Chain>
Protein cereblon

> <UniProt (SwissProt) Entry Name of Target Chain>
CRBN_HUMAN

> <UniProt (SwissProt) Primary ID of Target Chain>
Q96SW2

> <UniProt (SwissProt) Secondary ID(s) of Target Chain>
B2R6H4 C9IZA9 C9JAH6 Q6AI62 Q6NVZ0 Q9UHW4

> <UniProt (SwissProt) Alternative ID(s) of Target Chain>


> <UniProt (TrEMBL) Submitted Name of Target Chain>


> <UniProt (TrEMBL) Entry Name of Target Chain>


> <UniProt (TrEMBL) Primary ID of Target Chain>


> <UniProt (TrEMBL) Secondary ID(s) of Target Chain>


> <UniProt (TrEMBL) Alternative ID(s) of Target Chain>


$$$$
216326
  Mrv0541 01031813182D          

 19 21  0  0  1  0            999 V2000
    4.1147   -1.6769    0.0000 O   0  0  0  0  0  0  0  0  0  0  0  0
    5.1652    1.2004    0.0000 O   0  0  0  0  0  0  0  0  0  0  0  0
    7.6402   -0.2289    0.0000 O   0  0  0  0  0  0  0  0  0  0  0  0
    4.3402   -0.2289    0.0000 N   0  0  0  0  0  0  0  0  0  0  0  0
    6.4025    0.4857    0.0000 N   0  0  0  0  0  0  0  0  0  0  0  0
    2.3633    1.4212    0.0000 N   0  0  0  0  0  0  0  0  0  0  0  0
    5.1652   -0.2289    0.0000 C   0  0  0  0  0  0  0  0  0  0  0  0
    5.5775   -0.9433    0.0000 C   0  0  0  0  0  0  0  0  0  0  0  0
    3.8585    0.4351    0.0000 C   0  0  0  0  0  0  0  0  0  0  0  0
    3.0778    0.1836    0.0000 C   0  0  0  0  0  0  0  0  0  0  0  0
    3.8585   -0.8928    0.0000 C   0  0  0  0  0  0  0  0  0  0  0  0
    6.4025   -0.9433    0.0000 C   0  0  0  0  0  0  0  0  0  0  0  0
    3.0778   -0.6414    0.0000 C   0  0  0  0  0  0  0  0  0  0  0  0
    5.5775    0.4857    0.0000 C   0  0  0  0  0  0  0  0  0  0  0  0
    6.8152   -0.2289    0.0000 C   0  0  0  0  0  0  0  0  0  0  0  0
    2.3633    0.5962    0.0000 C   0  0  0  0  0  0  0  0  0  0  0  0
    2.3633   -1.0539    0.0000 C   0  0  0  0  0  0  0  0  0  0  0  0
    1.6488    0.1836    0.0000 C   0  0  0  0  0  0  0  0  0  0  0  0
    1.6488   -0.6414    0.0000 C   0  0  0  0  0  0  0  0  0  0  0  0
  1 11  2  0  0  0  0
  2 14  2  0  0  0  0
  3 15  2  0  0  0  0
  4  7  1  0  0  0  0
  4  9  1  0  0  0  0
  4 11  1  0  0  0  0
  5 14  1  0  0  0  0
  5 15  1  0  0  0  0
  6 16  1  0  0  0  0
  7  8  1  0  0  0  0
  7 14  1  0  0  0  0
  8 12  1  0  0  0  0
  9 10  1  0  0  0  0
 10 13  4  0  0  0  0
 10 16  4  0  0  0  0
 11 13  1  0  0  0  0
 12 15  1  0  0  0  0
 13 17  4  0  0  0  0
 16 18  4  0  0  0  0
 17 19  4  0  0  0  0
 18 19  4  0  0  0  0
M  END
> <From>
www.bindingDB.org

> <BindingDB Reactant_set_id>
455055

> <Ligand InChI>
InChI=1S/C13H13N3O3/c14-9-3-1-2-7-8(9)6-16(13(7)19)10-4-5-11(17)15-12(10)18/h1-3,10H,4-6,14H2,(H,15,17,18)

> <Ligand InChI Key>
GOTYRUGSSMKFNF-UHFFFAOYSA-N

> <BindingDB MonomerID>
65454

> <BindingDB Ligand Name>
191732-72-6::CC-5013::Lenalidomide::Revimid::Revlimid::US11530219, Compound Lenalidomide::US9694015, 6.1

> <Target Name>
Protein cereblon

> <Target Source Organism According to Curator or DataSource>
Human

> <Ki (nM)>


> <IC50 (nM)>
 2000

> <Kd (nM)>


> <EC50 (nM)>


> <kon (M-1-s-1)>


> <koff (s-1)>


> <pH>


> <Temp C>


> <Curation/DataSource>
Curated from the literature by BindingDB

> <Article DOI>
10.1038/leu.2012.119

> <BindingDB Entry DOI>
10.7270/Q26971RH

> <PMID>
22552008

> <PubChem AID>
aid1794853

> <Patent Number>


> <Authors>
Lopez-Girona, A; Mendy, D; Ito, T; Miller, K; Gandhi, AK; Kang, J; Karasawa, S; Carmel, G; Jackson, P; Abbasian, M; Mahmoudi, A; Cathers, B; Rychak, E; Gaidarova, S; Chen, R; Schafer, PH; Handa, H; Daniel, TO; Evans, JF; Chopra, R

> <Date of publication>
11/28/2012

> <Date in BindingDB>
1/3/2018

> <Institution>
Celgene

> <Link to Ligand in BindingDB>
http://www.bindingdb.org/bind/chemsearch/marvin/MolStructure.jsp?monomerid=65454

> <Link to Ligand-Target Pair in BindingDB>
http://www.bindingdb.org/jsp/dbsearch/PrimarySearch_ki.jsp?energyterm=kJ/mole&tag=pol&polymerid=50007050&target=Protein+cereblon&column=ki&startPg=0&Increment=50&submit=Search

> <Link to Ligand-Target Pair in BindingDB>
http://www.bindingdb.org/jsp/dbsearch/PrimarySearch_ki.jsp?energyterm=kJ/mole&tag=r21&monomerid=65454&enzyme=Protein+cereblon&column=ki&startPg=0&Increment=50&submit=Search

> <Ligand HET ID in PDB>
LVY

> <PDB ID(s) for Ligand-Target Complex>
4CI2,5FQD,4V30,4TZ4

> <PubChem CID of Ligand>
216326

> <PubChem SID of Ligand>
350083085

> <ChEBI ID of Ligand>


> <ChEMBL ID of Ligand>


> <DrugBank ID of Ligand>
DB00480

> <IUPHAR_GRAC ID of Ligand>


> <KEGG ID of Ligand>


> <ZINC ID of Ligand>
ZINC02508407

> <Number of Protein Chains in Target (bigger than 1 implies a multichain complex)>
1

> <BindingDB Target Chain Sequence>
MAGEGDQQDAAHNMGNHLPLLPAESEEEDEMEVEDQDSKEAKKPNIINFDTSLPTSHTYLGADMEEFHGRTLHDDDSCQVIPVLPQVMMILIPGQTLPLQLFHPQEVSMVRNLIQKDRTFAVLAYSNVQEREAQFGTTAEIYAYREEQDFGIEIVKVKAIGRQRFKVLELRTQSDGIQQAKVQILPECVLPSTMSAVQLESLNKCQIFPSKPVSREDQCSYKWWQKYQKRKFHCANLTSWPRWLYSLYDAETLMDRIKKQLREWDENLKDDSLPSNPIDFSYRVAACLPIDDVLRIQLLKIGSAIQRLRCELDIMNKCTSLCCKQCQETEITTKNEIFSLSLCGPMAAYVNPHGYVHETLTVYKACNLNLIGRPSTEHSWFPGYAWTVAQCKICASHIGWKFTATKKDMSPQKFWGLTRSALLPTIPDTEDEISPDKVILCL

> <PDB ID(s) of Target Chain>
4TZ4,5HXB,5V3O,6UML,6XK9,7LPS,7U8F,8CVP,8D7U,8D7V,8D7W,8D7X,8D7Y,8D7Z,8D80,8D81,8DEY,8OIZ,8OJH

> <UniProt (SwissProt) Recommended Name of Target Chain>
Protein cereblon

> <UniProt (SwissProt) Entry Name of Target Chain>
CRBN_HUMAN

> <UniProt (SwissProt) Primary ID of Target Chain>
Q96SW2

> <UniProt (SwissProt) Secondary ID(s) of Target Chain>
B2R6H4 C9IZA9 C9JAH6 Q6AI62 Q6NVZ0 Q9UHW4

> <UniProt (SwissProt) Alternative ID(s) of Target Chain>


> <UniProt (TrEMBL) Submitted Name of Target Chain>


> <UniProt (TrEMBL) Entry Name of Target Chain>


> <UniProt (TrEMBL) Primary ID of Target Chain>


> <UniProt (TrEMBL) Secondary ID(s) of Target Chain>


> <UniProt (TrEMBL) Alternative ID(s) of Target Chain>


$$$$
134780
  Mrv0541 01031813182D          

 20 22  0  0  1  0            999 V2000
    5.1662   -1.6578    0.0000 O   0  0  0  0  0  0  0  0  0  0  0  0
    4.1159    1.2193    0.0000 O   0  0  0  0  0  0  0  0  0  0  0  0
    4.1159   -1.6769    0.0000 O   0  0  0  0  0  0  0  0  0  0  0  0
    7.6412   -0.2289    0.0000 O   0  0  0  0  0  0  0  0  0  0  0  0
    4.3412   -0.2289    0.0000 N   0  0  0  0  0  0  0  0  0  0  0  0
    6.4037   -0.9433    0.0000 N   0  0  0  0  0  0  0  0  0  0  0  0
    2.3645    1.4212    0.0000 N   0  0  0  0  0  0  0  0  0  0  0  0
    5.1662   -0.2289    0.0000 C   0  0  0  0  0  0  0  0  0  0  0  0
    5.5787    0.4857    0.0000 C   0  0  0  0  0  0  0  0  0  0  0  0
    6.4037    0.4857    0.0000 C   0  0  0  0  0  0  0  0  0  0  0  0
    5.5787   -0.9433    0.0000 C   0  0  0  0  0  0  0  0  0  0  0  0
    3.8597    0.4351    0.0000 C   0  0  0  0  0  0  0  0  0  0  0  0
    3.8597   -0.8928    0.0000 C   0  0  0  0  0  0  0  0  0  0  0  0
    3.0790    0.1836    0.0000 C   0  0  0  0  0  0  0  0  0  0  0  0
    3.0790   -0.6414    0.0000 C   0  0  0  0  0  0  0  0  0  0  0  0
    6.8162   -0.2289    0.0000 C   0  0  0  0  0  0  0  0  0  0  0  0
    2.3645    0.5962    0.0000 C   0  0  0  0  0  0  0  0  0  0  0  0
    2.3645   -1.0539    0.0000 C   0  0  0  0  0  0  0  0  0  0  0  0
    1.6500    0.1836    0.0000 C   0  0  0  0  0  0  0  0  0  0  0  0
    1.6500   -0.6414    0.0000 C   0  0  0  0  0  0  0  0  0  0  0  0
  1 11  2  0  0  0  0
  2 12  2  0  0  0  0
  3 13  2  0  0  0  0
  4 16  2  0  0  0  0
  5  8  1  0  0  0  0
  5 12  1  0  0  0  0
  5 13  1  0  0  0  0
  6 11  1  0  0  0  0
  6 16  1  0  0  0  0
  7 17  1  0  0  0  0
  8  9  1  0  0  0  0
  8 11  1  0  0  0  0
  9 10  1  0  0  0  0
 10 16  1  0  0  0  0
 12 14  1  0  0  0  0
 13 15  1  0  0  0  0
 14 15  4  0  0  0  0
 14 17  4  0  0  0  0
 15 18  4  0  0  0  0
 17 19  4  0  0  0  0
 18 20  4  0  0  0  0
 19 20  4  0  0  0  0
M  END
> <From>
www.bindingDB.org

> <BindingDB Reactant_set_id>
455056

> <Ligand InChI>
InChI=1S/C13H11N3O4/c14-7-3-1-2-6-10(7)13(20)16(12(6)19)8-4-5-9(17)15-11(8)18/h1-3,8H,4-5,14H2,(H,15,17,18)

> <Ligand InChI Key>
UVSMNLNDYGZFPF-UHFFFAOYSA-N

> <BindingDB MonomerID>
65456

> <BindingDB Ligand Name>
19171-19-8::4-amino-2-(2,6-dioxopiperidin-3-yl)isoindoline-1,3-dione::Actimid::CC-4047::Pomalyst::US11059801, Compound D-4::US9694015, 6.2::pomalidomide

> <Target Name>
Protein cereblon

> <Target Source Organism According to Curator or DataSource>
Human

> <Ki (nM)>


> <IC50 (nM)>
 2000

> <Kd (nM)>


> <EC50 (nM)>


> <kon (M-1-s-1)>


> <koff (s-1)>


> <pH>


> <Temp C>


> <Curation/DataSource>
Curated from the literature by BindingDB

> <Article DOI>
10.1038/leu.2012.119

> <BindingDB Entry DOI>
10.7270/Q26971RH

> <PMID>
22552008

> <PubChem AID>
aid1794853

> <Patent Number>


> <Authors>
Lopez-Girona, A; Mendy, D; Ito, T; Miller, K; Gandhi, AK; Kang, J; Karasawa, S; Carmel, G; Jackson, P; Abbasian, M; Mahmoudi, A; Cathers, B; Rychak, E; Gaidarova, S; Chen, R; Schafer, PH; Handa, H; Daniel, TO; Evans, JF; Chopra, R

> <Date of publication>
11/28/2012

> <Date in BindingDB>
1/3/2018

> <Institution>
Celgene

> <Link to Ligand in BindingDB>
http://www.bindingdb.org/bind/chemsearch/marvin/MolStructure.jsp?monomerid=65456

> <Link to Ligand-Target Pair in BindingDB>
http://www.bindingdb.org/jsp/dbsearch/PrimarySearch_ki.jsp?energyterm=kJ/mole&tag=pol&polymerid=50007050&target=Protein+cereblon&column=ki&startPg=0&Increment=50&submit=Search

> <Link to Ligand-Target Pair in BindingDB>
http://www.bindingdb.org/jsp/dbsearch/PrimarySearch_ki.jsp?energyterm=kJ/mole&tag=r21&monomerid=65456&enzyme=Protein+cereblon&column=ki&startPg=0&Increment=50&submit=Search

> <Ligand HET ID in PDB>
Y70

> <PDB ID(s) for Ligand-Target Complex>
7SZA

> <PubChem CID of Ligand>
134780

> <PubChem SID of Ligand>
350083086

> <ChEBI ID of Ligand>


> <ChEMBL ID of Ligand>


> <DrugBank ID of Ligand>
DB08910

> <IUPHAR_GRAC ID of Ligand>


> <KEGG ID of Ligand>


> <ZINC ID of Ligand>
ZINC15953204

> <Number of Protein Chains in Target (bigger than 1 implies a multichain complex)>
1

> <BindingDB Target Chain Sequence>
MAGEGDQQDAAHNMGNHLPLLPAESEEEDEMEVEDQDSKEAKKPNIINFDTSLPTSHTYLGADMEEFHGRTLHDDDSCQVIPVLPQVMMILIPGQTLPLQLFHPQEVSMVRNLIQKDRTFAVLAYSNVQEREAQFGTTAEIYAYREEQDFGIEIVKVKAIGRQRFKVLELRTQSDGIQQAKVQILPECVLPSTMSAVQLESLNKCQIFPSKPVSREDQCSYKWWQKYQKRKFHCANLTSWPRWLYSLYDAETLMDRIKKQLREWDENLKDDSLPSNPIDFSYRVAACLPIDDVLRIQLLKIGSAIQRLRCELDIMNKCTSLCCKQCQETEITTKNEIFSLSLCGPMAAYVNPHGYVHETLTVYKACNLNLIGRPSTEHSWFPGYAWTVAQCKICASHIGWKFTATKKDMSPQKFWGLTRSALLPTIPDTEDEISPDKVILCL

> <PDB ID(s) of Target Chain>
4TZ4,5HXB,5V3O,6UML,6XK9,7LPS,7U8F,8CVP,8D7U,8D7V,8D7W,8D7X,8D7Y,8D7Z,8D80,8D81,8DEY,8OIZ,8OJH

> <UniProt (SwissProt) Recommended Name of Target Chain>
Protein cereblon

> <UniProt (SwissProt) Entry Name of Target Chain>
CRBN_HUMAN

> <UniProt (SwissProt) Primary ID of Target Chain>
Q96SW2

> <UniProt (SwissProt) Secondary ID(s) of Target Chain>
B2R6H4 C9IZA9 C9JAH6 Q6AI62 Q6NVZ0 Q9UHW4

> <UniProt (SwissProt) Alternative ID(s) of Target Chain>


> <UniProt (TrEMBL) Submitted Name of Target Chain>


> <UniProt (TrEMBL) Entry Name of Target Chain>


> <UniProt (TrEMBL) Primary ID of Target Chain>


> <UniProt (TrEMBL) Secondary ID(s) of Target Chain>


> <UniProt (TrEMBL) Alternative ID(s) of Target Chain>


$$$$

     RDKit          2D

 19 21  0  0  0  0  0  0  0  0999 V2000
   12.9326  -26.8965    0.0000 C   0  0  0  0  0  0  0  0  0  0  0  0
   12.9314  -27.7234    0.0000 C   0  0  0  0  0  0  0  0  0  0  0  0
   13.6459  -28.1360    0.0000 C   0  0  0  0  0  0  0  0  0  0  0  0
   13.6440  -26.4840    0.0000 C   0  0  0  0  0  0  0  0  0  0  0  0
   15.1498  -26.6345    0.0000 C   0  0  0  0  0  0  0  0  0  0  0  0
   14.3590  -26.8929    0.0000 C   0  0  0  0  0  0  0  0  0  0  0  0
   14.3615  -27.7256    0.0000 C   0  0  0  0  0  0  0  0  0  0  0  0
   15.1550  -27.9791    0.0000 C   0  0  0  0  0  0  0  0  0  0  0  0
   15.6400  -27.3022    0.0000 N   0  0  0  0  0  0  0  0  0  0  0  0
   15.4020  -25.8494    0.0000 O   0  0  0  0  0  0  0  0  0  0  0  0
   16.4629  -27.3022    0.0000 C   0  0  0  0  0  0  0  0  0  0  0  0
   16.8780  -28.0157    0.0000 C   0  0  0  0  0  0  0  0  0  0  0  0
   17.6988  -28.0130    0.0000 C   0  0  0  0  0  0  0  0  0  0  0  0
   18.1109  -27.2985    0.0000 C   0  0  0  0  0  0  0  0  0  0  0  0
   17.6958  -26.5849    0.0000 N   0  0  0  0  0  0  0  0  0  0  0  0
   16.8687  -26.5859    0.0000 C   0  0  0  0  0  0  0  0  0  0  0  0
   16.4532  -25.8738    0.0000 O   0  0  0  0  0  0  0  0  0  0  0  0
   18.9354  -27.2969    0.0000 O   0  0  0  0  0  0  0  0  0  0  0  0
   12.2171  -28.1351    0.0000 O   0  0  0  0  0  0  0  0  0  0  0  0
  1  2  2  0
  2  3  1  0
  3  7  2  0
  6  4  2  0
  4  1  1  0
  6  7  1  0
  5  6  1  0
  7  8  1  0
  8  9  1  0
  9  5  1  0
  5 10  2  0
 11 12  1  0
 11 16  1  0
 12 13  1  0
 13 14  1  0
 14 15  1  0
 15 16  1  0
  9 11  1  0
 16 17  2  0
 14 18  2  0
  2 19  1  0
M  END
> <From>
www.bindingDB.org

> <BindingDB Reactant_set_id>
51526245

> <Ligand InChI>
InChI=1S/C13H12N2O4/c16-8-1-2-9-7(5-8)6-15(13(9)19)10-3-4-11(17)14-12(10)18/h1-2,5,10,16H,3-4,6H2,(H,14,17,18)

> <Ligand InChI Key>
JJUMFQGCQAUIFH-UHFFFAOYSA-N

> <BindingDB MonomerID>
50614097

> <BindingDB Ligand Name>
CHEMBL2324702

> <Target Name>
Protein cereblon

> <Target Source Organism According to Curator or DataSource>
Human

> <Ki (nM)>


> <IC50 (nM)>
 2000

> <Kd (nM)>


> <EC50 (nM)>


> <kon (M-1-s-1)>


> <koff (s-1)>


> <pH>


> <Temp C>


> <Curation/DataSource>
ChEMBL

> <Article DOI>


> <BindingDB Entry DOI>
10.7270/Q2V12923

> <PMID>
36970148

> <PubChem AID>


> <Patent Number>


> <Authors>
n/a

> <Date of publication>
3/22/2023

> <Date in BindingDB>
4/22/2024

> <Institution>
n/a

> <Link to Ligand in BindingDB>
http://www.bindingdb.org/bind/chemsearch/marvin/MolStructure.jsp?monomerid=50614097

> <Link to Ligand-Target Pair in BindingDB>
http://www.bindingdb.org/jsp/dbsearch/PrimarySearch_ki.jsp?energyterm=kJ/mole&tag=pol&polymerid=50007050&target=Protein+cereblon&column=ki&startPg=0&Increment=50&submit=Search

> <Link to Ligand-Target Pair in BindingDB>
http://www.bindingdb.org/jsp/dbsearch/PrimarySearch_ki.jsp?energyterm=kJ/mole&tag=r21&monomerid=50614097&enzyme=Protein+cereblon&column=ki&startPg=0&Increment=50&submit=Search

> <Ligand HET ID in PDB>


> <PDB ID(s) for Ligand-Target Complex>


> <PubChem CID of Ligand>
71517902

> <PubChem SID of Ligand>
494503845

> <ChEBI ID of Ligand>


> <ChEMBL ID of Ligand>


> <DrugBank ID of Ligand>


> <IUPHAR_GRAC ID of Ligand>


> <KEGG ID of Ligand>


> <ZINC ID of Ligand>


> <Number of Protein Chains in Target (bigger than 1 implies a multichain complex)>
1

> <BindingDB Target Chain Sequence>
MAGEGDQQDAAHNMGNHLPLLPAESEEEDEMEVEDQDSKEAKKPNIINFDTSLPTSHTYLGADMEEFHGRTLHDDDSCQVIPVLPQVMMILIPGQTLPLQLFHPQEVSMVRNLIQKDRTFAVLAYSNVQEREAQFGTTAEIYAYREEQDFGIEIVKVKAIGRQRFKVLELRTQSDGIQQAKVQILPECVLPSTMSAVQLESLNKCQIFPSKPVSREDQCSYKWWQKYQKRKFHCANLTSWPRWLYSLYDAETLMDRIKKQLREWDENLKDDSLPSNPIDFSYRVAACLPIDDVLRIQLLKIGSAIQRLRCELDIMNKCTSLCCKQCQETEITTKNEIFSLSLCGPMAAYVNPHGYVHETLTVYKACNLNLIGRPSTEHSWFPGYAWTVAQCKICASHIGWKFTATKKDMSPQKFWGLTRSALLPTIPDTEDEISPDKVILCL

> <PDB ID(s) of Target Chain>
4TZ4,5HXB,5V3O,6UML,6XK9,7LPS,7U8F,8CVP,8D7U,8D7V,8D7W,8D7X,8D7Y,8D7Z,8D80,8D81,8DEY,8OIZ,8OJH,8U15,8U16,8U17

> <UniProt (SwissProt) Recommended Name of Target Chain>
Protein cereblon

> <UniProt (SwissProt) Entry Name of Target Chain>
CRBN_HUMAN

> <UniProt (SwissProt) Primary ID of Target Chain>
Q96SW2

> <UniProt (SwissProt) Secondary ID(s) of Target Chain>
B2R6H4 C9IZA9 C9JAH6 Q6AI62 Q6NVZ0 Q9UHW4

> <UniProt (SwissProt) Alternative ID(s) of Target Chain>


> <UniProt (TrEMBL) Submitted Name of Target Chain>


> <UniProt (TrEMBL) Entry Name of Target Chain>


> <UniProt (TrEMBL) Primary ID of Target Chain>


> <UniProt (TrEMBL) Secondary ID(s) of Target Chain>


> <UniProt (TrEMBL) Alternative ID(s) of Target Chain>


$$$$
 
     RDKit          2D

 54 61  0  0  0  0  0  0  0  0999 V2000
   10.7339  -16.2570    0.0000 C   0  0  0  0  0  0  0  0  0  0  0  0
   11.8815  -15.0974    0.0000 C   0  0  0  0  0  0  0  0  0  0  0  0
   11.0866  -14.8905    0.0000 C   0  0  0  0  0  0  0  0  0  0  0  0
   10.5148  -15.4714    0.0000 C   0  0  0  0  0  0  0  0  0  0  0  0
   12.0960  -15.8868    0.0000 C   0  0  0  0  0  0  0  0  0  0  0  0
   11.5211  -16.4637    0.0000 C   0  0  0  0  0  0  0  0  0  0  0  0
   11.8920  -17.1889    0.0000 C   0  0  0  0  0  0  0  0  0  0  0  0
   12.6964  -17.0601    0.0000 N   0  0  0  0  0  0  0  0  0  0  0  0
   12.8223  -16.2554    0.0000 C   0  0  0  0  0  0  0  0  0  0  0  0
   13.5498  -15.8832    0.0000 O   0  0  0  0  0  0  0  0  0  0  0  0
   13.2734  -17.6350    0.0000 C   0  0  0  0  0  0  0  0  0  0  0  0
   13.0611  -18.4251    0.0000 C   0  0  0  0  0  0  0  0  0  0  0  0
   13.6361  -19.0008    0.0000 C   0  0  0  0  0  0  0  0  0  0  0  0
   14.4265  -18.7920    0.0000 C   0  0  0  0  0  0  0  0  0  0  0  0
   14.6388  -18.0018    0.0000 N   0  0  0  0  0  0  0  0  0  0  0  0
   14.0606  -17.4206    0.0000 C   0  0  0  0  0  0  0  0  0  0  0  0
   14.2716  -16.6311    0.0000 O   0  0  0  0  0  0  0  0  0  0  0  0
   15.0031  -19.3710    0.0000 O   0  0  0  0  0  0  0  0  0  0  0  0
    7.0039  -19.8437    0.0000 C   0  0  0  0  0  0  0  0  0  0  0  0
    7.2144  -20.6320    0.0000 C   0  0  0  0  0  0  0  0  0  0  0  0
    7.9980  -20.8427    0.0000 C   0  0  0  0  0  0  0  0  0  0  0  0
    8.5766  -20.2683    0.0000 C   0  0  0  0  0  0  0  0  0  0  0  0
    8.3661  -19.4800    0.0000 C   0  0  0  0  0  0  0  0  0  0  0  0
    7.5770  -19.2661    0.0000 C   0  0  0  0  0  0  0  0  0  0  0  0
    6.2158  -20.0613    0.0000 C   0  0  0  0  0  0  0  0  0  0  0  0
    7.0437  -19.0306    0.0000 N   0  0  0  0  0  0  0  0  0  0  0  0
    6.2797  -18.7409    0.0000 C   0  0  0  0  0  0  0  0  0  0  0  0
    5.7682  -19.3779    0.0000 C   0  0  0  0  0  0  0  0  0  0  0  0
    4.0226  -20.3224    0.0000 C   0  0  0  0  0  0  0  0  0  0  0  0
    4.0215  -21.1420    0.0000 C   0  0  0  0  0  0  0  0  0  0  0  0
    4.7295  -21.5509    0.0000 C   0  0  0  0  0  0  0  0  0  0  0  0
    4.7277  -19.9136    0.0000 C   0  0  0  0  0  0  0  0  0  0  0  0
    5.4364  -20.3188    0.0000 C   0  0  0  0  0  0  0  0  0  0  0  0
    5.4412  -21.1374    0.0000 C   0  0  0  0  0  0  0  0  0  0  0  0
    6.2212  -21.3859    0.0000 N   0  0  0  0  0  0  0  0  0  0  0  0
    6.6985  -20.7208    0.0000 C   0  0  0  0  0  0  0  0  0  0  0  0
    3.3135  -21.5500    0.0000 Cl  0  0  0  0  0  0  0  0  0  0  0  0
    7.4042  -21.1273    0.0000 O   0  0  0  0  0  0  0  0  0  0  0  0
    6.0650  -17.9524    0.0000 C   0  0  0  0  0  0  0  0  0  0  0  0
    6.6405  -17.3722    0.0000 N   0  0  0  0  0  0  0  0  0  0  0  0
    5.2748  -17.7441    0.0000 O   0  0  0  0  0  0  0  0  0  0  0  0
    4.9733  -19.1627    0.0000 C   0  0  0  0  0  0  0  0  0  0  0  0
    4.7646  -18.3650    0.0000 C   0  0  0  0  0  0  0  0  0  0  0  0
    3.9706  -18.1497    0.0000 C   0  0  0  0  0  0  0  0  0  0  0  0
    3.3859  -18.7308    0.0000 C   0  0  0  0  0  0  0  0  0  0  0  0
    3.6006  -19.5302    0.0000 C   0  0  0  0  0  0  0  0  0  0  0  0
    4.3943  -19.7418    0.0000 C   0  0  0  0  0  0  0  0  0  0  0  0
    4.7587  -17.5448    0.0000 F   0  0  0  0  0  0  0  0  0  0  0  0
    3.7615  -17.3597    0.0000 Cl  0  0  0  0  0  0  0  0  0  0  0  0
    7.4307  -17.5805    0.0000 C   0  0  0  0  0  0  0  0  0  0  0  0
    8.0062  -17.0003    0.0000 C   0  0  0  0  0  0  0  0  0  0  0  0
    8.7964  -17.2086    0.0000 C   0  0  0  0  0  0  0  0  0  0  0  0
    9.3719  -16.6285    0.0000 C   0  0  0  0  0  0  0  0  0  0  0  0
   10.1621  -16.8368    0.0000 C   0  0  0  0  0  0  0  0  0  0  0  0
  1  6  2  0
  5  2  2  0
  2  3  1  0
  3  4  2  0
  4  1  1  0
  5  6  1  0
  6  7  1  0
  7  8  1  0
  8  9  1  0
  9  5  1  0
  9 10  2  0
 11 12  1  0
 11 16  1  0
 12 13  1  0
 13 14  1  0
 14 15  1  0
 15 16  1  0
  8 11  1  0
 16 17  2  0
 14 18  2  0
 19 20  1  0
 19 24  1  0
 20 21  1  0
 21 22  1  0
 22 23  1  0
 23 24  1  0
 25 19  1  0
 19 26  1  0
 26 27  1  0
 27 28  1  0
 28 25  1  0
 29 30  2  0
 30 31  1  0
 31 34  2  0
 33 32  2  0
 32 29  1  0
 33 34  1  0
 34 35  1  0
 35 36  1  0
 25 36  1  1
 25 33  1  0
 30 37  1  0
 36 38  2  0
 27 39  1  6
 39 40  1  0
 39 41  2  0
 28 42  1  1
 42 43  2  0
 43 44  1  0
 44 45  2  0
 45 46  1  0
 46 47  2  0
 47 42  1  0
 43 48  1  0
 44 49  1  0
 40 50  1  0
 50 51  1  0
 51 52  1  0
 52 53  1  0
 53 54  1  0
 54  1  1  0
M  END
> <From>
www.bindingDB.org

> <BindingDB Reactant_set_id>
51235031

> <Ligand InChI>
InChI=1S/C41H42Cl2FN5O5/c42-24-14-15-28-30(21-24)46-39(54)41(28)33(26-12-8-13-29(43)34(26)44)35(48-40(41)18-4-2-5-19-40)37(52)45-20-6-1-3-9-23-10-7-11-25-27(23)22-49(38(25)53)31-16-17-32(50)47-36(31)51/h7-8,10-15,21,31,33,35,48H,1-6,9,16-20,22H2,(H,45,52)(H,46,54)(H,47,50,51)/t31?,33-,35+,41+/m0/s1

> <Ligand InChI Key>
BANRYGZZIMCKNA-OYGJEQPESA-N

> <BindingDB MonomerID>
50505628

> <BindingDB Ligand Name>
CHEMBL4449512

> <Target Name>
Protein cereblon

> <Target Source Organism According to Curator or DataSource>
Human

> <Ki (nM)>


> <IC50 (nM)>
 2072

> <Kd (nM)>


> <EC50 (nM)>


> <kon (M-1-s-1)>


> <koff (s-1)>


> <pH>


> <Temp C>


> <Curation/DataSource>
ChEMBL

> <Article DOI>
10.1021/acs.jmedchem.9b00846

> <BindingDB Entry DOI>
10.7270/Q20C5026

> <PMID>
31560543

> <PubChem AID>


> <Patent Number>


> <Authors>
Yang, J; Li, Y; Aguilar, A; Liu, Z; Yang, CY; Wang, S

> <Date of publication>
11/14/2019

> <Date in BindingDB>
2/18/2021

> <Institution>
TBA

> <Link to Ligand in BindingDB>
http://www.bindingdb.org/bind/chemsearch/marvin/MolStructure.jsp?monomerid=50505628

> <Link to Ligand-Target Pair in BindingDB>
http://www.bindingdb.org/jsp/dbsearch/PrimarySearch_ki.jsp?energyterm=kJ/mole&tag=pol&polymerid=50007050&target=Protein+cereblon&column=ki&startPg=0&Increment=50&submit=Search

> <Link to Ligand-Target Pair in BindingDB>
http://www.bindingdb.org/jsp/dbsearch/PrimarySearch_ki.jsp?energyterm=kJ/mole&tag=r21&monomerid=50505628&enzyme=Protein+cereblon&column=ki&startPg=0&Increment=50&submit=Search

> <Ligand HET ID in PDB>


> <PDB ID(s) for Ligand-Target Complex>


> <PubChem CID of Ligand>
139600332

> <PubChem SID of Ligand>
440714213

> <ChEBI ID of Ligand>


> <ChEMBL ID of Ligand>


> <DrugBank ID of Ligand>


> <IUPHAR_GRAC ID of Ligand>


> <KEGG ID of Ligand>


> <ZINC ID of Ligand>


> <Number of Protein Chains in Target (bigger than 1 implies a multichain complex)>
1

> <BindingDB Target Chain Sequence>
MAGEGDQQDAAHNMGNHLPLLPAESEEEDEMEVEDQDSKEAKKPNIINFDTSLPTSHTYLGADMEEFHGRTLHDDDSCQVIPVLPQVMMILIPGQTLPLQLFHPQEVSMVRNLIQKDRTFAVLAYSNVQEREAQFGTTAEIYAYREEQDFGIEIVKVKAIGRQRFKVLELRTQSDGIQQAKVQILPECVLPSTMSAVQLESLNKCQIFPSKPVSREDQCSYKWWQKYQKRKFHCANLTSWPRWLYSLYDAETLMDRIKKQLREWDENLKDDSLPSNPIDFSYRVAACLPIDDVLRIQLLKIGSAIQRLRCELDIMNKCTSLCCKQCQETEITTKNEIFSLSLCGPMAAYVNPHGYVHETLTVYKACNLNLIGRPSTEHSWFPGYAWTVAQCKICASHIGWKFTATKKDMSPQKFWGLTRSALLPTIPDTEDEISPDKVILCL

> <PDB ID(s) of Target Chain>
4TZ4,5HXB,5V3O,6UML,6XK9,7LPS,7U8F,8CVP,8D7U,8D7V,8D7W,8D7X,8D7Y,8D7Z,8D80,8D81,8DEY,8OIZ,8OJH

> <UniProt (SwissProt) Recommended Name of Target Chain>
Protein cereblon

> <UniProt (SwissProt) Entry Name of Target Chain>
CRBN_HUMAN

> <UniProt (SwissProt) Primary ID of Target Chain>
Q96SW2

> <UniProt (SwissProt) Secondary ID(s) of Target Chain>
B2R6H4 C9IZA9 C9JAH6 Q6AI62 Q6NVZ0 Q9UHW4

> <UniProt (SwissProt) Alternative ID(s) of Target Chain>


> <UniProt (TrEMBL) Submitted Name of Target Chain>


> <UniProt (TrEMBL) Entry Name of Target Chain>


> <UniProt (TrEMBL) Primary ID of Target Chain>


> <UniProt (TrEMBL) Secondary ID(s) of Target Chain>


> <UniProt (TrEMBL) Alternative ID(s) of Target Chain>


$$$$
 
     RDKit          2D

 54 61  0  0  0  0  0  0  0  0999 V2000
   10.7339  -16.2570    0.0000 C   0  0  0  0  0  0  0  0  0  0  0  0
   11.8815  -15.0974    0.0000 C   0  0  0  0  0  0  0  0  0  0  0  0
   11.0866  -14.8905    0.0000 C   0  0  0  0  0  0  0  0  0  0  0  0
   10.5148  -15.4714    0.0000 C   0  0  0  0  0  0  0  0  0  0  0  0
   12.0960  -15.8868    0.0000 C   0  0  0  0  0  0  0  0  0  0  0  0
   11.5211  -16.4637    0.0000 C   0  0  0  0  0  0  0  0  0  0  0  0
   11.8920  -17.1889    0.0000 C   0  0  0  0  0  0  0  0  0  0  0  0
   12.6964  -17.0601    0.0000 N   0  0  0  0  0  0  0  0  0  0  0  0
   12.8223  -16.2554    0.0000 C   0  0  0  0  0  0  0  0  0  0  0  0
   13.5498  -15.8832    0.0000 O   0  0  0  0  0  0  0  0  0  0  0  0
   13.2734  -17.6350    0.0000 C   0  0  0  0  0  0  0  0  0  0  0  0
   13.0611  -18.4251    0.0000 C   0  0  0  0  0  0  0  0  0  0  0  0
   13.6361  -19.0008    0.0000 C   0  0  0  0  0  0  0  0  0  0  0  0
   14.4265  -18.7920    0.0000 C   0  0  0  0  0  0  0  0  0  0  0  0
   14.6388  -18.0018    0.0000 N   0  0  0  0  0  0  0  0  0  0  0  0
   14.0606  -17.4206    0.0000 C   0  0  0  0  0  0  0  0  0  0  0  0
   14.2716  -16.6311    0.0000 O   0  0  0  0  0  0  0  0  0  0  0  0
   15.0031  -19.3710    0.0000 O   0  0  0  0  0  0  0  0  0  0  0  0
    7.0039  -19.8437    0.0000 C   0  0  0  0  0  0  0  0  0  0  0  0
    7.2144  -20.6320    0.0000 C   0  0  0  0  0  0  0  0  0  0  0  0
    7.9980  -20.8427    0.0000 C   0  0  0  0  0  0  0  0  0  0  0  0
    8.5766  -20.2683    0.0000 C   0  0  0  0  0  0  0  0  0  0  0  0
    8.3661  -19.4800    0.0000 C   0  0  0  0  0  0  0  0  0  0  0  0
    7.5770  -19.2661    0.0000 C   0  0  0  0  0  0  0  0  0  0  0  0
    6.2158  -20.0613    0.0000 C   0  0  0  0  0  0  0  0  0  0  0  0
    7.0437  -19.0306    0.0000 N   0  0  0  0  0  0  0  0  0  0  0  0
    6.2797  -18.7409    0.0000 C   0  0  0  0  0  0  0  0  0  0  0  0
    5.7682  -19.3779    0.0000 C   0  0  0  0  0  0  0  0  0  0  0  0
    4.0226  -20.3224    0.0000 C   0  0  0  0  0  0  0  0  0  0  0  0
    4.0215  -21.1420    0.0000 C   0  0  0  0  0  0  0  0  0  0  0  0
    4.7295  -21.5509    0.0000 C   0  0  0  0  0  0  0  0  0  0  0  0
    4.7277  -19.9136    0.0000 C   0  0  0  0  0  0  0  0  0  0  0  0
    5.4364  -20.3188    0.0000 C   0  0  0  0  0  0  0  0  0  0  0  0
    5.4412  -21.1374    0.0000 C   0  0  0  0  0  0  0  0  0  0  0  0
    6.2212  -21.3859    0.0000 N   0  0  0  0  0  0  0  0  0  0  0  0
    6.6985  -20.7208    0.0000 C   0  0  0  0  0  0  0  0  0  0  0  0
    3.3135  -21.5500    0.0000 Cl  0  0  0  0  0  0  0  0  0  0  0  0
    7.4042  -21.1273    0.0000 O   0  0  0  0  0  0  0  0  0  0  0  0
    6.0650  -17.9524    0.0000 C   0  0  0  0  0  0  0  0  0  0  0  0
    6.6405  -17.3722    0.0000 N   0  0  0  0  0  0  0  0  0  0  0  0
    5.2748  -17.7441    0.0000 O   0  0  0  0  0  0  0  0  0  0  0  0
    4.9733  -19.1627    0.0000 C   0  0  0  0  0  0  0  0  0  0  0  0
    4.7646  -18.3650    0.0000 C   0  0  0  0  0  0  0  0  0  0  0  0
    3.9706  -18.1497    0.0000 C   0  0  0  0  0  0  0  0  0  0  0  0
    3.3859  -18.7308    0.0000 C   0  0  0  0  0  0  0  0  0  0  0  0
    3.6006  -19.5302    0.0000 C   0  0  0  0  0  0  0  0  0  0  0  0
    4.3943  -19.7418    0.0000 C   0  0  0  0  0  0  0  0  0  0  0  0
    4.7587  -17.5448    0.0000 F   0  0  0  0  0  0  0  0  0  0  0  0
    3.7615  -17.3597    0.0000 Cl  0  0  0  0  0  0  0  0  0  0  0  0
    7.4307  -17.5805    0.0000 C   0  0  0  0  0  0  0  0  0  0  0  0
    8.0062  -17.0003    0.0000 C   0  0  0  0  0  0  0  0  0  0  0  0
    8.7964  -17.2086    0.0000 C   0  0  0  0  0  0  0  0  0  0  0  0
    9.3719  -16.6285    0.0000 C   0  0  0  0  0  0  0  0  0  0  0  0
   10.1621  -16.8368    0.0000 C   0  0  0  0  0  0  0  0  0  0  0  0
  1  6  2  0
  5  2  2  0
  2  3  1  0
  3  4  2  0
  4  1  1  0
  5  6  1  0
  6  7  1  0
  7  8  1  0
  8  9  1  0
  9  5  1  0
  9 10  2  0
 11 12  1  0
 11 16  1  0
 12 13  1  0
 13 14  1  0
 14 15  1  0
 15 16  1  0
  8 11  1  0
 16 17  2  0
 14 18  2  0
 19 20  1  0
 19 24  1  0
 20 21  1  0
 21 22  1  0
 22 23  1  0
 23 24  1  0
 25 19  1  0
 19 26  1  0
 26 27  1  0
 27 28  1  0
 28 25  1  0
 29 30  2  0
 30 31  1  0
 31 34  2  0
 33 32  2  0
 32 29  1  0
 33 34  1  0
 34 35  1  0
 35 36  1  0
 25 36  1  1
 25 33  1  0
 30 37  1  0
 36 38  2  0
 27 39  1  6
 39 40  1  0
 39 41  2  0
 28 42  1  1
 42 43  2  0
 43 44  1  0
 44 45  2  0
 45 46  1  0
 46 47  2  0
 47 42  1  0
 43 48  1  0
 44 49  1  0
 40 50  1  0
 50 51  1  0
 51 52  1  0
 52 53  1  0
 53 54  1  0
 54  1  1  0
M  END
> <From>
www.bindingDB.org

> <BindingDB Reactant_set_id>
51235037

> <Ligand InChI>
InChI=1S/C41H42Cl2FN5O5/c42-24-14-15-28-30(21-24)46-39(54)41(28)33(26-12-8-13-29(43)34(26)44)35(48-40(41)18-4-2-5-19-40)37(52)45-20-6-1-3-9-23-10-7-11-25-27(23)22-49(38(25)53)31-16-17-32(50)47-36(31)51/h7-8,10-15,21,31,33,35,48H,1-6,9,16-20,22H2,(H,45,52)(H,46,54)(H,47,50,51)/t31?,33-,35+,41+/m0/s1

> <Ligand InChI Key>
BANRYGZZIMCKNA-OYGJEQPESA-N

> <BindingDB MonomerID>
50505628

> <BindingDB Ligand Name>
CHEMBL4449512

> <Target Name>
Protein cereblon

> <Target Source Organism According to Curator or DataSource>
Human

> <Ki (nM)>


> <IC50 (nM)>
 2138

> <Kd (nM)>


> <EC50 (nM)>


> <kon (M-1-s-1)>


> <koff (s-1)>


> <pH>


> <Temp C>


> <Curation/DataSource>
ChEMBL

> <Article DOI>
10.1021/acs.jmedchem.9b00846

> <BindingDB Entry DOI>
10.7270/Q20C5026

> <PMID>
31560543

> <PubChem AID>


> <Patent Number>


> <Authors>
Yang, J; Li, Y; Aguilar, A; Liu, Z; Yang, CY; Wang, S

> <Date of publication>
11/14/2019

> <Date in BindingDB>
2/18/2021

> <Institution>
TBA

> <Link to Ligand in BindingDB>
http://www.bindingdb.org/bind/chemsearch/marvin/MolStructure.jsp?monomerid=50505628

> <Link to Ligand-Target Pair in BindingDB>
http://www.bindingdb.org/jsp/dbsearch/PrimarySearch_ki.jsp?energyterm=kJ/mole&tag=pol&polymerid=50007050&target=Protein+cereblon&column=ki&startPg=0&Increment=50&submit=Search

> <Link to Ligand-Target Pair in BindingDB>
http://www.bindingdb.org/jsp/dbsearch/PrimarySearch_ki.jsp?energyterm=kJ/mole&tag=r21&monomerid=50505628&enzyme=Protein+cereblon&column=ki&startPg=0&Increment=50&submit=Search

> <Ligand HET ID in PDB>


> <PDB ID(s) for Ligand-Target Complex>


> <PubChem CID of Ligand>
139600332

> <PubChem SID of Ligand>
440714213

> <ChEBI ID of Ligand>


> <ChEMBL ID of Ligand>


> <DrugBank ID of Ligand>


> <IUPHAR_GRAC ID of Ligand>


> <KEGG ID of Ligand>


> <ZINC ID of Ligand>


> <Number of Protein Chains in Target (bigger than 1 implies a multichain complex)>
1

> <BindingDB Target Chain Sequence>
MAGEGDQQDAAHNMGNHLPLLPAESEEEDEMEVEDQDSKEAKKPNIINFDTSLPTSHTYLGADMEEFHGRTLHDDDSCQVIPVLPQVMMILIPGQTLPLQLFHPQEVSMVRNLIQKDRTFAVLAYSNVQEREAQFGTTAEIYAYREEQDFGIEIVKVKAIGRQRFKVLELRTQSDGIQQAKVQILPECVLPSTMSAVQLESLNKCQIFPSKPVSREDQCSYKWWQKYQKRKFHCANLTSWPRWLYSLYDAETLMDRIKKQLREWDENLKDDSLPSNPIDFSYRVAACLPIDDVLRIQLLKIGSAIQRLRCELDIMNKCTSLCCKQCQETEITTKNEIFSLSLCGPMAAYVNPHGYVHETLTVYKACNLNLIGRPSTEHSWFPGYAWTVAQCKICASHIGWKFTATKKDMSPQKFWGLTRSALLPTIPDTEDEISPDKVILCL

> <PDB ID(s) of Target Chain>
4TZ4,5HXB,5V3O,6UML,6XK9,7LPS,7U8F,8CVP,8D7U,8D7V,8D7W,8D7X,8D7Y,8D7Z,8D80,8D81,8DEY,8OIZ,8OJH

> <UniProt (SwissProt) Recommended Name of Target Chain>
Protein cereblon

> <UniProt (SwissProt) Entry Name of Target Chain>
CRBN_HUMAN

> <UniProt (SwissProt) Primary ID of Target Chain>
Q96SW2

> <UniProt (SwissProt) Secondary ID(s) of Target Chain>
B2R6H4 C9IZA9 C9JAH6 Q6AI62 Q6NVZ0 Q9UHW4

> <UniProt (SwissProt) Alternative ID(s) of Target Chain>


> <UniProt (TrEMBL) Submitted Name of Target Chain>


> <UniProt (TrEMBL) Entry Name of Target Chain>


> <UniProt (TrEMBL) Primary ID of Target Chain>


> <UniProt (TrEMBL) Secondary ID(s) of Target Chain>


> <UniProt (TrEMBL) Alternative ID(s) of Target Chain>


$$$$
 
     RDKit          2D

 27 30  0  0  0  0  0  0  0  0999 V2000
   -1.6320    0.3565    0.0000 C   0  0  0  0  0  0  0  0  0  0  0  0
   -0.9175    0.7690    0.0000 C   0  0  0  0  0  0  0  0  0  0  0  0
   -0.2031    0.3565    0.0000 C   0  0  0  0  0  0  0  0  0  0  0  0
   -0.2031   -0.4684    0.0000 C   0  0  0  0  0  0  0  0  0  0  0  0
   -0.9175   -0.8810    0.0000 C   0  0  0  0  0  0  0  0  0  0  0  0
   -1.6320   -0.4684    0.0000 C   0  0  0  0  0  0  0  0  0  0  0  0
    0.5815   -0.7234    0.0000 C   0  0  0  0  0  0  0  0  0  0  0  0
    1.0664   -0.0560    0.0000 N   0  0  0  0  0  0  0  0  0  0  0  0
    0.5815    0.6114    0.0000 C   0  0  0  0  0  0  0  0  0  0  0  0
    0.7950    1.4081    0.0000 O   0  0  0  0  0  0  0  0  0  0  0  0
    1.8912   -0.0560    0.0000 C   0  0  0  0  0  0  0  0  0  0  0  0
    2.3036    0.6582    0.0000 C   0  0  0  0  0  0  0  0  0  0  0  0
    3.1284    0.6582    0.0000 C   0  0  0  0  0  0  0  0  0  0  0  0
    3.5407   -0.0560    0.0000 C   0  0  0  0  0  0  0  0  0  0  0  0
    3.1284   -0.7703    0.0000 N   0  0  0  0  0  0  0  0  0  0  0  0
    2.3036   -0.7703    0.0000 C   0  0  0  0  0  0  0  0  0  0  0  0
    1.8912   -1.4845    0.0000 O   0  0  0  0  0  0  0  0  0  0  0  0
    4.3656   -0.0560    0.0000 O   0  0  0  0  0  0  0  0  0  0  0  0
   -2.3463    0.7689    0.0000 S   0  0  0  0  0  0  0  0  0  0  0  0
   -3.0606    0.3565    0.0000 N   0  0  0  0  0  0  0  0  0  0  0  0
   -1.9331    1.4845    0.0000 O   0  0  0  0  0  0  0  0  0  0  0  0
   -2.7579    1.4845    0.0000 O   0  0  0  0  0  0  0  0  0  0  0  0
   -3.1467   -0.4633    0.0000 C   0  0  0  0  0  0  0  0  0  0  0  0
   -3.9531   -0.6347    0.0000 C   0  0  0  0  0  0  0  0  0  0  0  0
   -4.3654    0.0792    0.0000 C   0  0  0  0  0  0  0  0  0  0  0  0
   -3.8137    0.6918    0.0000 N   0  0  0  0  0  0  0  0  0  0  0  0
   -4.3656   -1.3490    0.0000 F   0  0  0  0  0  0  0  0  0  0  0  0
  1  2  1  0
  3  2  2  0
  4  3  1  0
  5  4  2  0
  6  5  1  0
  1  6  2  0
  4  7  1  0
  8  7  1  0
  9  8  1  0
  3  9  1  0
  9 10  2  0
  8 11  1  0
 12 11  1  0
 13 12  1  0
 14 13  1  0
 15 14  1  0
 16 15  1  0
 11 16  1  0
 16 17  2  0
 14 18  2  0
  1 19  1  0
 19 20  1  0
 19 21  2  0
 19 22  2  0
 23 20  1  0
 23 24  2  0
 24 25  1  0
 25 26  2  0
 26 20  1  0
 24 27  1  0
M  END
> <From>
www.bindingDB.org

> <BindingDB Reactant_set_id>
51568404

> <Ligand InChI>
InChI=1S/C16H13FN4O5S/c17-10-6-18-21(8-10)27(25,26)11-2-1-9-7-20(16(24)12(9)5-11)13-3-4-14(22)19-15(13)23/h1-2,5-6,8,13H,3-4,7H2,(H,19,22,23)

> <Ligand InChI Key>
XCNHBGNPGFMWGO-UHFFFAOYSA-N

> <BindingDB MonomerID>
50630777

> <BindingDB Ligand Name>
CHEMBL5415133

> <Target Name>
Protein cereblon

> <Target Source Organism According to Curator or DataSource>
Homo sapiens

> <Ki (nM)>


> <IC50 (nM)>
 2341

> <Kd (nM)>


> <EC50 (nM)>


> <kon (M-1-s-1)>


> <koff (s-1)>


> <pH>


> <Temp C>


> <Curation/DataSource>
ChEMBL

> <Article DOI>
10.1021/acsmedchemlett.3c00371

> <BindingDB Entry DOI>
10.7270/Q28D01RH

> <PMID>
37974938

> <PubChem AID>


> <Patent Number>


> <Authors>
Cruite, JT; Nowak, RP; Donovan, KA; Ficarro, SB; Huang, H; Liu, H; Liu, Y; Marto, JA; Metivier, RJ; Fischer, ES; Jones, LH

> <Date of publication>
11/9/2023

> <Date in BindingDB>
12/20/2024

> <Institution>
Dana-Farber Cancer Institute

> <Link to Ligand in BindingDB>
http://www.bindingdb.org/bind/chemsearch/marvin/MolStructure.jsp?monomerid=50630777

> <Link to Ligand-Target Pair in BindingDB>
http://www.bindingdb.org/jsp/dbsearch/PrimarySearch_ki.jsp?energyterm=kJ/mole&tag=pol&polymerid=50007050&target=Protein+cereblon&column=ki&startPg=0&Increment=50&submit=Search

> <Link to Ligand-Target Pair in BindingDB>
http://www.bindingdb.org/jsp/dbsearch/PrimarySearch_ki.jsp?energyterm=kJ/mole&tag=r21&monomerid=50630777&enzyme=Protein+cereblon&column=ki&startPg=0&Increment=50&submit=Search

> <Ligand HET ID in PDB>


> <PDB ID(s) for Ligand-Target Complex>


> <PubChem CID of Ligand>
168190702

> <PubChem SID of Ligand>
505048748

> <ChEBI ID of Ligand>


> <ChEMBL ID of Ligand>


> <DrugBank ID of Ligand>


> <IUPHAR_GRAC ID of Ligand>


> <KEGG ID of Ligand>


> <ZINC ID of Ligand>


> <Number of Protein Chains in Target (bigger than 1 implies a multichain complex)>
1

> <BindingDB Target Chain Sequence>
MAGEGDQQDAAHNMGNHLPLLPAESEEEDEMEVEDQDSKEAKKPNIINFDTSLPTSHTYLGADMEEFHGRTLHDDDSCQVIPVLPQVMMILIPGQTLPLQLFHPQEVSMVRNLIQKDRTFAVLAYSNVQEREAQFGTTAEIYAYREEQDFGIEIVKVKAIGRQRFKVLELRTQSDGIQQAKVQILPECVLPSTMSAVQLESLNKCQIFPSKPVSREDQCSYKWWQKYQKRKFHCANLTSWPRWLYSLYDAETLMDRIKKQLREWDENLKDDSLPSNPIDFSYRVAACLPIDDVLRIQLLKIGSAIQRLRCELDIMNKCTSLCCKQCQETEITTKNEIFSLSLCGPMAAYVNPHGYVHETLTVYKACNLNLIGRPSTEHSWFPGYAWTVAQCKICASHIGWKFTATKKDMSPQKFWGLTRSALLPTIPDTEDEISPDKVILCL

> <PDB ID(s) of Target Chain>
8TNR,8TNQ,8TNP,8D81,8D80,8D7Z,8D7Y,8D7X,8D7W,8D7V,8D7U,8CVP,9DQD,8UH6,6BOY,6BNB,6BN9,6BN8,6BN7,6XK9,6UML,5V3O,5HXB,7U8F,8OJH,8OIZ,7LPS,4TZ4,9DJX,9DJT,8U17,8U16,8U15,8TZX,8DEY,9CUO,4M91

> <UniProt (SwissProt) Recommended Name of Target Chain>
Protein cereblon

> <UniProt (SwissProt) Entry Name of Target Chain>
CRBN_HUMAN

> <UniProt (SwissProt) Primary ID of Target Chain>
Q96SW2

> <UniProt (SwissProt) Secondary ID(s) of Target Chain>
B2R6H4 C9IZA9 C9JAH6 Q6AI62 Q6NVZ0 Q9UHW4

> <UniProt (SwissProt) Alternative ID(s) of Target Chain>


> <UniProt (TrEMBL) Submitted Name of Target Chain>


> <UniProt (TrEMBL) Entry Name of Target Chain>


> <UniProt (TrEMBL) Primary ID of Target Chain>


> <UniProt (TrEMBL) Secondary ID(s) of Target Chain>


> <UniProt (TrEMBL) Alternative ID(s) of Target Chain>


$$$$
 
     RDKit          2D

 22 25  0  0  0  0  0  0  0  0999 V2000
   -3.2579    0.5738    0.0000 C   0  0  0  0  0  0  0  0  0  0  0  0
   -3.7070   -0.1182    0.0000 N   0  0  0  0  0  0  0  0  0  0  0  0
   -3.1928   -0.7746    0.0000 C   0  0  0  0  0  0  0  0  0  0  0  0
   -2.4586   -0.4947    0.0000 C   0  0  0  0  0  0  0  0  0  0  0  0
   -2.4586    0.3515    0.0000 C   0  0  0  0  0  0  0  0  0  0  0  0
   -1.7404    0.7951    0.0000 C   0  0  0  0  0  0  0  0  0  0  0  0
   -0.9668    0.3944    0.0000 C   0  0  0  0  0  0  0  0  0  0  0  0
   -0.9668   -0.4475    0.0000 C   0  0  0  0  0  0  0  0  0  0  0  0
   -1.6837   -0.8971    0.0000 C   0  0  0  0  0  0  0  0  0  0  0  0
   -0.1597   -0.6723    0.0000 C   0  0  0  0  0  0  0  0  0  0  0  0
    0.3200    0.0172    0.0000 N   0  0  0  0  0  0  0  0  0  0  0  0
   -0.1820    0.6764    0.0000 C   0  0  0  0  0  0  0  0  0  0  0  0
    0.0448    1.4923    0.0000 O   0  0  0  0  0  0  0  0  0  0  0  0
    1.1667    0.0172    0.0000 C   0  0  0  0  0  0  0  0  0  0  0  0
    1.5832   -0.7200    0.0000 C   0  0  0  0  0  0  0  0  0  0  0  0
    2.4299   -0.7200    0.0000 C   0  0  0  0  0  0  0  0  0  0  0  0
    2.8603    0.0012    0.0000 C   0  0  0  0  0  0  0  0  0  0  0  0
    2.4437    0.7464    0.0000 N   0  0  0  0  0  0  0  0  0  0  0  0
    1.5970    0.7464    0.0000 C   0  0  0  0  0  0  0  0  0  0  0  0
    1.1806    1.4837    0.0000 O   0  0  0  0  0  0  0  0  0  0  0  0
    3.7070    0.0012    0.0000 O   0  0  0  0  0  0  0  0  0  0  0  0
    0.0516   -1.4923    0.0000 O   0  0  0  0  0  0  0  0  0  0  0  0
  1  2  1  0
  2  3  1  0
  4  3  1  0
  5  4  2  0
  1  5  1  0
  5  6  1  0
  7  6  2  0
  8  7  1  0
  9  8  2  0
  4  9  1  0
  8 10  1  0
 10 11  1  0
 12 11  1  0
  7 12  1  0
 12 13  2  0
 14 11  1  0
 14 15  1  0
 15 16  1  0
 16 17  1  0
 17 18  1  0
 18 19  1  0
 14 19  1  0
 19 20  2  0
 17 21  2  0
 10 22  2  0
M  END
> <From>
www.bindingDB.org

> <BindingDB Reactant_set_id>
51536500

> <Ligand InChI>
InChI=1S/C15H13N3O4/c19-12-2-1-11(13(20)17-12)18-14(21)9-3-7-5-16-6-8(7)4-10(9)15(18)22/h3-4,11,16H,1-2,5-6H2,(H,17,19,20)

> <Ligand InChI Key>
DFRCTMCXNOBCLU-UHFFFAOYSA-N

> <BindingDB MonomerID>
50618118

> <BindingDB Ligand Name>
CHEMBL5413040

> <Target Name>
Protein cereblon

> <Target Source Organism According to Curator or DataSource>
Homo sapiens

> <Ki (nM)>


> <IC50 (nM)>
 2600

> <Kd (nM)>


> <EC50 (nM)>


> <kon (M-1-s-1)>


> <koff (s-1)>


> <pH>


> <Temp C>


> <Curation/DataSource>
ChEMBL

> <Article DOI>
10.1021/acs.jmedchem.3c01186

> <BindingDB Entry DOI>
10.7270/Q2SX6JKK

> <PMID>
37647546

> <PubChem AID>


> <Patent Number>


> <Authors>
Chen, Z; Hu, B; Rej, RK; Wu, D; Acharyya, RK; Wang, M; Xu, T; Lu, J; Metwally, H; Wang, Y; McEachern, D; Bai, L; Gersch, CL; Wang, M; Zhang, W; Li, Q; Wen, B; Sun, D; Rae, JM; Wang, S

> <Date of publication>
9/14/2023

> <Date in BindingDB>
12/14/2024

> <Institution>
University of Michigan

> <Link to Ligand in BindingDB>
http://www.bindingdb.org/bind/chemsearch/marvin/MolStructure.jsp?monomerid=50618118

> <Link to Ligand-Target Pair in BindingDB>
http://www.bindingdb.org/jsp/dbsearch/PrimarySearch_ki.jsp?energyterm=kJ/mole&tag=pol&polymerid=50007050&target=Protein+cereblon&column=ki&startPg=0&Increment=50&submit=Search

> <Link to Ligand-Target Pair in BindingDB>
http://www.bindingdb.org/jsp/dbsearch/PrimarySearch_ki.jsp?energyterm=kJ/mole&tag=r21&monomerid=50618118&enzyme=Protein+cereblon&column=ki&startPg=0&Increment=50&submit=Search

> <Ligand HET ID in PDB>


> <PDB ID(s) for Ligand-Target Complex>


> <PubChem CID of Ligand>
156118351

> <PubChem SID of Ligand>
505051096

> <ChEBI ID of Ligand>


> <ChEMBL ID of Ligand>


> <DrugBank ID of Ligand>


> <IUPHAR_GRAC ID of Ligand>


> <KEGG ID of Ligand>


> <ZINC ID of Ligand>


> <Number of Protein Chains in Target (bigger than 1 implies a multichain complex)>
1

> <BindingDB Target Chain Sequence>
MAGEGDQQDAAHNMGNHLPLLPAESEEEDEMEVEDQDSKEAKKPNIINFDTSLPTSHTYLGADMEEFHGRTLHDDDSCQVIPVLPQVMMILIPGQTLPLQLFHPQEVSMVRNLIQKDRTFAVLAYSNVQEREAQFGTTAEIYAYREEQDFGIEIVKVKAIGRQRFKVLELRTQSDGIQQAKVQILPECVLPSTMSAVQLESLNKCQIFPSKPVSREDQCSYKWWQKYQKRKFHCANLTSWPRWLYSLYDAETLMDRIKKQLREWDENLKDDSLPSNPIDFSYRVAACLPIDDVLRIQLLKIGSAIQRLRCELDIMNKCTSLCCKQCQETEITTKNEIFSLSLCGPMAAYVNPHGYVHETLTVYKACNLNLIGRPSTEHSWFPGYAWTVAQCKICASHIGWKFTATKKDMSPQKFWGLTRSALLPTIPDTEDEISPDKVILCL

> <PDB ID(s) of Target Chain>
8TNR,8TNQ,8TNP,8D81,8D80,8D7Z,8D7Y,8D7X,8D7W,8D7V,8D7U,8CVP,9DQD,8UH6,6BOY,6BNB,6BN9,6BN8,6BN7,6XK9,6UML,5V3O,5HXB,7U8F,8OJH,8OIZ,7LPS,4TZ4,9DJX,9DJT,8U17,8U16,8U15,8TZX,8DEY,9CUO,4M91

> <UniProt (SwissProt) Recommended Name of Target Chain>
Protein cereblon

> <UniProt (SwissProt) Entry Name of Target Chain>
CRBN_HUMAN

> <UniProt (SwissProt) Primary ID of Target Chain>
Q96SW2

> <UniProt (SwissProt) Secondary ID(s) of Target Chain>
B2R6H4 C9IZA9 C9JAH6 Q6AI62 Q6NVZ0 Q9UHW4

> <UniProt (SwissProt) Alternative ID(s) of Target Chain>


> <UniProt (TrEMBL) Submitted Name of Target Chain>


> <UniProt (TrEMBL) Entry Name of Target Chain>


> <UniProt (TrEMBL) Primary ID of Target Chain>


> <UniProt (TrEMBL) Secondary ID(s) of Target Chain>


> <UniProt (TrEMBL) Alternative ID(s) of Target Chain>


$$$$
 
  Mrv0541 11231401562D          

 19 21  0  0  0  0            999 V2000
    0.8646  -22.9723    0.0000 C   0  0  0  0  0  0  0  0  0  0  0  0
    1.6916  -22.9723    0.0000 C   0  0  0  0  0  0  0  0  0  0  0  0
    2.1028  -22.2600    0.0000 C   0  0  0  0  0  0  0  0  0  0  0  0
    1.6916  -21.5432    0.0000 N   0  0  0  0  0  0  0  0  0  0  0  0
    0.8646  -21.5432    0.0000 C   0  0  0  0  0  0  0  0  0  0  0  0
    0.4488  -22.2600    0.0000 C   0  0  0  0  0  0  0  0  0  0  0  0
   -0.3797  -22.2649    0.0000 N   0  0  0  0  0  0  0  0  0  0  0  0
   -0.8667  -21.5966    0.0000 C   0  0  0  0  0  0  0  0  0  0  0  0
   -0.8649  -22.9346    0.0000 C   0  0  0  0  0  0  0  0  0  0  0  0
   -1.6518  -22.6803    0.0000 C   0  0  0  0  0  0  0  0  0  0  0  0
   -1.6493  -21.8553    0.0000 C   0  0  0  0  0  0  0  0  0  0  0  0
   -2.3613  -21.4425    0.0000 C   0  0  0  0  0  0  0  0  0  0  0  0
   -3.0763  -21.8535    0.0000 C   0  0  0  0  0  0  0  0  0  0  0  0
   -3.0748  -22.6816    0.0000 C   0  0  0  0  0  0  0  0  0  0  0  0
   -2.3622  -23.0907    0.0000 C   0  0  0  0  0  0  0  0  0  0  0  0
   -0.6138  -20.8092    0.0000 O   0  0  0  0  0  0  0  0  0  0  0  0
   -0.6082  -23.7207    0.0000 O   0  0  0  0  0  0  0  0  0  0  0  0
    0.4518  -20.8266    0.0000 O   0  0  0  0  0  0  0  0  0  0  0  0
    2.9298  -22.2612    0.0000 O   0  0  0  0  0  0  0  0  0  0  0  0
  9  7  1  0  0  0  0
  6  7  1  0  0  0  0
  2  3  1  0  0  0  0
  3  4  1  0  0  0  0
 10 11  2  0  0  0  0
  4  5  1  0  0  0  0
 11 12  1  0  0  0  0
  5  6  1  0  0  0  0
 12 13  2  0  0  0  0
  7  8  1  0  0  0  0
 13 14  1  0  0  0  0
 14 15  2  0  0  0  0
 15 10  1  0  0  0  0
  1  2  1  0  0  0  0
  8 16  2  0  0  0  0
  1  6  1  0  0  0  0
  9 17  2  0  0  0  0
  8 11  1  0  0  0  0
  5 18  2  0  0  0  0
 10  9  1  0  0  0  0
  3 19  2  0  0  0  0
M  END
> <From>
www.bindingDB.org

> <BindingDB Reactant_set_id>
51536502

> <Ligand InChI>
InChI=1S/C13H10N2O4/c16-10-6-5-9(11(17)14-10)15-12(18)7-3-1-2-4-8(7)13(15)19/h1-4,9H,5-6H2,(H,14,16,17)

> <Ligand InChI Key>
UEJJHQNACJXSKW-UHFFFAOYSA-N

> <BindingDB MonomerID>
50070114

> <BindingDB Ligand Name>
(+/-)-thalidomide::2-(2,6-Dioxo-piperidin-3-yl)-isoindole-1,3-dione::2-(2,6-dioxopiperidin-3-yl)isoindoline-1,3-dione::CHEMBL468::K-17::THALIDOMIDE::Thalomid::US11059801, Compound D-62::[(R,S)-2-(2,6-dioxo-3-piperidinyl)-1H-isoindole-1,3(2H)-dione

> <Target Name>
Protein cereblon

> <Target Source Organism According to Curator or DataSource>
Homo sapiens

> <Ki (nM)>


> <IC50 (nM)>
 2900

> <Kd (nM)>


> <EC50 (nM)>


> <kon (M-1-s-1)>


> <koff (s-1)>


> <pH>


> <Temp C>


> <Curation/DataSource>
ChEMBL

> <Article DOI>
10.1021/acs.jmedchem.3c01186

> <BindingDB Entry DOI>
10.7270/Q2SX6JKK

> <PMID>
37647546

> <PubChem AID>


> <Patent Number>


> <Authors>
n/a

> <Date of publication>
9/14/2023

> <Date in BindingDB>
12/14/2024

> <Institution>
n/a

> <Link to Ligand in BindingDB>
http://www.bindingdb.org/bind/chemsearch/marvin/MolStructure.jsp?monomerid=50070114

> <Link to Ligand-Target Pair in BindingDB>
http://www.bindingdb.org/jsp/dbsearch/PrimarySearch_ki.jsp?energyterm=kJ/mole&tag=pol&polymerid=50007050&target=Protein+cereblon&column=ki&startPg=0&Increment=50&submit=Search

> <Link to Ligand-Target Pair in BindingDB>
http://www.bindingdb.org/jsp/dbsearch/PrimarySearch_ki.jsp?energyterm=kJ/mole&tag=r21&monomerid=50070114&enzyme=Protein+cereblon&column=ki&startPg=0&Increment=50&submit=Search

> <Ligand HET ID in PDB>
EF2    

> <PDB ID(s) for Ligand-Target Complex>
4CI1,8BC7,5AMI,5AMH,7BQU,5YIZ,7PSO,4V32,4V2Y,5OH1,5AMK,5AMJ,6R13,6R12,6R19,6R18,6R1C,6R1A,6R1W,6R0U,6R0S,5YJ0,4TZC,8OU3

> <PubChem CID of Ligand>
5426

> <PubChem SID of Ligand>
103964042

> <ChEBI ID of Ligand>
74947

> <ChEMBL ID of Ligand>
CHEMBL468

> <DrugBank ID of Ligand>
DB01041

> <IUPHAR_GRAC ID of Ligand>
7327

> <KEGG ID of Ligand>
C07910

> <ZINC ID of Ligand>
ZINC01530948

> <Number of Protein Chains in Target (bigger than 1 implies a multichain complex)>
1

> <BindingDB Target Chain Sequence>
MAGEGDQQDAAHNMGNHLPLLPAESEEEDEMEVEDQDSKEAKKPNIINFDTSLPTSHTYLGADMEEFHGRTLHDDDSCQVIPVLPQVMMILIPGQTLPLQLFHPQEVSMVRNLIQKDRTFAVLAYSNVQEREAQFGTTAEIYAYREEQDFGIEIVKVKAIGRQRFKVLELRTQSDGIQQAKVQILPECVLPSTMSAVQLESLNKCQIFPSKPVSREDQCSYKWWQKYQKRKFHCANLTSWPRWLYSLYDAETLMDRIKKQLREWDENLKDDSLPSNPIDFSYRVAACLPIDDVLRIQLLKIGSAIQRLRCELDIMNKCTSLCCKQCQETEITTKNEIFSLSLCGPMAAYVNPHGYVHETLTVYKACNLNLIGRPSTEHSWFPGYAWTVAQCKICASHIGWKFTATKKDMSPQKFWGLTRSALLPTIPDTEDEISPDKVILCL

> <PDB ID(s) of Target Chain>
8TNR,8TNQ,8TNP,8D81,8D80,8D7Z,8D7Y,8D7X,8D7W,8D7V,8D7U,8CVP,9DQD,8UH6,6BOY,6BNB,6BN9,6BN8,6BN7,6XK9,6UML,5V3O,5HXB,7U8F,8OJH,8OIZ,7LPS,4TZ4,9DJX,9DJT,8U17,8U16,8U15,8TZX,8DEY,9CUO,4M91

> <UniProt (SwissProt) Recommended Name of Target Chain>
Protein cereblon

> <UniProt (SwissProt) Entry Name of Target Chain>
CRBN_HUMAN

> <UniProt (SwissProt) Primary ID of Target Chain>
Q96SW2

> <UniProt (SwissProt) Secondary ID(s) of Target Chain>
B2R6H4 C9IZA9 C9JAH6 Q6AI62 Q6NVZ0 Q9UHW4

> <UniProt (SwissProt) Alternative ID(s) of Target Chain>


> <UniProt (TrEMBL) Submitted Name of Target Chain>


> <UniProt (TrEMBL) Entry Name of Target Chain>


> <UniProt (TrEMBL) Primary ID of Target Chain>


> <UniProt (TrEMBL) Secondary ID(s) of Target Chain>


> <UniProt (TrEMBL) Alternative ID(s) of Target Chain>


$$$$

     RDKit          2D

 19 21  0  0  0  0  0  0  0  0999 V2000
    4.9042   -3.5667    0.0000 N   0  0  0  0  0  0  0  0  0  0  0  0
    4.4167   -2.9042    0.0000 C   0  0  0  0  0  0  0  0  0  0  0  0
    3.6375   -3.1542    0.0000 C   0  0  0  0  0  0  0  0  0  0  0  0
    6.1375   -2.8542    0.0000 C   0  0  0  0  0  0  0  0  0  0  0  0
    6.9667   -2.8667    0.0000 N   0  0  0  0  0  0  0  0  0  0  0  0
    5.7292   -3.5750    0.0000 C   0  0  0  0  0  0  0  0  0  0  0  0
    3.6292   -3.9792    0.0000 C   0  0  0  0  0  0  0  0  0  0  0  0
    4.4167   -4.2375    0.0000 C   0  0  0  0  0  0  0  0  0  0  0  0
    7.3750   -3.5792    0.0000 C   0  0  0  0  0  0  0  0  0  0  0  0
    4.6750   -2.1167    0.0000 O   0  0  0  0  0  0  0  0  0  0  0  0
    6.1375   -4.2917    0.0000 C   0  0  0  0  0  0  0  0  0  0  0  0
    2.9250   -2.7417    0.0000 C   0  0  0  0  0  0  0  0  0  0  0  0
    5.7250   -2.1417    0.0000 O   0  0  0  0  0  0  0  0  0  0  0  0
    8.2000   -3.5792    0.0000 O   0  0  0  0  0  0  0  0  0  0  0  0
    6.9542   -4.2917    0.0000 C   0  0  0  0  0  0  0  0  0  0  0  0
    2.9250   -1.9167    0.0000 N   0  0  0  0  0  0  0  0  0  0  0  0
    2.9167   -4.3917    0.0000 C   0  0  0  0  0  0  0  0  0  0  0  0
    2.2042   -3.9792    0.0000 C   0  0  0  0  0  0  0  0  0  0  0  0
    2.2125   -3.1542    0.0000 C   0  0  0  0  0  0  0  0  0  0  0  0
  2  1  1  0
  3  2  1  0
  4  6  1  0
  5  4  1  0
  6  1  1  0
  7  8  1  0
  8  1  1  0
  9 15  1  0
 10  2  2  0
 11  6  1  0
 12  3  2  0
 13  4  2  0
 14  9  2  0
 15 11  1  0
 16 12  1  0
 17  7  2  0
 18 17  1  0
 19 12  1  0
  7  3  1  0
  9  5  1  0
 18 19  2  0
M  END
> <From>
www.bindingDB.org

> <BindingDB Reactant_set_id>
51526251

> <Ligand InChI>
InChI=1S/C13H13N3O3/c14-8-3-1-2-7-6-16(13(19)11(7)8)9-4-5-10(17)15-12(9)18/h1-3,9H,4-6,14H2,(H,15,17,18)

> <Ligand InChI Key>
XKAYAFBLGLCWSY-UHFFFAOYSA-N

> <BindingDB MonomerID>
50614102

> <BindingDB Ligand Name>
CHEMBL296118

> <Target Name>
Protein cereblon

> <Target Source Organism According to Curator or DataSource>
Human

> <Ki (nM)>


> <IC50 (nM)>
 2900

> <Kd (nM)>


> <EC50 (nM)>


> <kon (M-1-s-1)>


> <koff (s-1)>


> <pH>


> <Temp C>


> <Curation/DataSource>
ChEMBL

> <Article DOI>


> <BindingDB Entry DOI>
10.7270/Q2V12923

> <PMID>
36970148

> <PubChem AID>


> <Patent Number>


> <Authors>
n/a

> <Date of publication>
3/22/2023

> <Date in BindingDB>
4/22/2024

> <Institution>
n/a

> <Link to Ligand in BindingDB>
http://www.bindingdb.org/bind/chemsearch/marvin/MolStructure.jsp?monomerid=50614102

> <Link to Ligand-Target Pair in BindingDB>
http://www.bindingdb.org/jsp/dbsearch/PrimarySearch_ki.jsp?energyterm=kJ/mole&tag=pol&polymerid=50007050&target=Protein+cereblon&column=ki&startPg=0&Increment=50&submit=Search

> <Link to Ligand-Target Pair in BindingDB>
http://www.bindingdb.org/jsp/dbsearch/PrimarySearch_ki.jsp?energyterm=kJ/mole&tag=r21&monomerid=50614102&enzyme=Protein+cereblon&column=ki&startPg=0&Increment=50&submit=Search

> <Ligand HET ID in PDB>


> <PDB ID(s) for Ligand-Target Complex>


> <PubChem CID of Ligand>
21928247

> <PubChem SID of Ligand>
494503850

> <ChEBI ID of Ligand>


> <ChEMBL ID of Ligand>


> <DrugBank ID of Ligand>


> <IUPHAR_GRAC ID of Ligand>


> <KEGG ID of Ligand>


> <ZINC ID of Ligand>


> <Number of Protein Chains in Target (bigger than 1 implies a multichain complex)>
1

> <BindingDB Target Chain Sequence>
MAGEGDQQDAAHNMGNHLPLLPAESEEEDEMEVEDQDSKEAKKPNIINFDTSLPTSHTYLGADMEEFHGRTLHDDDSCQVIPVLPQVMMILIPGQTLPLQLFHPQEVSMVRNLIQKDRTFAVLAYSNVQEREAQFGTTAEIYAYREEQDFGIEIVKVKAIGRQRFKVLELRTQSDGIQQAKVQILPECVLPSTMSAVQLESLNKCQIFPSKPVSREDQCSYKWWQKYQKRKFHCANLTSWPRWLYSLYDAETLMDRIKKQLREWDENLKDDSLPSNPIDFSYRVAACLPIDDVLRIQLLKIGSAIQRLRCELDIMNKCTSLCCKQCQETEITTKNEIFSLSLCGPMAAYVNPHGYVHETLTVYKACNLNLIGRPSTEHSWFPGYAWTVAQCKICASHIGWKFTATKKDMSPQKFWGLTRSALLPTIPDTEDEISPDKVILCL

> <PDB ID(s) of Target Chain>
4TZ4,5HXB,5V3O,6UML,6XK9,7LPS,7U8F,8CVP,8D7U,8D7V,8D7W,8D7X,8D7Y,8D7Z,8D80,8D81,8DEY,8OIZ,8OJH,8U15,8U16,8U17

> <UniProt (SwissProt) Recommended Name of Target Chain>
Protein cereblon

> <UniProt (SwissProt) Entry Name of Target Chain>
CRBN_HUMAN

> <UniProt (SwissProt) Primary ID of Target Chain>
Q96SW2

> <UniProt (SwissProt) Secondary ID(s) of Target Chain>
B2R6H4 C9IZA9 C9JAH6 Q6AI62 Q6NVZ0 Q9UHW4

> <UniProt (SwissProt) Alternative ID(s) of Target Chain>


> <UniProt (TrEMBL) Submitted Name of Target Chain>


> <UniProt (TrEMBL) Entry Name of Target Chain>


> <UniProt (TrEMBL) Primary ID of Target Chain>


> <UniProt (TrEMBL) Secondary ID(s) of Target Chain>


> <UniProt (TrEMBL) Alternative ID(s) of Target Chain>


$$$$
216326
  Mrv0541 01031813182D          

 19 21  0  0  1  0            999 V2000
    4.1147   -1.6769    0.0000 O   0  0  0  0  0  0  0  0  0  0  0  0
    5.1652    1.2004    0.0000 O   0  0  0  0  0  0  0  0  0  0  0  0
    7.6402   -0.2289    0.0000 O   0  0  0  0  0  0  0  0  0  0  0  0
    4.3402   -0.2289    0.0000 N   0  0  0  0  0  0  0  0  0  0  0  0
    6.4025    0.4857    0.0000 N   0  0  0  0  0  0  0  0  0  0  0  0
    2.3633    1.4212    0.0000 N   0  0  0  0  0  0  0  0  0  0  0  0
    5.1652   -0.2289    0.0000 C   0  0  0  0  0  0  0  0  0  0  0  0
    5.5775   -0.9433    0.0000 C   0  0  0  0  0  0  0  0  0  0  0  0
    3.8585    0.4351    0.0000 C   0  0  0  0  0  0  0  0  0  0  0  0
    3.0778    0.1836    0.0000 C   0  0  0  0  0  0  0  0  0  0  0  0
    3.8585   -0.8928    0.0000 C   0  0  0  0  0  0  0  0  0  0  0  0
    6.4025   -0.9433    0.0000 C   0  0  0  0  0  0  0  0  0  0  0  0
    3.0778   -0.6414    0.0000 C   0  0  0  0  0  0  0  0  0  0  0  0
    5.5775    0.4857    0.0000 C   0  0  0  0  0  0  0  0  0  0  0  0
    6.8152   -0.2289    0.0000 C   0  0  0  0  0  0  0  0  0  0  0  0
    2.3633    0.5962    0.0000 C   0  0  0  0  0  0  0  0  0  0  0  0
    2.3633   -1.0539    0.0000 C   0  0  0  0  0  0  0  0  0  0  0  0
    1.6488    0.1836    0.0000 C   0  0  0  0  0  0  0  0  0  0  0  0
    1.6488   -0.6414    0.0000 C   0  0  0  0  0  0  0  0  0  0  0  0
  1 11  2  0  0  0  0
  2 14  2  0  0  0  0
  3 15  2  0  0  0  0
  4  7  1  0  0  0  0
  4  9  1  0  0  0  0
  4 11  1  0  0  0  0
  5 14  1  0  0  0  0
  5 15  1  0  0  0  0
  6 16  1  0  0  0  0
  7  8  1  0  0  0  0
  7 14  1  0  0  0  0
  8 12  1  0  0  0  0
  9 10  1  0  0  0  0
 10 13  4  0  0  0  0
 10 16  4  0  0  0  0
 11 13  1  0  0  0  0
 12 15  1  0  0  0  0
 13 17  4  0  0  0  0
 16 18  4  0  0  0  0
 17 19  4  0  0  0  0
 18 19  4  0  0  0  0
M  END
> <From>
www.bindingDB.org

> <BindingDB Reactant_set_id>
51536501

> <Ligand InChI>
InChI=1S/C13H13N3O3/c14-9-3-1-2-7-8(9)6-16(13(7)19)10-4-5-11(17)15-12(10)18/h1-3,10H,4-6,14H2,(H,15,17,18)

> <Ligand InChI Key>
GOTYRUGSSMKFNF-UHFFFAOYSA-N

> <BindingDB MonomerID>
65454

> <BindingDB Ligand Name>
191732-72-6::CC-5013::Lenalidomide::Revimid::Revlimid::US11530219, Compound Lenalidomide::US9694015, 6.1

> <Target Name>
Protein cereblon

> <Target Source Organism According to Curator or DataSource>
Homo sapiens

> <Ki (nM)>


> <IC50 (nM)>
 3600

> <Kd (nM)>


> <EC50 (nM)>


> <kon (M-1-s-1)>


> <koff (s-1)>


> <pH>


> <Temp C>


> <Curation/DataSource>
ChEMBL

> <Article DOI>
10.1021/acs.jmedchem.3c01186

> <BindingDB Entry DOI>
10.7270/Q2SX6JKK

> <PMID>
37647546

> <PubChem AID>


> <Patent Number>


> <Authors>
n/a

> <Date of publication>
9/14/2023

> <Date in BindingDB>
12/14/2024

> <Institution>
n/a

> <Link to Ligand in BindingDB>
http://www.bindingdb.org/bind/chemsearch/marvin/MolStructure.jsp?monomerid=65454

> <Link to Ligand-Target Pair in BindingDB>
http://www.bindingdb.org/jsp/dbsearch/PrimarySearch_ki.jsp?energyterm=kJ/mole&tag=pol&polymerid=50007050&target=Protein+cereblon&column=ki&startPg=0&Increment=50&submit=Search

> <Link to Ligand-Target Pair in BindingDB>
http://www.bindingdb.org/jsp/dbsearch/PrimarySearch_ki.jsp?energyterm=kJ/mole&tag=r21&monomerid=65454&enzyme=Protein+cereblon&column=ki&startPg=0&Increment=50&submit=Search

> <Ligand HET ID in PDB>
LVY    

> <PDB ID(s) for Ligand-Target Complex>
8RQA,4CI2,5FQD,4V30,4TZ4

> <PubChem CID of Ligand>
216326

> <PubChem SID of Ligand>
350083085

> <ChEBI ID of Ligand>


> <ChEMBL ID of Ligand>


> <DrugBank ID of Ligand>
DB00480

> <IUPHAR_GRAC ID of Ligand>


> <KEGG ID of Ligand>


> <ZINC ID of Ligand>
ZINC02508407

> <Number of Protein Chains in Target (bigger than 1 implies a multichain complex)>
1

> <BindingDB Target Chain Sequence>
MAGEGDQQDAAHNMGNHLPLLPAESEEEDEMEVEDQDSKEAKKPNIINFDTSLPTSHTYLGADMEEFHGRTLHDDDSCQVIPVLPQVMMILIPGQTLPLQLFHPQEVSMVRNLIQKDRTFAVLAYSNVQEREAQFGTTAEIYAYREEQDFGIEIVKVKAIGRQRFKVLELRTQSDGIQQAKVQILPECVLPSTMSAVQLESLNKCQIFPSKPVSREDQCSYKWWQKYQKRKFHCANLTSWPRWLYSLYDAETLMDRIKKQLREWDENLKDDSLPSNPIDFSYRVAACLPIDDVLRIQLLKIGSAIQRLRCELDIMNKCTSLCCKQCQETEITTKNEIFSLSLCGPMAAYVNPHGYVHETLTVYKACNLNLIGRPSTEHSWFPGYAWTVAQCKICASHIGWKFTATKKDMSPQKFWGLTRSALLPTIPDTEDEISPDKVILCL

> <PDB ID(s) of Target Chain>
8TNR,8TNQ,8TNP,8D81,8D80,8D7Z,8D7Y,8D7X,8D7W,8D7V,8D7U,8CVP,9DQD,8UH6,6BOY,6BNB,6BN9,6BN8,6BN7,6XK9,6UML,5V3O,5HXB,7U8F,8OJH,8OIZ,7LPS,4TZ4,9DJX,9DJT,8U17,8U16,8U15,8TZX,8DEY,9CUO,4M91

> <UniProt (SwissProt) Recommended Name of Target Chain>
Protein cereblon

> <UniProt (SwissProt) Entry Name of Target Chain>
CRBN_HUMAN

> <UniProt (SwissProt) Primary ID of Target Chain>
Q96SW2

> <UniProt (SwissProt) Secondary ID(s) of Target Chain>
B2R6H4 C9IZA9 C9JAH6 Q6AI62 Q6NVZ0 Q9UHW4

> <UniProt (SwissProt) Alternative ID(s) of Target Chain>


> <UniProt (TrEMBL) Submitted Name of Target Chain>


> <UniProt (TrEMBL) Entry Name of Target Chain>


> <UniProt (TrEMBL) Primary ID of Target Chain>


> <UniProt (TrEMBL) Secondary ID(s) of Target Chain>


> <UniProt (TrEMBL) Alternative ID(s) of Target Chain>


$$$$
 
     RDKit          2D

 22 23  0  0  0  0  0  0  0  0999 V2000
    0.4110    0.8268    0.0000 O   0  0  0  0  0  0  0  0  0  0  0  0
    0.4110    0.0018    0.0000 C   0  0  0  0  0  0  0  0  0  0  0  0
    1.1255   -0.4105    0.0000 N   0  0  0  0  0  0  0  0  0  0  0  0
    1.8399    0.0018    0.0000 C   0  0  0  0  0  0  0  0  0  0  0  0
    2.5543   -0.4105    0.0000 C   0  0  0  0  0  0  0  0  0  0  0  0
    2.5543   -1.2355    0.0000 O   0  0  0  0  0  0  0  0  0  0  0  0
    3.2688    0.0018    0.0000 N   0  0  0  0  0  0  0  0  0  0  0  0
    3.2688    0.8268    0.0000 C   0  0  0  0  0  0  0  0  0  0  0  0
    3.9833    1.2392    0.0000 O   0  0  0  0  0  0  0  0  0  0  0  0
    2.5543    1.2392    0.0000 C   0  0  0  0  0  0  0  0  0  0  0  0
    1.8399    0.8268    0.0000 C   0  0  0  0  0  0  0  0  0  0  0  0
   -0.3033   -0.4105    0.0000 C   0  0  0  0  0  0  0  0  0  0  0  0
   -1.0177    0.0018    0.0000 C   0  0  0  0  0  0  0  0  0  0  0  0
   -1.7277   -0.4098    0.0000 C   0  0  0  0  0  0  0  0  0  0  0  0
   -2.4438   -0.0018    0.0000 C   0  0  0  0  0  0  0  0  0  0  0  0
   -2.4438    0.8264    0.0000 C   0  0  0  0  0  0  0  0  0  0  0  0
   -1.7294    1.2386    0.0000 C   0  0  0  0  0  0  0  0  0  0  0  0
   -1.0177    0.8268    0.0000 C   0  0  0  0  0  0  0  0  0  0  0  0
   -3.1583   -0.4142    0.0000 S   0  0  0  0  0  0  0  0  0  0  0  0
   -3.1583   -1.2392    0.0000 F   0  0  0  0  0  0  0  0  0  0  0  0
   -3.5715    0.3015    0.0000 O   0  0  0  0  0  0  0  0  0  0  0  0
   -3.9833   -0.4142    0.0000 O   0  0  0  0  0  0  0  0  0  0  0  0
  2  1  2  0
  2  3  1  0
  3  4  1  0
  4  5  1  0
  5  6  2  0
  5  7  1  0
  7  8  1  0
  8  9  2  0
  8 10  1  0
 10 11  1  0
 11  4  1  0
 12  2  1  0
 13 12  1  0
 14 13  1  0
 15 14  2  0
 16 15  1  0
 17 16  2  0
 18 17  1  0
 13 18  2  0
 15 19  1  0
 19 20  1  0
 19 21  2  0
 19 22  2  0
M  END
> <From>
www.bindingDB.org

> <BindingDB Reactant_set_id>
51570919

> <Ligand InChI>
InChI=1S/C13H13FN2O5S/c14-22(20,21)9-3-1-2-8(6-9)7-12(18)15-10-4-5-11(17)16-13(10)19/h1-3,6,10H,4-5,7H2,(H,15,18)(H,16,17,19)

> <Ligand InChI Key>
LWEWTHYJTCCIIF-UHFFFAOYSA-N

> <BindingDB MonomerID>
50631802

> <BindingDB Ligand Name>
CHEMBL5397713

> <Target Name>
Protein cereblon

> <Target Source Organism According to Curator or DataSource>
Homo sapiens

> <Ki (nM)>


> <IC50 (nM)>
 3600

> <Kd (nM)>


> <EC50 (nM)>


> <kon (M-1-s-1)>


> <koff (s-1)>


> <pH>


> <Temp C>


> <Curation/DataSource>
ChEMBL

> <Article DOI>
10.1039/d3md00652b

> <BindingDB Entry DOI>
10.7270/Q2CV4P64

> <PMID>
38389883

> <PubChem AID>


> <Patent Number>


> <Authors>
Liu, Y; Nowak, RP; Che, J; Donovan, KA; Huerta, F; Liu, H; Metivier, RJ; Fischer, ES; Jones, LH

> <Date of publication>
2/21/2024

> <Date in BindingDB>
12/21/2024

> <Institution>
Dana-Farber Cancer Institute

> <Link to Ligand in BindingDB>
http://www.bindingdb.org/bind/chemsearch/marvin/MolStructure.jsp?monomerid=50631802

> <Link to Ligand-Target Pair in BindingDB>
http://www.bindingdb.org/jsp/dbsearch/PrimarySearch_ki.jsp?energyterm=kJ/mole&tag=pol&polymerid=50007050&target=Protein+cereblon&column=ki&startPg=0&Increment=50&submit=Search

> <Link to Ligand-Target Pair in BindingDB>
http://www.bindingdb.org/jsp/dbsearch/PrimarySearch_ki.jsp?energyterm=kJ/mole&tag=r21&monomerid=50631802&enzyme=Protein+cereblon&column=ki&startPg=0&Increment=50&submit=Search

> <Ligand HET ID in PDB>


> <PDB ID(s) for Ligand-Target Complex>


> <PubChem CID of Ligand>
172440969

> <PubChem SID of Ligand>
505036136

> <ChEBI ID of Ligand>


> <ChEMBL ID of Ligand>


> <DrugBank ID of Ligand>


> <IUPHAR_GRAC ID of Ligand>


> <KEGG ID of Ligand>


> <ZINC ID of Ligand>


> <Number of Protein Chains in Target (bigger than 1 implies a multichain complex)>
1

> <BindingDB Target Chain Sequence>
MAGEGDQQDAAHNMGNHLPLLPAESEEEDEMEVEDQDSKEAKKPNIINFDTSLPTSHTYLGADMEEFHGRTLHDDDSCQVIPVLPQVMMILIPGQTLPLQLFHPQEVSMVRNLIQKDRTFAVLAYSNVQEREAQFGTTAEIYAYREEQDFGIEIVKVKAIGRQRFKVLELRTQSDGIQQAKVQILPECVLPSTMSAVQLESLNKCQIFPSKPVSREDQCSYKWWQKYQKRKFHCANLTSWPRWLYSLYDAETLMDRIKKQLREWDENLKDDSLPSNPIDFSYRVAACLPIDDVLRIQLLKIGSAIQRLRCELDIMNKCTSLCCKQCQETEITTKNEIFSLSLCGPMAAYVNPHGYVHETLTVYKACNLNLIGRPSTEHSWFPGYAWTVAQCKICASHIGWKFTATKKDMSPQKFWGLTRSALLPTIPDTEDEISPDKVILCL

> <PDB ID(s) of Target Chain>
8TNR,8TNQ,8TNP,8D81,8D80,8D7Z,8D7Y,8D7X,8D7W,8D7V,8D7U,8CVP,9DQD,8UH6,6BOY,6BNB,6BN9,6BN8,6BN7,6XK9,6UML,5V3O,5HXB,7U8F,8OJH,8OIZ,7LPS,4TZ4,9DJX,9DJT,8U17,8U16,8U15,8TZX,8DEY,9CUO,4M91

> <UniProt (SwissProt) Recommended Name of Target Chain>
Protein cereblon

> <UniProt (SwissProt) Entry Name of Target Chain>
CRBN_HUMAN

> <UniProt (SwissProt) Primary ID of Target Chain>
Q96SW2

> <UniProt (SwissProt) Secondary ID(s) of Target Chain>
B2R6H4 C9IZA9 C9JAH6 Q6AI62 Q6NVZ0 Q9UHW4

> <UniProt (SwissProt) Alternative ID(s) of Target Chain>


> <UniProt (TrEMBL) Submitted Name of Target Chain>


> <UniProt (TrEMBL) Entry Name of Target Chain>


> <UniProt (TrEMBL) Primary ID of Target Chain>


> <UniProt (TrEMBL) Secondary ID(s) of Target Chain>


> <UniProt (TrEMBL) Alternative ID(s) of Target Chain>


$$$$
 
     RDKit          2D

 27 30  0  0  0  0  0  0  0  0999 V2000
   -1.6320    0.3565    0.0000 C   0  0  0  0  0  0  0  0  0  0  0  0
   -0.9175    0.7690    0.0000 C   0  0  0  0  0  0  0  0  0  0  0  0
   -0.2030    0.3565    0.0000 C   0  0  0  0  0  0  0  0  0  0  0  0
   -0.2030   -0.4684    0.0000 C   0  0  0  0  0  0  0  0  0  0  0  0
   -0.9175   -0.8810    0.0000 C   0  0  0  0  0  0  0  0  0  0  0  0
   -1.6320   -0.4684    0.0000 C   0  0  0  0  0  0  0  0  0  0  0  0
    0.5815   -0.7234    0.0000 C   0  0  0  0  0  0  0  0  0  0  0  0
    1.0665   -0.0560    0.0000 N   0  0  0  0  0  0  0  0  0  0  0  0
    0.5815    0.6114    0.0000 C   0  0  0  0  0  0  0  0  0  0  0  0
    0.7950    1.4081    0.0000 O   0  0  0  0  0  0  0  0  0  0  0  0
    1.8912   -0.0560    0.0000 C   0  0  0  0  0  0  0  0  0  0  0  0
    2.3036    0.6582    0.0000 C   0  0  0  0  0  0  0  0  0  0  0  0
    3.1284    0.6582    0.0000 C   0  0  0  0  0  0  0  0  0  0  0  0
    3.5408   -0.0560    0.0000 C   0  0  0  0  0  0  0  0  0  0  0  0
    3.1284   -0.7703    0.0000 N   0  0  0  0  0  0  0  0  0  0  0  0
    2.3037   -0.7703    0.0000 C   0  0  0  0  0  0  0  0  0  0  0  0
    1.8912   -1.4845    0.0000 O   0  0  0  0  0  0  0  0  0  0  0  0
    4.3656   -0.0560    0.0000 O   0  0  0  0  0  0  0  0  0  0  0  0
   -2.3463    0.7689    0.0000 S   0  0  0  0  0  0  0  0  0  0  0  0
   -3.0606    0.3565    0.0000 N   0  0  0  0  0  0  0  0  0  0  0  0
   -1.9331    1.4845    0.0000 O   0  0  0  0  0  0  0  0  0  0  0  0
   -2.7579    1.4845    0.0000 O   0  0  0  0  0  0  0  0  0  0  0  0
   -3.1467   -0.4633    0.0000 C   0  0  0  0  0  0  0  0  0  0  0  0
   -3.9531   -0.6347    0.0000 C   0  0  0  0  0  0  0  0  0  0  0  0
   -4.3654    0.0792    0.0000 C   0  0  0  0  0  0  0  0  0  0  0  0
   -3.8136    0.6918    0.0000 N   0  0  0  0  0  0  0  0  0  0  0  0
   -4.3656   -1.3490    0.0000 C   0  0  0  0  0  0  0  0  0  0  0  0
  1  2  1  0
  3  2  2  0
  4  3  1  0
  5  4  2  0
  6  5  1  0
  1  6  2  0
  4  7  1  0
  8  7  1  0
  9  8  1  0
  3  9  1  0
  9 10  2  0
  8 11  1  0
 12 11  1  0
 13 12  1  0
 14 13  1  0
 15 14  1  0
 16 15  1  0
 11 16  1  0
 16 17  2  0
 14 18  2  0
  1 19  1  0
 19 20  1  0
 19 21  2  0
 19 22  2  0
 23 20  1  0
 23 24  2  0
 24 25  1  0
 25 26  2  0
 26 20  1  0
 24 27  1  0
M  END
> <From>
www.bindingDB.org

> <BindingDB Reactant_set_id>
51568402

> <Ligand InChI>
InChI=1S/C17H16N4O5S/c1-10-7-18-21(8-10)27(25,26)12-3-2-11-9-20(17(24)13(11)6-12)14-4-5-15(22)19-16(14)23/h2-3,6-8,14H,4-5,9H2,1H3,(H,19,22,23)

> <Ligand InChI Key>
ZVFRHHYHSDAJGY-UHFFFAOYSA-N

> <BindingDB MonomerID>
50630775

> <BindingDB Ligand Name>
CHEMBL5421432

> <Target Name>
Protein cereblon

> <Target Source Organism According to Curator or DataSource>
Homo sapiens

> <Ki (nM)>


> <IC50 (nM)>
 3752

> <Kd (nM)>


> <EC50 (nM)>


> <kon (M-1-s-1)>


> <koff (s-1)>


> <pH>


> <Temp C>


> <Curation/DataSource>
ChEMBL

> <Article DOI>
10.1021/acsmedchemlett.3c00371

> <BindingDB Entry DOI>
10.7270/Q28D01RH

> <PMID>
37974938

> <PubChem AID>


> <Patent Number>


> <Authors>
Cruite, JT; Nowak, RP; Donovan, KA; Ficarro, SB; Huang, H; Liu, H; Liu, Y; Marto, JA; Metivier, RJ; Fischer, ES; Jones, LH

> <Date of publication>
11/9/2023

> <Date in BindingDB>
12/20/2024

> <Institution>
Dana-Farber Cancer Institute

> <Link to Ligand in BindingDB>
http://www.bindingdb.org/bind/chemsearch/marvin/MolStructure.jsp?monomerid=50630775

> <Link to Ligand-Target Pair in BindingDB>
http://www.bindingdb.org/jsp/dbsearch/PrimarySearch_ki.jsp?energyterm=kJ/mole&tag=pol&polymerid=50007050&target=Protein+cereblon&column=ki&startPg=0&Increment=50&submit=Search

> <Link to Ligand-Target Pair in BindingDB>
http://www.bindingdb.org/jsp/dbsearch/PrimarySearch_ki.jsp?energyterm=kJ/mole&tag=r21&monomerid=50630775&enzyme=Protein+cereblon&column=ki&startPg=0&Increment=50&submit=Search

> <Ligand HET ID in PDB>


> <PDB ID(s) for Ligand-Target Complex>


> <PubChem CID of Ligand>
168190696

> <PubChem SID of Ligand>
505048746

> <ChEBI ID of Ligand>


> <ChEMBL ID of Ligand>


> <DrugBank ID of Ligand>


> <IUPHAR_GRAC ID of Ligand>


> <KEGG ID of Ligand>


> <ZINC ID of Ligand>


> <Number of Protein Chains in Target (bigger than 1 implies a multichain complex)>
1

> <BindingDB Target Chain Sequence>
MAGEGDQQDAAHNMGNHLPLLPAESEEEDEMEVEDQDSKEAKKPNIINFDTSLPTSHTYLGADMEEFHGRTLHDDDSCQVIPVLPQVMMILIPGQTLPLQLFHPQEVSMVRNLIQKDRTFAVLAYSNVQEREAQFGTTAEIYAYREEQDFGIEIVKVKAIGRQRFKVLELRTQSDGIQQAKVQILPECVLPSTMSAVQLESLNKCQIFPSKPVSREDQCSYKWWQKYQKRKFHCANLTSWPRWLYSLYDAETLMDRIKKQLREWDENLKDDSLPSNPIDFSYRVAACLPIDDVLRIQLLKIGSAIQRLRCELDIMNKCTSLCCKQCQETEITTKNEIFSLSLCGPMAAYVNPHGYVHETLTVYKACNLNLIGRPSTEHSWFPGYAWTVAQCKICASHIGWKFTATKKDMSPQKFWGLTRSALLPTIPDTEDEISPDKVILCL

> <PDB ID(s) of Target Chain>
8TNR,8TNQ,8TNP,8D81,8D80,8D7Z,8D7Y,8D7X,8D7W,8D7V,8D7U,8CVP,9DQD,8UH6,6BOY,6BNB,6BN9,6BN8,6BN7,6XK9,6UML,5V3O,5HXB,7U8F,8OJH,8OIZ,7LPS,4TZ4,9DJX,9DJT,8U17,8U16,8U15,8TZX,8DEY,9CUO,4M91

> <UniProt (SwissProt) Recommended Name of Target Chain>
Protein cereblon

> <UniProt (SwissProt) Entry Name of Target Chain>
CRBN_HUMAN

> <UniProt (SwissProt) Primary ID of Target Chain>
Q96SW2

> <UniProt (SwissProt) Secondary ID(s) of Target Chain>
B2R6H4 C9IZA9 C9JAH6 Q6AI62 Q6NVZ0 Q9UHW4

> <UniProt (SwissProt) Alternative ID(s) of Target Chain>


> <UniProt (TrEMBL) Submitted Name of Target Chain>


> <UniProt (TrEMBL) Entry Name of Target Chain>


> <UniProt (TrEMBL) Primary ID of Target Chain>


> <UniProt (TrEMBL) Secondary ID(s) of Target Chain>


> <UniProt (TrEMBL) Alternative ID(s) of Target Chain>


$$$$
 
     RDKit          2D

 29 32  0  0  0  0  0  0  0  0999 V2000
   -1.2130    0.3565    0.0000 C   0  0  0  0  0  0  0  0  0  0  0  0
   -0.4986    0.7691    0.0000 C   0  0  0  0  0  0  0  0  0  0  0  0
    0.2158    0.3565    0.0000 C   0  0  0  0  0  0  0  0  0  0  0  0
    0.2158   -0.4684    0.0000 C   0  0  0  0  0  0  0  0  0  0  0  0
   -0.4986   -0.8809    0.0000 C   0  0  0  0  0  0  0  0  0  0  0  0
   -1.2130   -0.4684    0.0000 C   0  0  0  0  0  0  0  0  0  0  0  0
    1.0004   -0.7233    0.0000 C   0  0  0  0  0  0  0  0  0  0  0  0
    1.4853   -0.0559    0.0000 N   0  0  0  0  0  0  0  0  0  0  0  0
    1.0004    0.6115    0.0000 C   0  0  0  0  0  0  0  0  0  0  0  0
    1.2139    1.4081    0.0000 O   0  0  0  0  0  0  0  0  0  0  0  0
    2.3101   -0.0559    0.0000 C   0  0  0  0  0  0  0  0  0  0  0  0
    2.7224    0.6582    0.0000 C   0  0  0  0  0  0  0  0  0  0  0  0
    3.5471    0.6582    0.0000 C   0  0  0  0  0  0  0  0  0  0  0  0
    3.9595   -0.0560    0.0000 C   0  0  0  0  0  0  0  0  0  0  0  0
    3.5472   -0.7702    0.0000 N   0  0  0  0  0  0  0  0  0  0  0  0
    2.7225   -0.7702    0.0000 C   0  0  0  0  0  0  0  0  0  0  0  0
    2.3101   -1.4845    0.0000 O   0  0  0  0  0  0  0  0  0  0  0  0
    4.7843   -0.0560    0.0000 O   0  0  0  0  0  0  0  0  0  0  0  0
   -1.9273    0.7689    0.0000 S   0  0  0  0  0  0  0  0  0  0  0  0
   -2.6416    0.3565    0.0000 N   0  0  0  0  0  0  0  0  0  0  0  0
   -1.5142    1.4845    0.0000 O   0  0  0  0  0  0  0  0  0  0  0  0
   -2.3388    1.4845    0.0000 O   0  0  0  0  0  0  0  0  0  0  0  0
   -2.6415   -0.4681    0.0000 C   0  0  0  0  0  0  0  0  0  0  0  0
   -3.3558   -0.8805    0.0000 N   0  0  0  0  0  0  0  0  0  0  0  0
   -4.0700   -0.4681    0.0000 C   0  0  0  0  0  0  0  0  0  0  0  0
   -4.0700    0.3566    0.0000 C   0  0  0  0  0  0  0  0  0  0  0  0
   -3.3558    0.7689    0.0000 C   0  0  0  0  0  0  0  0  0  0  0  0
   -4.7843   -0.8805    0.0000 O   0  0  0  0  0  0  0  0  0  0  0  0
   -1.9273   -0.8805    0.0000 O   0  0  0  0  0  0  0  0  0  0  0  0
  1  2  1  0
  3  2  2  0
  4  3  1  0
  5  4  2  0
  6  5  1  0
  1  6  2  0
  4  7  1  0
  8  7  1  0
  9  8  1  0
  3  9  1  0
  9 10  2  0
  8 11  1  0
 12 11  1  0
 13 12  1  0
 14 13  1  0
 15 14  1  0
 16 15  1  0
 11 16  1  0
 16 17  2  0
 14 18  2  0
  1 19  1  0
 19 20  1  0
 19 21  2  0
 19 22  2  0
 23 20  1  0
 24 23  1  0
 25 24  1  0
 26 25  1  0
 27 26  2  0
 20 27  1  0
 25 28  2  0
 23 29  2  0
M  END
> <From>
www.bindingDB.org

> <BindingDB Reactant_set_id>
51568408

> <Ligand InChI>
InChI=1S/C17H14N4O7S/c22-13-4-3-12(15(24)18-13)20-8-9-1-2-10(7-11(9)16(20)25)29(27,28)21-6-5-14(23)19-17(21)26/h1-2,5-7,12H,3-4,8H2,(H,18,22,24)(H,19,23,26)

> <Ligand InChI Key>
QMVALDXXRYVCCL-UHFFFAOYSA-N

> <BindingDB MonomerID>
50630781

> <BindingDB Ligand Name>
CHEMBL5410618

> <Target Name>
Protein cereblon

> <Target Source Organism According to Curator or DataSource>
Homo sapiens

> <Ki (nM)>


> <IC50 (nM)>
 4298

> <Kd (nM)>


> <EC50 (nM)>


> <kon (M-1-s-1)>


> <koff (s-1)>


> <pH>


> <Temp C>


> <Curation/DataSource>
ChEMBL

> <Article DOI>
10.1021/acsmedchemlett.3c00371

> <BindingDB Entry DOI>
10.7270/Q28D01RH

> <PMID>
37974938

> <PubChem AID>


> <Patent Number>


> <Authors>
Cruite, JT; Nowak, RP; Donovan, KA; Ficarro, SB; Huang, H; Liu, H; Liu, Y; Marto, JA; Metivier, RJ; Fischer, ES; Jones, LH

> <Date of publication>
11/9/2023

> <Date in BindingDB>
12/20/2024

> <Institution>
Dana-Farber Cancer Institute

> <Link to Ligand in BindingDB>
http://www.bindingdb.org/bind/chemsearch/marvin/MolStructure.jsp?monomerid=50630781

> <Link to Ligand-Target Pair in BindingDB>
http://www.bindingdb.org/jsp/dbsearch/PrimarySearch_ki.jsp?energyterm=kJ/mole&tag=pol&polymerid=50007050&target=Protein+cereblon&column=ki&startPg=0&Increment=50&submit=Search

> <Link to Ligand-Target Pair in BindingDB>
http://www.bindingdb.org/jsp/dbsearch/PrimarySearch_ki.jsp?energyterm=kJ/mole&tag=r21&monomerid=50630781&enzyme=Protein+cereblon&column=ki&startPg=0&Increment=50&submit=Search

> <Ligand HET ID in PDB>


> <PDB ID(s) for Ligand-Target Complex>


> <PubChem CID of Ligand>
168190687

> <PubChem SID of Ligand>
505048752

> <ChEBI ID of Ligand>


> <ChEMBL ID of Ligand>


> <DrugBank ID of Ligand>


> <IUPHAR_GRAC ID of Ligand>


> <KEGG ID of Ligand>


> <ZINC ID of Ligand>


> <Number of Protein Chains in Target (bigger than 1 implies a multichain complex)>
1

> <BindingDB Target Chain Sequence>
MAGEGDQQDAAHNMGNHLPLLPAESEEEDEMEVEDQDSKEAKKPNIINFDTSLPTSHTYLGADMEEFHGRTLHDDDSCQVIPVLPQVMMILIPGQTLPLQLFHPQEVSMVRNLIQKDRTFAVLAYSNVQEREAQFGTTAEIYAYREEQDFGIEIVKVKAIGRQRFKVLELRTQSDGIQQAKVQILPECVLPSTMSAVQLESLNKCQIFPSKPVSREDQCSYKWWQKYQKRKFHCANLTSWPRWLYSLYDAETLMDRIKKQLREWDENLKDDSLPSNPIDFSYRVAACLPIDDVLRIQLLKIGSAIQRLRCELDIMNKCTSLCCKQCQETEITTKNEIFSLSLCGPMAAYVNPHGYVHETLTVYKACNLNLIGRPSTEHSWFPGYAWTVAQCKICASHIGWKFTATKKDMSPQKFWGLTRSALLPTIPDTEDEISPDKVILCL

> <PDB ID(s) of Target Chain>
8TNR,8TNQ,8TNP,8D81,8D80,8D7Z,8D7Y,8D7X,8D7W,8D7V,8D7U,8CVP,9DQD,8UH6,6BOY,6BNB,6BN9,6BN8,6BN7,6XK9,6UML,5V3O,5HXB,7U8F,8OJH,8OIZ,7LPS,4TZ4,9DJX,9DJT,8U17,8U16,8U15,8TZX,8DEY,9CUO,4M91

> <UniProt (SwissProt) Recommended Name of Target Chain>
Protein cereblon

> <UniProt (SwissProt) Entry Name of Target Chain>
CRBN_HUMAN

> <UniProt (SwissProt) Primary ID of Target Chain>
Q96SW2

> <UniProt (SwissProt) Secondary ID(s) of Target Chain>
B2R6H4 C9IZA9 C9JAH6 Q6AI62 Q6NVZ0 Q9UHW4

> <UniProt (SwissProt) Alternative ID(s) of Target Chain>


> <UniProt (TrEMBL) Submitted Name of Target Chain>


> <UniProt (TrEMBL) Entry Name of Target Chain>


> <UniProt (TrEMBL) Primary ID of Target Chain>


> <UniProt (TrEMBL) Secondary ID(s) of Target Chain>


> <UniProt (TrEMBL) Alternative ID(s) of Target Chain>


$$$$
 
     RDKit          2D

 78 87  0  0  0  0  0  0  0  0999 V2000
    1.8526   -1.2118    0.0000 C   0  0  0  0  0  0  0  0  0  0  0  0
    1.0447   -1.3789    0.0000 C   0  0  0  0  0  0  0  0  0  0  0  0
    0.7661   -2.1869    0.0000 N   0  0  0  0  0  0  0  0  0  0  0  0
    1.3233   -2.7997    0.0000 C   0  0  0  0  0  0  0  0  0  0  0  0
    2.1589   -2.6326    0.0000 C   0  0  0  0  0  0  0  0  0  0  0  0
    2.7162   -3.2455    0.0000 N   0  0  0  0  0  0  0  0  0  0  0  0
    2.4655   -4.0534    0.0000 C   0  0  0  0  0  0  0  0  0  0  0  0
    3.0226   -4.6663    0.0000 N   0  0  0  0  0  0  0  0  0  0  0  0
    3.8306   -4.4992    0.0000 C   0  0  0  0  0  0  0  0  0  0  0  0
    4.3877   -5.1121    0.0000 C   0  0  0  0  0  0  0  0  0  0  0  0
    5.1956   -4.9448    0.0000 C   0  0  0  0  0  0  0  0  0  0  0  0
    5.7529   -5.5578    0.0000 C   0  0  0  0  0  0  0  0  0  0  0  0
    5.5021   -6.3657    0.0000 C   0  0  0  0  0  0  0  0  0  0  0  0
    6.0593   -6.9786    0.0000 C   0  0  0  0  0  0  0  0  0  0  0  0
    6.8951   -6.8113    0.0000 N   0  0  0  0  0  0  0  0  0  0  0  0
    7.1458   -6.0035    0.0000 C   0  0  0  0  0  0  0  0  0  0  0  0
    7.9537   -5.8364    0.0000 N   0  0  0  0  0  0  0  0  0  0  0  0
    8.2044   -5.0285    0.0000 C   0  0  0  0  0  0  0  0  0  0  0  0
    9.0402   -4.8614    0.0000 C   0  0  0  0  0  0  0  0  0  0  0  0
    9.5974   -5.4742    0.0000 N   0  0  0  0  0  0  0  0  0  0  0  0
    9.3467   -6.2821    0.0000 C   0  0  0  0  0  0  0  0  0  0  0  0
    8.5109   -6.4492    0.0000 C   0  0  0  0  0  0  0  0  0  0  0  0
    8.2602   -7.2572    0.0000 O   0  0  0  0  0  0  0  0  0  0  0  0
   10.0153   -6.7836    0.0000 C   0  0  0  0  0  0  0  0  0  0  0  0
   10.6839   -6.2821    0.0000 C   0  0  0  0  0  0  0  0  0  0  0  0
   10.4332   -5.4742    0.0000 C   0  0  0  0  0  0  0  0  0  0  0  0
   11.1018   -5.0006    0.0000 C   0  0  0  0  0  0  0  0  0  0  0  0
   11.7704   -5.4742    0.0000 C   0  0  0  0  0  0  0  0  0  0  0  0
   12.3554   -4.8614    0.0000 C   0  0  0  0  0  0  0  0  0  0  0  0
   12.6062   -5.6692    0.0000 C   0  0  0  0  0  0  0  0  0  0  0  0
   11.5197   -6.2821    0.0000 C   0  0  0  0  0  0  0  0  0  0  0  0
    6.5886   -5.3906    0.0000 C   0  0  0  0  0  0  0  0  0  0  0  0
    6.8394   -4.5827    0.0000 C   0  0  0  0  0  0  0  0  0  0  0  0
    7.6471   -4.4155    0.0000 O   0  0  0  0  0  0  0  0  0  0  0  0
    5.4742   -4.1369    0.0000 C   0  0  0  0  0  0  0  0  0  0  0  0
    4.9170   -3.5241    0.0000 N   0  0  0  0  0  0  0  0  0  0  0  0
    5.1678   -2.7162    0.0000 C   0  0  0  0  0  0  0  0  0  0  0  0
    4.0813   -3.6913    0.0000 C   0  0  0  0  0  0  0  0  0  0  0  0
    3.5241   -3.0783    0.0000 O   0  0  0  0  0  0  0  0  0  0  0  0
    1.6297   -4.2206    0.0000 C   0  0  0  0  0  0  0  0  0  0  0  0
    1.0725   -3.6077    0.0000 C   0  0  0  0  0  0  0  0  0  0  0  0
   -0.0417   -2.3540    0.0000 C   0  0  0  0  0  0  0  0  0  0  0  0
   -0.5989   -1.7411    0.0000 C   0  0  0  0  0  0  0  0  0  0  0  0
   -0.3482   -0.9332    0.0000 N   0  0  0  0  0  0  0  0  0  0  0  0
   -0.9054   -0.3202    0.0000 C   0  0  0  0  0  0  0  0  0  0  0  0
   -1.7133   -0.4875    0.0000 C   0  0  0  0  0  0  0  0  0  0  0  0
   -2.2704    0.1253    0.0000 C   0  0  0  0  0  0  0  0  0  0  0  0
   -3.1062   -0.0417    0.0000 C   0  0  0  0  0  0  0  0  0  0  0  0
   -3.6634    0.5709    0.0000 C   0  0  0  0  0  0  0  0  0  0  0  0
   -4.4713    0.4039    0.0000 C   0  0  0  0  0  0  0  0  0  0  0  0
   -5.0285    1.0168    0.0000 C   0  0  0  0  0  0  0  0  0  0  0  0
   -5.8364    0.8497    0.0000 C   0  0  0  0  0  0  0  0  0  0  0  0
   -6.4215    1.4625    0.0000 C   0  0  0  0  0  0  0  0  0  0  0  0
   -7.2294    1.2954    0.0000 C   0  0  0  0  0  0  0  0  0  0  0  0
   -7.7865    1.9083    0.0000 C   0  0  0  0  0  0  0  0  0  0  0  0
   -8.5945    1.7411    0.0000 C   0  0  0  0  0  0  0  0  0  0  0  0
   -9.1516    2.3540    0.0000 N   0  0  0  0  0  0  0  0  0  0  0  0
   -9.9873    2.1869    0.0000 C   0  0  0  0  0  0  0  0  0  0  0  0
  -10.2381    1.4068    0.0000 C   0  0  0  0  0  0  0  0  0  0  0  0
  -11.0460    1.2119    0.0000 C   0  0  0  0  0  0  0  0  0  0  0  0
  -11.6032    1.8526    0.0000 C   0  0  0  0  0  0  0  0  0  0  0  0
  -11.3524    2.6327    0.0000 C   0  0  0  0  0  0  0  0  0  0  0  0
  -10.5446    2.8276    0.0000 C   0  0  0  0  0  0  0  0  0  0  0  0
  -10.4610    3.6356    0.0000 C   0  0  0  0  0  0  0  0  0  0  0  0
  -11.2132    3.9977    0.0000 N   0  0  0  0  0  0  0  0  0  0  0  0
  -11.3803    4.8057    0.0000 C   0  0  0  0  0  0  0  0  0  0  0  0
  -12.1883    5.0564    0.0000 C   0  0  0  0  0  0  0  0  0  0  0  0
  -12.3554    5.8922    0.0000 C   0  0  0  0  0  0  0  0  0  0  0  0
  -11.7425    6.4492    0.0000 C   0  0  0  0  0  0  0  0  0  0  0  0
  -10.9346    6.1706    0.0000 N   0  0  0  0  0  0  0  0  0  0  0  0
  -10.7675    5.3628    0.0000 C   0  0  0  0  0  0  0  0  0  0  0  0
   -9.9873    5.1121    0.0000 O   0  0  0  0  0  0  0  0  0  0  0  0
  -11.9097    7.2572    0.0000 O   0  0  0  0  0  0  0  0  0  0  0  0
  -11.7704    3.3570    0.0000 C   0  0  0  0  0  0  0  0  0  0  0  0
  -12.6062    3.4405    0.0000 O   0  0  0  0  0  0  0  0  0  0  0  0
   -9.7367    4.0535    0.0000 O   0  0  0  0  0  0  0  0  0  0  0  0
   -0.6546    0.4875    0.0000 O   0  0  0  0  0  0  0  0  0  0  0  0
    0.4875   -0.7661    0.0000 C   0  0  0  0  0  0  0  0  0  0  0  0
  2  1  1  6
  2  3  1  0
  3  4  1  0
  4  5  2  0
  5  6  1  0
  6  7  2  0
  7  8  1  0
  8  9  1  0
  9 10  2  0
 10 11  1  0
 11 12  1  0
 12 13  2  0
 13 14  1  0
 14 15  2  0
 15 16  1  0
 16 17  1  0
 17 18  1  0
 18 19  1  0
 19 20  1  0
 20 21  1  0
 21 22  1  0
 17 22  1  0
 22 23  2  0
 21 24  2  0
 24 25  1  0
 25 26  2  0
 20 26  1  0
 26 27  1  0
 27 28  1  0
 28 29  1  0
 28 30  1  0
 28 31  1  0
 25 31  1  0
 16 32  2  0
 12 32  1  0
 32 33  1  0
 33 34  1  0
 11 35  2  0
 35 36  1  0
 36 37  1  0
 36 38  1  0
  9 38  1  0
 38 39  2  0
  7 40  1  0
 40 41  2  0
  4 41  1  0
  3 42  1  0
 42 43  1  0
 43 44  1  0
 44 45  1  0
 45 46  1  0
 46 47  1  0
 47 48  1  0
 48 49  1  0
 49 50  1  0
 50 51  1  0
 51 52  1  0
 52 53  1  0
 53 54  1  0
 54 55  1  0
 55 56  1  0
 56 57  1  0
 57 58  1  0
 58 59  2  0
 59 60  1  0
 60 61  2  0
 61 62  1  0
 62 63  2  0
 58 63  1  0
 63 64  1  0
 64 65  1  0
 65 66  1  0
 66 67  1  0
 67 68  1  0
 68 69  1  0
 69 70  1  0
 70 71  1  0
 66 71  1  0
 71 72  2  0
 69 73  2  0
 65 74  1  0
 62 74  1  0
 74 75  2  0
 64 76  2  0
 45 77  2  0
 44 78  1  0
  2 78  1  0
M  END
> <From>
www.bindingDB.org

> <BindingDB Reactant_set_id>
51547155

> <Ligand InChI>
InChI=1S/C59H71N11O8/c1-37-34-66(51(73)17-12-10-8-6-5-7-9-11-13-23-60-44-16-14-15-42-52(44)58(78)70(55(42)75)46-19-21-50(72)64-54(46)74)25-26-67(37)40-18-20-49(62-33-40)63-45-29-39(35-65(4)56(45)76)41-22-24-61-53(43(41)36-71)69-28-27-68-47(57(69)77)30-38-31-59(2,3)32-48(38)68/h14-16,18,20,22,24,29-30,33,35,37,46,60,71H,5-13,17,19,21,23,25-28,31-32,34,36H2,1-4H3,(H,62,63)(H,64,72,74)/t37-,46?/m0/s1

> <Ligand InChI Key>
HYZMVIWTOQSXRR-YLKGYVPLSA-N

> <BindingDB MonomerID>
50622269

> <BindingDB Ligand Name>
CHEMBL5437508

> <Target Name>
Protein cereblon

> <Target Source Organism According to Curator or DataSource>
Homo sapiens

> <Ki (nM)>


> <IC50 (nM)>
 5000

> <Kd (nM)>


> <EC50 (nM)>


> <kon (M-1-s-1)>


> <koff (s-1)>


> <pH>


> <Temp C>


> <Curation/DataSource>
ChEMBL

> <Article DOI>
10.1021/acs.jmedchem.3c00176

> <BindingDB Entry DOI>
10.7270/Q2GX4GZ4

> <PMID>
37195170

> <PubChem AID>


> <Patent Number>


> <Authors>
n/a

> <Date of publication>
6/8/2023

> <Date in BindingDB>
12/17/2024

> <Institution>
n/a

> <Link to Ligand in BindingDB>
http://www.bindingdb.org/bind/chemsearch/marvin/MolStructure.jsp?monomerid=50622269

> <Link to Ligand-Target Pair in BindingDB>
http://www.bindingdb.org/jsp/dbsearch/PrimarySearch_ki.jsp?energyterm=kJ/mole&tag=pol&polymerid=50007050&target=Protein+cereblon&column=ki&startPg=0&Increment=50&submit=Search

> <Link to Ligand-Target Pair in BindingDB>
http://www.bindingdb.org/jsp/dbsearch/PrimarySearch_ki.jsp?energyterm=kJ/mole&tag=r21&monomerid=50622269&enzyme=Protein+cereblon&column=ki&startPg=0&Increment=50&submit=Search

> <Ligand HET ID in PDB>


> <PDB ID(s) for Ligand-Target Complex>


> <PubChem CID>


> <PubChem SID>


> <ChEBI ID of Ligand>


> <ChEMBL ID of Ligand>


> <DrugBank ID of Ligand>


> <IUPHAR_GRAC ID of Ligand>


> <KEGG ID of Ligand>


> <ZINC ID of Ligand>


> <Number of Protein Chains in Target (bigger than 1 implies a multichain complex)>
1

> <BindingDB Target Chain Sequence>
MAGEGDQQDAAHNMGNHLPLLPAESEEEDEMEVEDQDSKEAKKPNIINFDTSLPTSHTYLGADMEEFHGRTLHDDDSCQVIPVLPQVMMILIPGQTLPLQLFHPQEVSMVRNLIQKDRTFAVLAYSNVQEREAQFGTTAEIYAYREEQDFGIEIVKVKAIGRQRFKVLELRTQSDGIQQAKVQILPECVLPSTMSAVQLESLNKCQIFPSKPVSREDQCSYKWWQKYQKRKFHCANLTSWPRWLYSLYDAETLMDRIKKQLREWDENLKDDSLPSNPIDFSYRVAACLPIDDVLRIQLLKIGSAIQRLRCELDIMNKCTSLCCKQCQETEITTKNEIFSLSLCGPMAAYVNPHGYVHETLTVYKACNLNLIGRPSTEHSWFPGYAWTVAQCKICASHIGWKFTATKKDMSPQKFWGLTRSALLPTIPDTEDEISPDKVILCL

> <PDB ID(s) of Target Chain>
8TNR,8TNQ,8TNP,8D81,8D80,8D7Z,8D7Y,8D7X,8D7W,8D7V,8D7U,8CVP,9DQD,8UH6,6BOY,6BNB,6BN9,6BN8,6BN7,6XK9,6UML,5V3O,5HXB,7U8F,8OJH,8OIZ,7LPS,4TZ4,9DJX,9DJT,8U17,8U16,8U15,8TZX,8DEY,9CUO,4M91

> <UniProt (SwissProt) Recommended Name of Target Chain>
Protein cereblon

> <UniProt (SwissProt) Entry Name of Target Chain>
CRBN_HUMAN

> <UniProt (SwissProt) Primary ID of Target Chain>
Q96SW2

> <UniProt (SwissProt) Secondary ID(s) of Target Chain>
B2R6H4 C9IZA9 C9JAH6 Q6AI62 Q6NVZ0 Q9UHW4

> <UniProt (SwissProt) Alternative ID(s) of Target Chain>


> <UniProt (TrEMBL) Submitted Name of Target Chain>


> <UniProt (TrEMBL) Entry Name of Target Chain>


> <UniProt (TrEMBL) Primary ID of Target Chain>


> <UniProt (TrEMBL) Secondary ID(s) of Target Chain>


> <UniProt (TrEMBL) Alternative ID(s) of Target Chain>


$$$$
 
     RDKit          2D

 66 75  0  0  0  0  0  0  0  0999 V2000
   -0.5965   -1.7202    0.0000 O   0  0  0  0  0  0  0  0  0  0  0  0
   -0.0416   -2.3306    0.0000 C   0  0  0  0  0  0  0  0  0  0  0  0
    0.7629   -2.1642    0.0000 N   0  0  0  0  0  0  0  0  0  0  0  0
    1.0404   -1.3872    0.0000 C   0  0  0  0  0  0  0  0  0  0  0  0
    1.3178   -2.7746    0.0000 C   0  0  0  0  0  0  0  0  0  0  0  0
    1.0681   -3.5792    0.0000 C   0  0  0  0  0  0  0  0  0  0  0  0
    1.6231   -4.1896    0.0000 C   0  0  0  0  0  0  0  0  0  0  0  0
    1.3734   -4.9943    0.0000 C   0  0  0  0  0  0  0  0  0  0  0  0
    1.9282   -5.6047    0.0000 C   0  0  0  0  0  0  0  0  0  0  0  0
    2.7329   -5.4382    0.0000 N   0  0  0  0  0  0  0  0  0  0  0  0
    3.0104   -4.6335    0.0000 C   0  0  0  0  0  0  0  0  0  0  0  0
    3.8150   -4.4671    0.0000 N   0  0  0  0  0  0  0  0  0  0  0  0
    4.0647   -3.6902    0.0000 C   0  0  0  0  0  0  0  0  0  0  0  0
    4.8971   -3.4960    0.0000 C   0  0  0  0  0  0  0  0  0  0  0  0
    5.4521   -4.1341    0.0000 N   0  0  0  0  0  0  0  0  0  0  0  0
    5.1746   -4.9109    0.0000 C   0  0  0  0  0  0  0  0  0  0  0  0
    4.3699   -5.0775    0.0000 C   0  0  0  0  0  0  0  0  0  0  0  0
    4.1203   -5.8821    0.0000 O   0  0  0  0  0  0  0  0  0  0  0  0
    5.8682   -5.4105    0.0000 C   0  0  0  0  0  0  0  0  0  0  0  0
    6.5342   -4.9109    0.0000 C   0  0  0  0  0  0  0  0  0  0  0  0
    6.2845   -4.1341    0.0000 C   0  0  0  0  0  0  0  0  0  0  0  0
    6.9504   -3.6347    0.0000 C   0  0  0  0  0  0  0  0  0  0  0  0
    7.6163   -4.1341    0.0000 C   0  0  0  0  0  0  0  0  0  0  0  0
    8.1712   -3.4960    0.0000 C   0  0  0  0  0  0  0  0  0  0  0  0
    8.4487   -4.3006    0.0000 C   0  0  0  0  0  0  0  0  0  0  0  0
    7.3666   -4.9109    0.0000 C   0  0  0  0  0  0  0  0  0  0  0  0
    2.4554   -4.0232    0.0000 C   0  0  0  0  0  0  0  0  0  0  0  0
    2.7052   -3.2463    0.0000 C   0  0  0  0  0  0  0  0  0  0  0  0
    3.5098   -3.0520    0.0000 O   0  0  0  0  0  0  0  0  0  0  0  0
    0.2635   -3.7457    0.0000 C   0  0  0  0  0  0  0  0  0  0  0  0
   -0.2913   -3.1352    0.0000 C   0  0  0  0  0  0  0  0  0  0  0  0
   -1.1237   -3.3017    0.0000 N   0  0  0  0  0  0  0  0  0  0  0  0
   -1.6786   -2.6913    0.0000 C   0  0  0  0  0  0  0  0  0  0  0  0
   -2.4833   -2.8578    0.0000 C   0  0  0  0  0  0  0  0  0  0  0  0
   -3.0381   -2.2474    0.0000 C   0  0  0  0  0  0  0  0  0  0  0  0
   -2.7884   -1.4428    0.0000 C   0  0  0  0  0  0  0  0  0  0  0  0
   -1.9838   -1.2763    0.0000 C   0  0  0  0  0  0  0  0  0  0  0  0
   -1.4012   -1.8867    0.0000 N   0  0  0  0  0  0  0  0  0  0  0  0
   -3.3434   -0.8323    0.0000 N   0  0  0  0  0  0  0  0  0  0  0  0
   -4.1480   -0.9988    0.0000 C   0  0  0  0  0  0  0  0  0  0  0  0
   -4.7029   -0.3884    0.0000 C   0  0  0  0  0  0  0  0  0  0  0  0
   -4.4532    0.4161    0.0000 N   0  0  0  0  0  0  0  0  0  0  0  0
   -5.0082    1.0266    0.0000 C   0  0  0  0  0  0  0  0  0  0  0  0
   -5.8128    0.8601    0.0000 C   0  0  0  0  0  0  0  0  0  0  0  0
   -6.0903    0.0554    0.0000 C   0  0  0  0  0  0  0  0  0  0  0  0
   -6.8948   -0.1110    0.0000 C   0  0  0  0  0  0  0  0  0  0  0  0
   -7.4498    0.4994    0.0000 C   0  0  0  0  0  0  0  0  0  0  0  0
   -7.2001    1.3040    0.0000 C   0  0  0  0  0  0  0  0  0  0  0  0
   -7.6163    2.0254    0.0000 C   0  0  0  0  0  0  0  0  0  0  0  0
   -7.0614    2.6358    0.0000 N   0  0  0  0  0  0  0  0  0  0  0  0
   -7.2279    3.4405    0.0000 C   0  0  0  0  0  0  0  0  0  0  0  0
   -8.0325    3.7179    0.0000 C   0  0  0  0  0  0  0  0  0  0  0  0
   -8.1990    4.5226    0.0000 C   0  0  0  0  0  0  0  0  0  0  0  0
   -7.5886    5.0775    0.0000 C   0  0  0  0  0  0  0  0  0  0  0  0
   -6.7839    4.8278    0.0000 N   0  0  0  0  0  0  0  0  0  0  0  0
   -6.6174    3.9954    0.0000 C   0  0  0  0  0  0  0  0  0  0  0  0
   -5.8128    3.7457    0.0000 O   0  0  0  0  0  0  0  0  0  0  0  0
   -7.7551    5.8821    0.0000 O   0  0  0  0  0  0  0  0  0  0  0  0
   -6.2845    2.3029    0.0000 C   0  0  0  0  0  0  0  0  0  0  0  0
   -6.3955    1.4705    0.0000 C   0  0  0  0  0  0  0  0  0  0  0  0
   -5.5631    2.7191    0.0000 O   0  0  0  0  0  0  0  0  0  0  0  0
   -8.4487    2.1086    0.0000 O   0  0  0  0  0  0  0  0  0  0  0  0
   -4.7585    1.8034    0.0000 O   0  0  0  0  0  0  0  0  0  0  0  0
   -3.6486    0.5826    0.0000 C   0  0  0  0  0  0  0  0  0  0  0  0
   -3.0936   -0.0277    0.0000 C   0  0  0  0  0  0  0  0  0  0  0  0
   -2.2613    0.1387    0.0000 C   0  0  0  0  0  0  0  0  0  0  0  0
  1  2  2  0
  2  3  1  0
  3  4  1  0
  3  5  1  0
  5  6  2  0
  6  7  1  0
  7  8  2  0
  8  9  1  0
  9 10  2  0
 10 11  1  0
 11 12  1  0
 12 13  1  0
 13 14  1  0
 14 15  1  0
 15 16  1  0
 16 17  1  0
 12 17  1  0
 17 18  2  0
 16 19  2  0
 19 20  1  0
 20 21  2  0
 15 21  1  0
 21 22  1  0
 22 23  1  0
 23 24  1  0
 23 25  1  0
 23 26  1  0
 20 26  1  0
 11 27  2  0
  7 27  1  0
 27 28  1  0
 28 29  1  0
  6 30  1  0
 30 31  2  0
  2 31  1  0
 31 32  1  0
 32 33  1  0
 33 34  1  0
 34 35  2  0
 35 36  1  0
 37 36  2  0
 33 38  2  0
 38 37  1  0
 36 39  1  0
 39 40  1  0
 40 41  1  0
 41 42  1  0
 42 43  1  0
 43 44  1  0
 44 45  2  0
 45 46  1  0
 46 47  2  0
 47 48  1  0
 48 49  1  0
 49 50  1  0
 50 51  1  0
 51 52  1  0
 52 53  1  0
 53 54  1  0
 54 55  1  0
 55 56  1  0
 51 56  1  0
 56 57  2  0
 54 58  2  0
 50 59  1  0
 48 60  2  0
 44 60  1  0
 60 59  1  0
 59 61  2  0
 49 62  2  0
 43 63  2  0
 42 64  1  0
 64 65  1  0
 39 65  1  0
 65 66  1  6
M  END
> <From>
www.bindingDB.org

> <BindingDB Reactant_set_id>
51547154

> <Ligand InChI>
InChI=1S/C48H48N10O8/c1-26-23-54(43(62)31-6-5-7-32-40(31)47(66)58(44(32)63)35-9-11-39(60)52-42(35)61)14-15-55(26)29-8-10-38(50-22-29)51-34-18-28(24-53(4)45(34)64)30-12-13-49-41(33(30)25-59)57-17-16-56-36(46(57)65)19-27-20-48(2,3)21-37(27)56/h5-8,10,12-13,18-19,22,24,26,35,59H,9,11,14-17,20-21,23,25H2,1-4H3,(H,50,51)(H,52,60,61)/t26-,35?/m0/s1

> <Ligand InChI Key>
TZJCAGSJIMIXFS-HJYWNDIWSA-N

> <BindingDB MonomerID>
50622268

> <BindingDB Ligand Name>
CHEMBL5403472

> <Target Name>
Protein cereblon

> <Target Source Organism According to Curator or DataSource>
Homo sapiens

> <Ki (nM)>


> <IC50 (nM)>
 7000

> <Kd (nM)>


> <EC50 (nM)>


> <kon (M-1-s-1)>


> <koff (s-1)>


> <pH>


> <Temp C>


> <Curation/DataSource>
ChEMBL

> <Article DOI>
10.1021/acs.jmedchem.3c00176

> <BindingDB Entry DOI>
10.7270/Q2GX4GZ4

> <PMID>
37195170

> <PubChem AID>


> <Patent Number>


> <Authors>
n/a

> <Date of publication>
6/8/2023

> <Date in BindingDB>
12/17/2024

> <Institution>
n/a

> <Link to Ligand in BindingDB>
http://www.bindingdb.org/bind/chemsearch/marvin/MolStructure.jsp?monomerid=50622268

> <Link to Ligand-Target Pair in BindingDB>
http://www.bindingdb.org/jsp/dbsearch/PrimarySearch_ki.jsp?energyterm=kJ/mole&tag=pol&polymerid=50007050&target=Protein+cereblon&column=ki&startPg=0&Increment=50&submit=Search

> <Link to Ligand-Target Pair in BindingDB>
http://www.bindingdb.org/jsp/dbsearch/PrimarySearch_ki.jsp?energyterm=kJ/mole&tag=r21&monomerid=50622268&enzyme=Protein+cereblon&column=ki&startPg=0&Increment=50&submit=Search

> <Ligand HET ID in PDB>


> <PDB ID(s) for Ligand-Target Complex>


> <PubChem CID>


> <PubChem SID>


> <ChEBI ID of Ligand>


> <ChEMBL ID of Ligand>


> <DrugBank ID of Ligand>


> <IUPHAR_GRAC ID of Ligand>


> <KEGG ID of Ligand>


> <ZINC ID of Ligand>


> <Number of Protein Chains in Target (bigger than 1 implies a multichain complex)>
1

> <BindingDB Target Chain Sequence>
MAGEGDQQDAAHNMGNHLPLLPAESEEEDEMEVEDQDSKEAKKPNIINFDTSLPTSHTYLGADMEEFHGRTLHDDDSCQVIPVLPQVMMILIPGQTLPLQLFHPQEVSMVRNLIQKDRTFAVLAYSNVQEREAQFGTTAEIYAYREEQDFGIEIVKVKAIGRQRFKVLELRTQSDGIQQAKVQILPECVLPSTMSAVQLESLNKCQIFPSKPVSREDQCSYKWWQKYQKRKFHCANLTSWPRWLYSLYDAETLMDRIKKQLREWDENLKDDSLPSNPIDFSYRVAACLPIDDVLRIQLLKIGSAIQRLRCELDIMNKCTSLCCKQCQETEITTKNEIFSLSLCGPMAAYVNPHGYVHETLTVYKACNLNLIGRPSTEHSWFPGYAWTVAQCKICASHIGWKFTATKKDMSPQKFWGLTRSALLPTIPDTEDEISPDKVILCL

> <PDB ID(s) of Target Chain>
8TNR,8TNQ,8TNP,8D81,8D80,8D7Z,8D7Y,8D7X,8D7W,8D7V,8D7U,8CVP,9DQD,8UH6,6BOY,6BNB,6BN9,6BN8,6BN7,6XK9,6UML,5V3O,5HXB,7U8F,8OJH,8OIZ,7LPS,4TZ4,9DJX,9DJT,8U17,8U16,8U15,8TZX,8DEY,9CUO,4M91

> <UniProt (SwissProt) Recommended Name of Target Chain>
Protein cereblon

> <UniProt (SwissProt) Entry Name of Target Chain>
CRBN_HUMAN

> <UniProt (SwissProt) Primary ID of Target Chain>
Q96SW2

> <UniProt (SwissProt) Secondary ID(s) of Target Chain>
B2R6H4 C9IZA9 C9JAH6 Q6AI62 Q6NVZ0 Q9UHW4

> <UniProt (SwissProt) Alternative ID(s) of Target Chain>


> <UniProt (TrEMBL) Submitted Name of Target Chain>


> <UniProt (TrEMBL) Entry Name of Target Chain>


> <UniProt (TrEMBL) Primary ID of Target Chain>


> <UniProt (TrEMBL) Secondary ID(s) of Target Chain>


> <UniProt (TrEMBL) Alternative ID(s) of Target Chain>


$$$$

     RDKit          2D

 62 68  0  0  0  0  0  0  0  0999 V2000
   -2.9520   -4.6564    0.0000 C   0  0  0  0  0  0  0  0  0  0  0  0
   -2.6401   -3.1891    0.0000 C   0  0  0  0  0  0  0  0  0  0  0  0
   -3.7548   -2.1855    0.0000 O   0  0  0  0  0  0  0  0  0  0  0  0
   -1.2135   -2.7256    0.0000 C   0  0  0  0  0  0  0  0  0  0  0  0
   -0.0000   -3.6073    0.0000 C   0  0  0  0  0  0  0  0  0  0  0  0
    1.2135   -2.7256    0.0000 C   0  0  0  0  0  0  0  0  0  0  0  0
    2.6401   -3.1891    0.0000 C   0  0  0  0  0  0  0  0  0  0  0  0
    3.7548   -2.1855    0.0000 O   0  0  0  0  0  0  0  0  0  0  0  0
    2.9520   -4.6564    0.0000 N   0  0  0  0  0  0  0  0  0  0  0  0
    4.3786   -5.1199    0.0000 C   0  0  0  0  0  0  0  0  0  0  0  0
    4.6904   -6.5871    0.0000 C   0  0  0  0  0  0  0  0  0  0  0  0
    6.1170   -7.0506    0.0000 C   0  0  0  0  0  0  0  0  0  0  0  0
    6.4289   -8.5179    0.0000 C   0  0  0  0  0  0  0  0  0  0  0  0
    5.3142   -9.5216    0.0000 O   0  0  0  0  0  0  0  0  0  0  0  0
    7.2317   -6.0469    0.0000 C   0  0  0  0  0  0  0  0  0  0  0  0
    6.9199   -4.5797    0.0000 C   0  0  0  0  0  0  0  0  0  0  0  0
    8.0346   -3.5760    0.0000 C   0  0  0  0  0  0  0  0  0  0  0  0
    7.8778   -2.0842    0.0000 C   0  0  0  0  0  0  0  0  0  0  0  0
    9.2481   -1.4741    0.0000 N   0  0  0  0  0  0  0  0  0  0  0  0
   10.2518   -2.5889    0.0000 N   0  0  0  0  0  0  0  0  0  0  0  0
   11.7436   -2.4321    0.0000 C   0  0  0  0  0  0  0  0  0  0  0  0
    9.5018   -3.8879    0.0000 C   0  0  0  0  0  0  0  0  0  0  0  0
    5.4933   -4.1162    0.0000 C   0  0  0  0  0  0  0  0  0  0  0  0
    5.1814   -2.6490    0.0000 F   0  0  0  0  0  0  0  0  0  0  0  0
    0.7500   -1.2990    0.0000 C   0  0  0  0  0  0  0  0  0  0  0  0
    1.5000    0.0000    0.0000 C   0  0  0  0  0  0  0  0  0  0  0  0
    0.7500    1.2990    0.0000 C   0  0  0  0  0  0  0  0  0  0  0  0
    1.5000    2.5981    0.0000 O   0  0  0  0  0  0  0  0  0  0  0  0
    3.0000    2.5981    0.0000 C   0  0  0  0  0  0  0  0  0  0  0  0
    3.7500    3.8971    0.0000 C   0  0  0  0  0  0  0  0  0  0  0  0
    5.2500    3.8971    0.0000 C   0  0  0  0  0  0  0  0  0  0  0  0
    6.0000    5.1962    0.0000 C   0  0  0  0  0  0  0  0  0  0  0  0
    7.5000    5.1962    0.0000 C   0  0  0  0  0  0  0  0  0  0  0  0
    8.2500    6.4952    0.0000 C   0  0  0  0  0  0  0  0  0  0  0  0
    9.7500    6.4952    0.0000 C   0  0  0  0  0  0  0  0  0  0  0  0
   10.5000    5.1962    0.0000 O   0  0  0  0  0  0  0  0  0  0  0  0
   10.5000    7.7942    0.0000 N   0  0  0  0  0  0  0  0  0  0  0  0
   12.0000    7.7942    0.0000 C   0  0  0  0  0  0  0  0  0  0  0  0
   12.7500    9.0933    0.0000 C   0  0  0  0  0  0  0  0  0  0  0  0
   14.2500    9.0933    0.0000 C   0  0  0  0  0  0  0  0  0  0  0  0
   15.0000   10.3923    0.0000 C   0  0  0  0  0  0  0  0  0  0  0  0
   14.2500   11.6913    0.0000 C   0  0  0  0  0  0  0  0  0  0  0  0
   15.0000   12.9904    0.0000 C   0  0  0  0  0  0  0  0  0  0  0  0
   16.5000   12.9904    0.0000 C   0  0  0  0  0  0  0  0  0  0  0  0
   17.2500   11.6913    0.0000 C   0  0  0  0  0  0  0  0  0  0  0  0
   16.5000   10.3923    0.0000 C   0  0  0  0  0  0  0  0  0  0  0  0
   17.5037    9.2776    0.0000 C   0  0  0  0  0  0  0  0  0  0  0  0
   17.1918    7.8104    0.0000 O   0  0  0  0  0  0  0  0  0  0  0  0
   18.8740    9.8877    0.0000 N   0  0  0  0  0  0  0  0  0  0  0  0
   20.1731    9.1377    0.0000 C   0  0  0  0  0  0  0  0  0  0  0  0
   20.1731    7.6377    0.0000 C   0  0  0  0  0  0  0  0  0  0  0  0
   21.4721    6.8877    0.0000 C   0  0  0  0  0  0  0  0  0  0  0  0
   22.7711    7.6377    0.0000 C   0  0  0  0  0  0  0  0  0  0  0  0
   24.0702    6.8877    0.0000 O   0  0  0  0  0  0  0  0  0  0  0  0
   22.7711    9.1377    0.0000 N   0  0  0  0  0  0  0  0  0  0  0  0
   21.4721    9.8877    0.0000 C   0  0  0  0  0  0  0  0  0  0  0  0
   21.4721   11.3877    0.0000 O   0  0  0  0  0  0  0  0  0  0  0  0
   18.7172   11.3795    0.0000 C   0  0  0  0  0  0  0  0  0  0  0  0
   19.8319   12.3832    0.0000 O   0  0  0  0  0  0  0  0  0  0  0  0
   -0.7500    1.2990    0.0000 C   0  0  0  0  0  0  0  0  0  0  0  0
   -1.5000    0.0000    0.0000 C   0  0  0  0  0  0  0  0  0  0  0  0
   -0.7500   -1.2990    0.0000 N   0  0  0  0  0  0  0  0  0  0  0  0
  1  2  1  0
  2  3  2  0
  2  4  1  0
  4  5  2  0
  5  6  1  0
  6  7  1  0
  7  8  2  0
  7  9  1  0
  9 10  1  0
 10 11  2  0
 11 12  1  0
 12 13  1  0
 13 14  1  0
 12 15  2  0
 15 16  1  0
 16 17  1  0
 17 18  1  0
 18 19  2  0
 19 20  1  0
 20 21  1  0
 20 22  1  0
 16 23  2  0
 23 24  1  0
  6 25  2  0
 25 26  1  0
 26 27  2  0
 27 28  1  0
 28 29  1  0
 29 30  1  0
 30 31  1  0
 31 32  1  0
 32 33  1  0
 33 34  1  0
 34 35  1  0
 35 36  2  0
 35 37  1  0
 37 38  1  0
 38 39  1  0
 39 40  1  0
 40 41  1  0
 41 42  2  0
 42 43  1  0
 43 44  2  0
 44 45  1  0
 45 46  2  0
 46 47  1  0
 47 48  2  0
 47 49  1  0
 49 50  1  0
 50 51  1  0
 51 52  1  0
 52 53  1  0
 53 54  2  0
 53 55  1  0
 55 56  1  0
 56 57  2  0
 49 58  1  0
 58 59  2  0
 27 60  1  0
 60 61  2  0
 61 62  1  0
 62  4  1  0
 23 10  1  0
 62 25  1  0
 22 17  2  0
 46 41  1  0
 56 50  1  0
 58 45  1  0
M  END
> <From>
www.bindingDB.org

> <BindingDB Reactant_set_id>
51586040

> <Ligand InChI>
InChI=1S/C45H46FN7O9/c1-26(55)36-22-33(42(58)49-34-20-27(25-54)19-32(41(34)46)29-23-48-51(2)24-29)37-21-30(15-17-52(36)37)62-18-6-4-3-5-12-38(56)47-16-8-10-28-9-7-11-31-40(28)45(61)53(44(31)60)35-13-14-39(57)50-43(35)59/h7,9,11,15,17,19-24,35,54H,3-6,8,10,12-14,16,18,25H2,1-2H3,(H,47,56)(H,49,58)(H,50,57,59)

> <Ligand InChI Key>
FQVXPGXSEMNATG-UHFFFAOYSA-N

> <BindingDB MonomerID>
50638389

> <BindingDB Ligand Name>
CHEMBL5556365

> <Target Name>
Protein cereblon

> <Target Source Organism According to Curator or DataSource>
Human

> <Ki (nM)>


> <IC50 (nM)>
 7000

> <Kd (nM)>


> <EC50 (nM)>


> <kon (M-1-s-1)>


> <koff (s-1)>


> <pH>


> <Temp C>


> <Curation/DataSource>
ChEMBL

> <Article DOI>


> <BindingDB Entry DOI>
10.7270/Q2NV9PV1

> <PMID>
38829718

> <PubChem AID>


> <Patent Number>


> <Authors>
Wu, T; Hu, J; Zhao, X; Zhang, C; Dong, R; Hu, Q; Xu, H; Shen, H; Zhang, X; Zhang, Y; Lin, B; Wu, X; Xiang, Q; Xu, Y

> <Date of publication>
//0

> <Date in BindingDB>
10/11/2025

> <Institution>
Shenyang Pharmaceutical University

> <Link to Ligand in BindingDB>
http://www.bindingdb.org/bind/chemsearch/marvin/MolStructure.jsp?monomerid=50638389

> <Link to Ligand-Target Pair in BindingDB>
http://www.bindingdb.org/rwd/jsp/dbsearch/PrimarySearch_ki.jsp?energyterm=kJ/mole&tag=pol&polymerid=50007050&target=Protein+cereblon&column=ki&startPg=0&Increment=50&submit=Search

> <Link to Ligand-Target Pair in BindingDB>
http://www.bindingdb.org/rwd/jsp/dbsearch/PrimarySearch_ki.jsp?energyterm=kJ/mole&tag=r21&monomerid=50638389&enzyme=Protein+cereblon&column=ki&startPg=0&Increment=50&submit=Search

> <Ligand HET ID in PDB>


> <PDB ID(s) for Ligand-Target Complex>


> <PubChem CID of Ligand>
177375921

> <PubChem SID of Ligand>
519658792

> <ChEBI ID of Ligand>


> <ChEMBL ID of Ligand>


> <DrugBank ID of Ligand>


> <IUPHAR_GRAC ID of Ligand>


> <KEGG ID of Ligand>


> <ZINC ID of Ligand>


> <Number of Protein Chains in Target (bigger than 1 implies a multichain complex)>
1

> <BindingDB Target Chain Sequence>
MAGEGDQQDAAHNMGNHLPLLPAESEEEDEMEVEDQDSKEAKKPNIINFDTSLPTSHTYLGADMEEFHGRTLHDDDSCQVIPVLPQVMMILIPGQTLPLQLFHPQEVSMVRNLIQKDRTFAVLAYSNVQEREAQFGTTAEIYAYREEQDFGIEIVKVKAIGRQRFKVLELRTQSDGIQQAKVQILPECVLPSTMSAVQLESLNKCQIFPSKPVSREDQCSYKWWQKYQKRKFHCANLTSWPRWLYSLYDAETLMDRIKKQLREWDENLKDDSLPSNPIDFSYRVAACLPIDDVLRIQLLKIGSAIQRLRCELDIMNKCTSLCCKQCQETEITTKNEIFSLSLCGPMAAYVNPHGYVHETLTVYKACNLNLIGRPSTEHSWFPGYAWTVAQCKICASHIGWKFTATKKDMSPQKFWGLTRSALLPTIPDTEDEISPDKVILCL

> <PDB ID(s) of Target Chain>
9DUR,8TNR,8TNQ,8TNP,9DWW,9DWV,9NGT,9NFR,9NFQ,8D81,8D80,8D7Z,8D7Y,8D7X,8D7W,8D7V,8D7U,8CVP,9Q2D,9Q03,9DQD,8UH6,9SAI,9SAF,9H59,9E2U,6BOY,6BNB,6BN9,6BN8,6BN7,9OUL,9Y7D,6XK9,6UML,5V3O,5HXB,9HNE,9D0X,9D0W,7U8F,9FJX,8OJH,8OIZ,7LPS,9SFM,9OTY,4TZ4,9DJX,9DJT,8U17,8U16,8U15,8TZX,8DEY,9CUO,4M91

> <UniProt (SwissProt) Recommended Name of Target Chain>
Protein cereblon

> <UniProt (SwissProt) Entry Name of Target Chain>
CRBN_HUMAN

> <UniProt (SwissProt) Primary ID of Target Chain>
Q96SW2

> <UniProt (SwissProt) Secondary ID(s) of Target Chain>
B2R6H4 C9IZA9 C9JAH6 Q6AI62 Q6NVZ0 Q9UHW4

> <UniProt (SwissProt) Alternative ID(s) of Target Chain>


> <UniProt (TrEMBL) Submitted Name of Target Chain>


> <UniProt (TrEMBL) Entry Name of Target Chain>


> <UniProt (TrEMBL) Primary ID of Target Chain>


> <UniProt (TrEMBL) Secondary ID(s) of Target Chain>


> <UniProt (TrEMBL) Alternative ID(s) of Target Chain>


$$$$
 
     RDKit          2D

 23 25  0  0  0  0  0  0  0  0999 V2000
   -0.1581    1.8129    0.0000 N   0  0  0  0  0  0  0  0  0  0  0  0
    0.5563    2.2253    0.0000 C   0  0  0  0  0  0  0  0  0  0  0  0
    0.5563    3.0503    0.0000 C   0  0  0  0  0  0  0  0  0  0  0  0
    1.2707    3.4628    0.0000 C   0  0  0  0  0  0  0  0  0  0  0  0
    1.9852    3.0503    0.0000 C   0  0  0  0  0  0  0  0  0  0  0  0
    1.9852    2.2253    0.0000 N   0  0  0  0  0  0  0  0  0  0  0  0
    1.2707    1.8129    0.0000 C   0  0  0  0  0  0  0  0  0  0  0  0
    1.2707    0.9878    0.0000 O   0  0  0  0  0  0  0  0  0  0  0  0
    2.6997    3.4628    0.0000 O   0  0  0  0  0  0  0  0  0  0  0  0
   -0.2443    0.9928    0.0000 C   0  0  0  0  0  0  0  0  0  0  0  0
   -1.0509    0.8213    0.0000 C   0  0  0  0  0  0  0  0  0  0  0  0
   -1.4632    1.5354    0.0000 C   0  0  0  0  0  0  0  0  0  0  0  0
   -0.9114    2.1483    0.0000 C   0  0  0  0  0  0  0  0  0  0  0  0
   -1.1249    2.9451    0.0000 O   0  0  0  0  0  0  0  0  0  0  0  0
   -1.4624    0.1097    0.0000 C   0  0  0  0  0  0  0  0  0  0  0  0
   -2.2872    0.1094    0.0000 C   0  0  0  0  0  0  0  0  0  0  0  0
   -2.6990    0.8191    0.0000 C   0  0  0  0  0  0  0  0  0  0  0  0
   -2.2912    1.5352    0.0000 C   0  0  0  0  0  0  0  0  0  0  0  0
   -2.6997   -0.6049    0.0000 N   0  0  0  0  0  0  0  0  0  0  0  0
   -2.2872   -1.3194    0.0000 C   0  0  0  0  0  0  0  0  0  0  0  0
   -2.6997   -2.0339    0.0000 C   0  0  0  0  0  0  0  0  0  0  0  0
   -2.2872   -2.7483    0.0000 C   0  0  0  0  0  0  0  0  0  0  0  0
   -2.6997   -3.4628    0.0000 C   0  0  0  0  0  0  0  0  0  0  0  0
  1  2  1  0
  2  3  1  0
  3  4  1  0
  4  5  1  0
  5  6  1  0
  6  7  1  0
  2  7  1  0
  7  8  2  0
  5  9  2  0
 10  1  1  0
 10 11  1  0
 11 12  2  0
 12 13  1  0
 13  1  1  0
 13 14  2  0
 11 15  1  0
 16 15  2  0
 17 16  1  0
 18 17  2  0
 12 18  1  0
 16 19  1  0
 19 20  1  0
 20 21  1  0
 21 22  1  0
 22 23  1  0
M  END
> <From>
www.bindingDB.org

> <BindingDB Reactant_set_id>
51567928

> <Ligand InChI>
InChI=1S/C17H21N3O3/c1-2-3-8-18-12-4-5-13-11(9-12)10-20(17(13)23)14-6-7-15(21)19-16(14)22/h4-5,9,14,18H,2-3,6-8,10H2,1H3,(H,19,21,22)

> <Ligand InChI Key>
OUEGCYAVXIPRPX-UHFFFAOYSA-N

> <BindingDB MonomerID>
50630608

> <BindingDB Ligand Name>
CHEMBL5415637

> <Target Name>
Protein cereblon

> <Target Source Organism According to Curator or DataSource>
Homo sapiens

> <Ki (nM)>


> <IC50 (nM)>
 7400

> <Kd (nM)>


> <EC50 (nM)>


> <kon (M-1-s-1)>


> <koff (s-1)>


> <pH>


> <Temp C>


> <Curation/DataSource>
ChEMBL

> <Article DOI>
10.1021/acs.jmedchem.3c00851

> <BindingDB Entry DOI>
10.7270/Q2PK0MM6

> <PMID>
37902300

> <PubChem AID>


> <Patent Number>


> <Authors>
Steinebach, C; Bricelj, A; Murgai, A; Sosič, I; Bischof, L; Ng, YLD; Heim, C; Maiwald, S; Proj, M; Voget, R; Feller, F; Košmrlj, J; Sapozhnikova, V; Schmidt, A; Zuleeg, MR; Lemnitzer, P; Mertins, P; Hansen, FK; Gütschow, M; Krönke, J; Hartmann, MD

> <Date of publication>
11/9/2023

> <Date in BindingDB>
12/20/2024

> <Institution>
University of Bonn

> <Link to Ligand in BindingDB>
http://www.bindingdb.org/bind/chemsearch/marvin/MolStructure.jsp?monomerid=50630608

> <Link to Ligand-Target Pair in BindingDB>
http://www.bindingdb.org/jsp/dbsearch/PrimarySearch_ki.jsp?energyterm=kJ/mole&tag=pol&polymerid=50007050&target=Protein+cereblon&column=ki&startPg=0&Increment=50&submit=Search

> <Link to Ligand-Target Pair in BindingDB>
http://www.bindingdb.org/jsp/dbsearch/PrimarySearch_ki.jsp?energyterm=kJ/mole&tag=r21&monomerid=50630608&enzyme=Protein+cereblon&column=ki&startPg=0&Increment=50&submit=Search

> <Ligand HET ID in PDB>


> <PDB ID(s) for Ligand-Target Complex>


> <PubChem CID of Ligand>
169548843

> <PubChem SID of Ligand>
505048579

> <ChEBI ID of Ligand>


> <ChEMBL ID of Ligand>


> <DrugBank ID of Ligand>


> <IUPHAR_GRAC ID of Ligand>


> <KEGG ID of Ligand>


> <ZINC ID of Ligand>


> <Number of Protein Chains in Target (bigger than 1 implies a multichain complex)>
1

> <BindingDB Target Chain Sequence>
MAGEGDQQDAAHNMGNHLPLLPAESEEEDEMEVEDQDSKEAKKPNIINFDTSLPTSHTYLGADMEEFHGRTLHDDDSCQVIPVLPQVMMILIPGQTLPLQLFHPQEVSMVRNLIQKDRTFAVLAYSNVQEREAQFGTTAEIYAYREEQDFGIEIVKVKAIGRQRFKVLELRTQSDGIQQAKVQILPECVLPSTMSAVQLESLNKCQIFPSKPVSREDQCSYKWWQKYQKRKFHCANLTSWPRWLYSLYDAETLMDRIKKQLREWDENLKDDSLPSNPIDFSYRVAACLPIDDVLRIQLLKIGSAIQRLRCELDIMNKCTSLCCKQCQETEITTKNEIFSLSLCGPMAAYVNPHGYVHETLTVYKACNLNLIGRPSTEHSWFPGYAWTVAQCKICASHIGWKFTATKKDMSPQKFWGLTRSALLPTIPDTEDEISPDKVILCL

> <PDB ID(s) of Target Chain>
8TNR,8TNQ,8TNP,8D81,8D80,8D7Z,8D7Y,8D7X,8D7W,8D7V,8D7U,8CVP,9DQD,8UH6,6BOY,6BNB,6BN9,6BN8,6BN7,6XK9,6UML,5V3O,5HXB,7U8F,8OJH,8OIZ,7LPS,4TZ4,9DJX,9DJT,8U17,8U16,8U15,8TZX,8DEY,9CUO,4M91

> <UniProt (SwissProt) Recommended Name of Target Chain>
Protein cereblon

> <UniProt (SwissProt) Entry Name of Target Chain>
CRBN_HUMAN

> <UniProt (SwissProt) Primary ID of Target Chain>
Q96SW2

> <UniProt (SwissProt) Secondary ID(s) of Target Chain>
B2R6H4 C9IZA9 C9JAH6 Q6AI62 Q6NVZ0 Q9UHW4

> <UniProt (SwissProt) Alternative ID(s) of Target Chain>


> <UniProt (TrEMBL) Submitted Name of Target Chain>


> <UniProt (TrEMBL) Entry Name of Target Chain>


> <UniProt (TrEMBL) Primary ID of Target Chain>


> <UniProt (TrEMBL) Secondary ID(s) of Target Chain>


> <UniProt (TrEMBL) Alternative ID(s) of Target Chain>


$$$$
 
     RDKit          2D

 21 23  0  0  0  0  0  0  0  0999 V2000
   -3.4063    1.1812    0.0000 O   0  0  0  0  0  0  0  0  0  0  0  0
   -2.9951    0.4660    0.0000 S   0  0  0  0  0  0  0  0  0  0  0  0
   -2.5821    1.1812    0.0000 O   0  0  0  0  0  0  0  0  0  0  0  0
   -3.7088    0.0539    0.0000 F   0  0  0  0  0  0  0  0  0  0  0  0
   -2.2812    0.0539    0.0000 C   0  0  0  0  0  0  0  0  0  0  0  0
   -2.2812   -0.7736    0.0000 C   0  0  0  0  0  0  0  0  0  0  0  0
   -1.5656   -1.1812    0.0000 C   0  0  0  0  0  0  0  0  0  0  0  0
   -0.8564   -0.7699    0.0000 C   0  0  0  0  0  0  0  0  0  0  0  0
   -0.0725   -1.0246    0.0000 C   0  0  0  0  0  0  0  0  0  0  0  0
    0.4119   -0.3578    0.0000 N   0  0  0  0  0  0  0  0  0  0  0  0
    1.2361   -0.3578    0.0000 C   0  0  0  0  0  0  0  0  0  0  0  0
    1.6483   -1.0717    0.0000 C   0  0  0  0  0  0  0  0  0  0  0  0
    2.4725   -1.0717    0.0000 N   0  0  0  0  0  0  0  0  0  0  0  0
    2.8846   -0.3578    0.0000 C   0  0  0  0  0  0  0  0  0  0  0  0
    3.7088   -0.3578    0.0000 O   0  0  0  0  0  0  0  0  0  0  0  0
    2.4725    0.3559    0.0000 C   0  0  0  0  0  0  0  0  0  0  0  0
    1.6482    0.3559    0.0000 C   0  0  0  0  0  0  0  0  0  0  0  0
   -0.0725    0.3090    0.0000 C   0  0  0  0  0  0  0  0  0  0  0  0
    0.1408    1.1051    0.0000 O   0  0  0  0  0  0  0  0  0  0  0  0
   -0.8564    0.0543    0.0000 C   0  0  0  0  0  0  0  0  0  0  0  0
   -1.5674    0.4657    0.0000 C   0  0  0  0  0  0  0  0  0  0  0  0
  2  1  2  0
  2  3  2  0
  2  4  1  0
  5  2  1  0
  5  6  1  0
  6  7  2  0
  7  8  1  0
  8  9  1  0
 10  9  1  0
 10 11  1  0
 11 12  1  0
 12 13  1  0
 13 14  1  0
 14 15  2  0
 14 16  1  0
 16 17  1  0
 17 11  1  0
 18 10  1  0
 18 19  2  0
 20 18  1  0
  8 20  2  0
 20 21  1  0
 21  5  2  0
M  END
> <From>
www.bindingDB.org

> <BindingDB Reactant_set_id>
51570922

> <Ligand InChI>
InChI=1S/C13H13FN2O4S/c14-21(19,20)10-3-1-8-7-16(13(18)11(8)5-10)9-2-4-12(17)15-6-9/h1,3,5,9H,2,4,6-7H2,(H,15,17)

> <Ligand InChI Key>
FMHUAAAQVPKZPP-UHFFFAOYSA-N

> <BindingDB MonomerID>
50631805

> <BindingDB Ligand Name>
CHEMBL5430028

> <Target Name>
Protein cereblon

> <Target Source Organism According to Curator or DataSource>
Homo sapiens

> <Ki (nM)>


> <IC50 (nM)>
 8500

> <Kd (nM)>


> <EC50 (nM)>


> <kon (M-1-s-1)>


> <koff (s-1)>


> <pH>


> <Temp C>


> <Curation/DataSource>
ChEMBL

> <Article DOI>
10.1039/d3md00652b

> <BindingDB Entry DOI>
10.7270/Q2CV4P64

> <PMID>
38389883

> <PubChem AID>


> <Patent Number>


> <Authors>
Liu, Y; Nowak, RP; Che, J; Donovan, KA; Huerta, F; Liu, H; Metivier, RJ; Fischer, ES; Jones, LH

> <Date of publication>
2/21/2024

> <Date in BindingDB>
12/21/2024

> <Institution>
Dana-Farber Cancer Institute

> <Link to Ligand in BindingDB>
http://www.bindingdb.org/bind/chemsearch/marvin/MolStructure.jsp?monomerid=50631805

> <Link to Ligand-Target Pair in BindingDB>
http://www.bindingdb.org/jsp/dbsearch/PrimarySearch_ki.jsp?energyterm=kJ/mole&tag=pol&polymerid=50007050&target=Protein+cereblon&column=ki&startPg=0&Increment=50&submit=Search

> <Link to Ligand-Target Pair in BindingDB>
http://www.bindingdb.org/jsp/dbsearch/PrimarySearch_ki.jsp?energyterm=kJ/mole&tag=r21&monomerid=50631805&enzyme=Protein+cereblon&column=ki&startPg=0&Increment=50&submit=Search

> <Ligand HET ID in PDB>


> <PDB ID(s) for Ligand-Target Complex>


> <PubChem CID of Ligand>
172465973

> <PubChem SID of Ligand>
505036139

> <ChEBI ID of Ligand>


> <ChEMBL ID of Ligand>


> <DrugBank ID of Ligand>


> <IUPHAR_GRAC ID of Ligand>


> <KEGG ID of Ligand>


> <ZINC ID of Ligand>


> <Number of Protein Chains in Target (bigger than 1 implies a multichain complex)>
1

> <BindingDB Target Chain Sequence>
MAGEGDQQDAAHNMGNHLPLLPAESEEEDEMEVEDQDSKEAKKPNIINFDTSLPTSHTYLGADMEEFHGRTLHDDDSCQVIPVLPQVMMILIPGQTLPLQLFHPQEVSMVRNLIQKDRTFAVLAYSNVQEREAQFGTTAEIYAYREEQDFGIEIVKVKAIGRQRFKVLELRTQSDGIQQAKVQILPECVLPSTMSAVQLESLNKCQIFPSKPVSREDQCSYKWWQKYQKRKFHCANLTSWPRWLYSLYDAETLMDRIKKQLREWDENLKDDSLPSNPIDFSYRVAACLPIDDVLRIQLLKIGSAIQRLRCELDIMNKCTSLCCKQCQETEITTKNEIFSLSLCGPMAAYVNPHGYVHETLTVYKACNLNLIGRPSTEHSWFPGYAWTVAQCKICASHIGWKFTATKKDMSPQKFWGLTRSALLPTIPDTEDEISPDKVILCL

> <PDB ID(s) of Target Chain>
8TNR,8TNQ,8TNP,8D81,8D80,8D7Z,8D7Y,8D7X,8D7W,8D7V,8D7U,8CVP,9DQD,8UH6,6BOY,6BNB,6BN9,6BN8,6BN7,6XK9,6UML,5V3O,5HXB,7U8F,8OJH,8OIZ,7LPS,4TZ4,9DJX,9DJT,8U17,8U16,8U15,8TZX,8DEY,9CUO,4M91

> <UniProt (SwissProt) Recommended Name of Target Chain>
Protein cereblon

> <UniProt (SwissProt) Entry Name of Target Chain>
CRBN_HUMAN

> <UniProt (SwissProt) Primary ID of Target Chain>
Q96SW2

> <UniProt (SwissProt) Secondary ID(s) of Target Chain>
B2R6H4 C9IZA9 C9JAH6 Q6AI62 Q6NVZ0 Q9UHW4

> <UniProt (SwissProt) Alternative ID(s) of Target Chain>


> <UniProt (TrEMBL) Submitted Name of Target Chain>


> <UniProt (TrEMBL) Entry Name of Target Chain>


> <UniProt (TrEMBL) Primary ID of Target Chain>


> <UniProt (TrEMBL) Secondary ID(s) of Target Chain>


> <UniProt (TrEMBL) Alternative ID(s) of Target Chain>


$$$$
75792
  Mrv0541 01031813182D          

 19 21  0  0  1  0            999 V2000
    5.1662   -1.4289    0.0000 O   0  0  0  0  0  0  0  0  0  0  0  0
    4.1159    1.4481    0.0000 O   0  0  0  0  0  0  0  0  0  0  0  0
    4.1159   -1.4481    0.0000 O   0  0  0  0  0  0  0  0  0  0  0  0
    7.6412    0.0000    0.0000 O   0  0  0  0  0  0  0  0  0  0  0  0
    4.3412    0.0000    0.0000 N   0  0  0  0  0  0  0  0  0  0  0  0
    6.4037   -0.7145    0.0000 N   0  0  0  0  0  0  0  0  0  0  0  0
    5.1662    0.0000    0.0000 C   0  0  1  0  0  0  0  0  0  0  0  0
    5.5787    0.7145    0.0000 C   0  0  0  0  0  0  0  0  0  0  0  0
    6.4037    0.7145    0.0000 C   0  0  0  0  0  0  0  0  0  0  0  0
    5.5787   -0.7145    0.0000 C   0  0  0  0  0  0  0  0  0  0  0  0
    3.8597    0.6639    0.0000 C   0  0  0  0  0  0  0  0  0  0  0  0
    3.8597   -0.6639    0.0000 C   0  0  0  0  0  0  0  0  0  0  0  0
    3.0790    0.4125    0.0000 C   0  0  0  0  0  0  0  0  0  0  0  0
    3.0790   -0.4125    0.0000 C   0  0  0  0  0  0  0  0  0  0  0  0
    6.8162    0.0000    0.0000 C   0  0  0  0  0  0  0  0  0  0  0  0
    2.3645   -0.8250    0.0000 C   0  0  0  0  0  0  0  0  0  0  0  0
    2.3645    0.8250    0.0000 C   0  0  0  0  0  0  0  0  0  0  0  0
    1.6500   -0.4125    0.0000 C   0  0  0  0  0  0  0  0  0  0  0  0
    1.6500    0.4125    0.0000 C   0  0  0  0  0  0  0  0  0  0  0  0
  1 10  2  0  0  0  0
  2 11  2  0  0  0  0
  3 12  2  0  0  0  0
  4 15  2  0  0  0  0
  7  5  1  1  0  0  0
  5 11  1  0  0  0  0
  5 12  1  0  0  0  0
  6 10  1  0  0  0  0
  6 15  1  0  0  0  0
  7  8  1  0  0  0  0
  7 10  1  0  0  0  0
  8  9  1  0  0  0  0
  9 15  1  0  0  0  0
 11 13  1  0  0  0  0
 12 14  1  0  0  0  0
 13 14  4  0  0  0  0
 13 17  4  0  0  0  0
 14 16  4  0  0  0  0
 16 18  4  0  0  0  0
 17 19  4  0  0  0  0
 18 19  4  0  0  0  0
M  END
> <From>
www.bindingDB.org

> <BindingDB Reactant_set_id>
455057

> <Ligand InChI>
InChI=1S/C13H10N2O4/c16-10-6-5-9(11(17)14-10)15-12(18)7-3-1-2-4-8(7)13(15)19/h1-4,9H,5-6H2,(H,14,16,17)/t9-/m0/s1

> <Ligand InChI Key>
UEJJHQNACJXSKW-VIFPVBQESA-N

> <BindingDB MonomerID>
65457

> <BindingDB Ligand Name>
(-)-Thalidomide::(S)-Thalidomide

> <Target Name>
Protein cereblon

> <Target Source Organism According to Curator or DataSource>
Human

> <Ki (nM)>


> <IC50 (nM)>
 10000

> <Kd (nM)>


> <EC50 (nM)>


> <kon (M-1-s-1)>


> <koff (s-1)>


> <pH>


> <Temp C>


> <Curation/DataSource>
Curated from the literature by BindingDB

> <Article DOI>
10.1038/leu.2012.119

> <BindingDB Entry DOI>
10.7270/Q26971RH

> <PMID>
22552008

> <PubChem AID>
aid1794853

> <Patent Number>


> <Authors>
Lopez-Girona, A; Mendy, D; Ito, T; Miller, K; Gandhi, AK; Kang, J; Karasawa, S; Carmel, G; Jackson, P; Abbasian, M; Mahmoudi, A; Cathers, B; Rychak, E; Gaidarova, S; Chen, R; Schafer, PH; Handa, H; Daniel, TO; Evans, JF; Chopra, R

> <Date of publication>
11/28/2012

> <Date in BindingDB>
1/3/2018

> <Institution>
Celgene

> <Link to Ligand in BindingDB>
http://www.bindingdb.org/bind/chemsearch/marvin/MolStructure.jsp?monomerid=65457

> <Link to Ligand-Target Pair in BindingDB>
http://www.bindingdb.org/jsp/dbsearch/PrimarySearch_ki.jsp?energyterm=kJ/mole&tag=pol&polymerid=50007050&target=Protein+cereblon&column=ki&startPg=0&Increment=50&submit=Search

> <Link to Ligand-Target Pair in BindingDB>
http://www.bindingdb.org/jsp/dbsearch/PrimarySearch_ki.jsp?energyterm=kJ/mole&tag=r21&monomerid=65457&enzyme=Protein+cereblon&column=ki&startPg=0&Increment=50&submit=Search

> <Ligand HET ID in PDB>
EF2

> <PDB ID(s) for Ligand-Target Complex>
4CI1,8BC7,5AMI,5AMH,7BQU,5YIZ,7PSO,4V32,4V2Y,5OH1,5AMK,5AMJ,6R13,6R12,6R19,6R18,6R1C,6R1A,6R1W,6R0U,6R0S,5YJ0,4TZC

> <PubChem CID of Ligand>
92142

> <PubChem SID of Ligand>
350083087

> <ChEBI ID of Ligand>


> <ChEMBL ID of Ligand>


> <DrugBank ID of Ligand>


> <IUPHAR_GRAC ID of Ligand>


> <KEGG ID of Ligand>
C07910

> <ZINC ID of Ligand>
ZINC05603500

> <Number of Protein Chains in Target (bigger than 1 implies a multichain complex)>
1

> <BindingDB Target Chain Sequence>
MAGEGDQQDAAHNMGNHLPLLPAESEEEDEMEVEDQDSKEAKKPNIINFDTSLPTSHTYLGADMEEFHGRTLHDDDSCQVIPVLPQVMMILIPGQTLPLQLFHPQEVSMVRNLIQKDRTFAVLAYSNVQEREAQFGTTAEIYAYREEQDFGIEIVKVKAIGRQRFKVLELRTQSDGIQQAKVQILPECVLPSTMSAVQLESLNKCQIFPSKPVSREDQCSYKWWQKYQKRKFHCANLTSWPRWLYSLYDAETLMDRIKKQLREWDENLKDDSLPSNPIDFSYRVAACLPIDDVLRIQLLKIGSAIQRLRCELDIMNKCTSLCCKQCQETEITTKNEIFSLSLCGPMAAYVNPHGYVHETLTVYKACNLNLIGRPSTEHSWFPGYAWTVAQCKICASHIGWKFTATKKDMSPQKFWGLTRSALLPTIPDTEDEISPDKVILCL

> <PDB ID(s) of Target Chain>
4TZ4,5HXB,5V3O,6UML,6XK9,7LPS,7U8F,8CVP,8D7U,8D7V,8D7W,8D7X,8D7Y,8D7Z,8D80,8D81,8DEY,8OIZ,8OJH

> <UniProt (SwissProt) Recommended Name of Target Chain>
Protein cereblon

> <UniProt (SwissProt) Entry Name of Target Chain>
CRBN_HUMAN

> <UniProt (SwissProt) Primary ID of Target Chain>
Q96SW2

> <UniProt (SwissProt) Secondary ID(s) of Target Chain>
B2R6H4 C9IZA9 C9JAH6 Q6AI62 Q6NVZ0 Q9UHW4

> <UniProt (SwissProt) Alternative ID(s) of Target Chain>


> <UniProt (TrEMBL) Submitted Name of Target Chain>


> <UniProt (TrEMBL) Entry Name of Target Chain>


> <UniProt (TrEMBL) Primary ID of Target Chain>


> <UniProt (TrEMBL) Secondary ID(s) of Target Chain>


> <UniProt (TrEMBL) Alternative ID(s) of Target Chain>


$$$$
 
     RDKit          2D

 65 73  0  0  0  0  0  0  0  0999 V2000
    6.8123   -4.9666    0.0000 C   0  0  0  0  0  0  0  0  0  0  0  0
    7.0152   -5.5966    0.0000 C   0  0  0  0  0  0  0  0  0  0  0  0
    6.4643   -6.2091    0.0000 C   0  0  0  0  0  0  0  0  0  0  0  0
    6.6338   -7.0160    0.0000 C   0  0  0  0  0  0  0  0  0  0  0  0
    5.9185   -7.4270    0.0000 N   0  0  0  0  0  0  0  0  0  0  0  0
    5.9153   -8.2534    0.0000 N   0  0  0  0  0  0  0  0  0  0  0  0
    6.6308   -8.6668    0.0000 C   0  0  0  0  0  0  0  0  0  0  0  0
    7.3462   -8.2559    0.0000 N   0  0  0  0  0  0  0  0  0  0  0  0
    7.3493   -7.4295    0.0000 C   0  0  0  0  0  0  0  0  0  0  0  0
    8.0651   -7.0182    0.0000 N   0  0  0  0  0  0  0  0  0  0  0  0
    8.7781   -7.4375    0.0000 C   0  0  0  0  0  0  0  0  0  0  0  0
    9.4934   -7.0266    0.0000 C   0  0  0  0  0  0  0  0  0  0  0  0
   10.2069   -7.4435    0.0000 C   0  0  0  0  0  0  0  0  0  0  0  0
   10.2033   -8.2679    0.0000 C   0  0  0  0  0  0  0  0  0  0  0  0
    9.4880   -8.6788    0.0000 C   0  0  0  0  0  0  0  0  0  0  0  0
    8.7745   -8.2620    0.0000 C   0  0  0  0  0  0  0  0  0  0  0  0
   10.9174   -8.6851    0.0000 N   0  0  0  0  0  0  0  0  0  0  0  0
   10.9121   -9.5116    0.0000 C   0  0  0  0  0  0  0  0  0  0  0  0
   11.6277   -9.9287    0.0000 C   0  0  0  0  0  0  0  0  0  0  0  0
   12.3429   -9.5179    0.0000 N   0  0  0  0  0  0  0  0  0  0  0  0
   12.3447   -8.6934    0.0000 C   0  0  0  0  0  0  0  0  0  0  0  0
   11.6327   -8.2741    0.0000 C   0  0  0  0  0  0  0  0  0  0  0  0
   13.0592   -9.9314    0.0000 C   0  0  0  0  0  0  0  0  0  0  0  0
   13.0565  -10.5926    0.0000 O   0  0  0  0  0  0  0  0  0  0  0  0
   13.7750   -9.5201    0.0000 C   0  0  0  0  0  0  0  0  0  0  0  0
   14.4883   -9.9366    0.0000 C   0  0  0  0  0  0  0  0  0  0  0  0
   15.2075   -9.5233    0.0000 C   0  0  0  0  0  0  0  0  0  0  0  0
   15.2067   -8.8643    0.0000 O   0  0  0  0  0  0  0  0  0  0  0  0
   15.9203   -9.9390    0.0000 N   0  0  0  0  0  0  0  0  0  0  0  0
   16.6356   -9.5280    0.0000 C   0  0  0  0  0  0  0  0  0  0  0  0
   17.3491   -9.9417    0.0000 C   0  0  0  0  0  0  0  0  0  0  0  0
   17.3459  -10.7717    0.0000 C   0  0  0  0  0  0  0  0  0  0  0  0
   16.6307  -11.1827    0.0000 C   0  0  0  0  0  0  0  0  0  0  0  0
   15.9186  -10.7634    0.0000 C   0  0  0  0  0  0  0  0  0  0  0  0
   18.0577  -11.1859    0.0000 C   0  0  0  0  0  0  0  0  0  0  0  0
   18.0543  -12.0109    0.0000 C   0  0  0  0  0  0  0  0  0  0  0  0
   18.7681  -12.4286    0.0000 N   0  0  0  0  0  0  0  0  0  0  0  0
   18.7628  -13.2551    0.0000 C   0  0  0  0  0  0  0  0  0  0  0  0
   19.4784  -13.6723    0.0000 C   0  0  0  0  0  0  0  0  0  0  0  0
   20.1937  -13.2613    0.0000 N   0  0  0  0  0  0  0  0  0  0  0  0
   20.1955  -12.4369    0.0000 C   0  0  0  0  0  0  0  0  0  0  0  0
   19.4834  -12.0175    0.0000 C   0  0  0  0  0  0  0  0  0  0  0  0
   20.9086  -13.6770    0.0000 C   0  0  0  0  0  0  0  0  0  0  0  0
   20.9052  -14.5035    0.0000 C   0  0  0  0  0  0  0  0  0  0  0  0
   21.6207  -14.9171    0.0000 C   0  0  0  0  0  0  0  0  0  0  0  0
   22.3359  -14.5061    0.0000 C   0  0  0  0  0  0  0  0  0  0  0  0
   22.3396  -13.6801    0.0000 C   0  0  0  0  0  0  0  0  0  0  0  0
   21.6240  -13.2659    0.0000 C   0  0  0  0  0  0  0  0  0  0  0  0
   22.9476  -15.0594    0.0000 C   0  0  0  0  0  0  0  0  0  0  0  0
   23.5957  -14.9226    0.0000 O   0  0  0  0  0  0  0  0  0  0  0  0
   22.6111  -15.8098    0.0000 N   0  0  0  0  0  0  0  0  0  0  0  0
   21.7897  -15.7241    0.0000 C   0  0  0  0  0  0  0  0  0  0  0  0
   21.3447  -16.2147    0.0000 O   0  0  0  0  0  0  0  0  0  0  0  0
   23.0642  -16.4999    0.0000 C   0  0  0  0  0  0  0  0  0  0  0  0
   23.8860  -16.5168    0.0000 C   0  0  0  0  0  0  0  0  0  0  0  0
   24.2274  -15.9501    0.0000 O   0  0  0  0  0  0  0  0  0  0  0  0
   24.2845  -17.2381    0.0000 N   0  0  0  0  0  0  0  0  0  0  0  0
   23.8592  -17.9452    0.0000 C   0  0  0  0  0  0  0  0  0  0  0  0
   24.1806  -18.5245    0.0000 O   0  0  0  0  0  0  0  0  0  0  0  0
   23.0356  -17.9309    0.0000 C   0  0  0  0  0  0  0  0  0  0  0  0
   22.6371  -17.2097    0.0000 C   0  0  0  0  0  0  0  0  0  0  0  0
    5.3067   -6.8742    0.0000 C   0  0  0  0  0  0  0  0  0  0  0  0
    5.6410   -6.1201    0.0000 C   0  0  0  0  0  0  0  0  0  0  0  0
    7.6619   -5.7348    0.0000 C   0  0  0  0  0  0  0  0  0  0  0  0
   25.0912  -17.2530    0.0000 C   0  0  0  0  0  0  0  0  0  0  0  0
  1  2  1  0
  2  3  1  0
  3  4  2  0
  4  5  1  0
  5  6  1  0
  6  7  2  0
  7  8  1  0
  8  9  2  0
  9  4  1  0
  9 10  1  0
 11 10  1  1
 11 12  1  0
 12 13  1  0
 13 14  1  0
 14 15  1  0
 15 16  1  0
 16 11  1  0
 14 17  1  1
 17 18  1  0
 18 19  1  0
 19 20  1  0
 20 21  1  0
 21 22  1  0
 22 17  1  0
 20 23  1  0
 23 24  2  0
 23 25  1  0
 25 26  1  0
 26 27  1  0
 27 28  2  0
 27 29  1  0
 29 30  1  0
 30 31  1  0
 31 32  1  0
 32 33  1  0
 33 34  1  0
 34 29  1  0
 32 35  1  0
 35 36  1  0
 36 37  1  0
 37 38  1  0
 38 39  1  0
 39 40  1  0
 40 41  1  0
 41 42  1  0
 42 37  1  0
 40 43  1  0
 43 44  2  0
 44 45  1  0
 45 46  2  0
 46 47  1  0
 47 48  2  0
 48 43  1  0
 46 49  1  0
 49 50  2  0
 49 51  1  0
 51 52  1  0
 52 45  1  0
 52 53  2  0
 51 54  1  0
 54 55  1  0
 55 56  2  0
 55 57  1  0
 57 58  1  0
 58 59  2  0
 58 60  1  0
 60 61  1  0
 61 54  1  0
  5 62  1  0
 62 63  2  0
 63  3  1  0
  2 64  1  0
 57 65  1  0
M  END
> <From>
www.bindingDB.org

> <BindingDB Reactant_set_id>
51388396

> <Ligand InChI>
InChI=1S/C48H65N11O6/c1-32(2)37-17-21-58-44(37)45(49-31-50-58)51-34-4-6-35(7-5-34)54-26-28-57(29-27-54)43(62)13-12-42(61)56-19-15-33(16-20-56)14-18-53-22-24-55(25-23-53)36-8-9-38-39(30-36)47(64)59(46(38)63)40-10-11-41(60)52(3)48(40)65/h8-9,17,21,30-35,40H,4-7,10-16,18-20,22-29H2,1-3H3,(H,49,50,51)/t34-,35+,40?

> <Ligand InChI Key>
GDDYLBPIGVZFSF-UKMVIOKASA-N

> <BindingDB MonomerID>
50560889

> <BindingDB Ligand Name>
CHEMBL4763746

> <Target Name>
Protein cereblon

> <Target Source Organism According to Curator or DataSource>
Human

> <Ki (nM)>


> <IC50 (nM)>
>12000

> <Kd (nM)>


> <EC50 (nM)>


> <kon (M-1-s-1)>


> <koff (s-1)>


> <pH>


> <Temp C>


> <Curation/DataSource>
ChEMBL

> <Article DOI>
10.1021/acs.jmedchem.0c01125

> <BindingDB Entry DOI>
10.7270/Q2P84GMZ

> <PMID>
32803978

> <PubChem AID>


> <Patent Number>


> <Authors>
Degorce, SL; Tavana, O; Banks, E; Crafter, C; Gingipalli, L; Kouvchinov, D; Mao, Y; Pachl, F; Solanki, A; Valge-Archer, V; Yang, B; Edmondson, SD

> <Date of publication>
9/24/2020

> <Date in BindingDB>
3/28/2022

> <Institution>
AstraZeneca

> <Link to Ligand in BindingDB>
http://www.bindingdb.org/bind/chemsearch/marvin/MolStructure.jsp?monomerid=50560889

> <Link to Ligand-Target Pair in BindingDB>
http://www.bindingdb.org/jsp/dbsearch/PrimarySearch_ki.jsp?energyterm=kJ/mole&tag=pol&polymerid=50007050&target=Protein+cereblon&column=ki&startPg=0&Increment=50&submit=Search

> <Link to Ligand-Target Pair in BindingDB>
http://www.bindingdb.org/jsp/dbsearch/PrimarySearch_ki.jsp?energyterm=kJ/mole&tag=r21&monomerid=50560889&enzyme=Protein+cereblon&column=ki&startPg=0&Increment=50&submit=Search

> <Ligand HET ID in PDB>


> <PDB ID(s) for Ligand-Target Complex>


> <PubChem CID of Ligand>
162661177

> <PubChem SID of Ligand>
461831281

> <ChEBI ID of Ligand>


> <ChEMBL ID of Ligand>


> <DrugBank ID of Ligand>


> <IUPHAR_GRAC ID of Ligand>


> <KEGG ID of Ligand>


> <ZINC ID of Ligand>


> <Number of Protein Chains in Target (bigger than 1 implies a multichain complex)>
1

> <BindingDB Target Chain Sequence>
MAGEGDQQDAAHNMGNHLPLLPAESEEEDEMEVEDQDSKEAKKPNIINFDTSLPTSHTYLGADMEEFHGRTLHDDDSCQVIPVLPQVMMILIPGQTLPLQLFHPQEVSMVRNLIQKDRTFAVLAYSNVQEREAQFGTTAEIYAYREEQDFGIEIVKVKAIGRQRFKVLELRTQSDGIQQAKVQILPECVLPSTMSAVQLESLNKCQIFPSKPVSREDQCSYKWWQKYQKRKFHCANLTSWPRWLYSLYDAETLMDRIKKQLREWDENLKDDSLPSNPIDFSYRVAACLPIDDVLRIQLLKIGSAIQRLRCELDIMNKCTSLCCKQCQETEITTKNEIFSLSLCGPMAAYVNPHGYVHETLTVYKACNLNLIGRPSTEHSWFPGYAWTVAQCKICASHIGWKFTATKKDMSPQKFWGLTRSALLPTIPDTEDEISPDKVILCL

> <PDB ID(s) of Target Chain>
4TZ4,5HXB,5V3O,6UML,6XK9,7LPS,7U8F,8CVP,8D7U,8D7V,8D7W,8D7X,8D7Y,8D7Z,8D80,8D81,8DEY,8OIZ,8OJH

> <UniProt (SwissProt) Recommended Name of Target Chain>
Protein cereblon

> <UniProt (SwissProt) Entry Name of Target Chain>
CRBN_HUMAN

> <UniProt (SwissProt) Primary ID of Target Chain>
Q96SW2

> <UniProt (SwissProt) Secondary ID(s) of Target Chain>
B2R6H4 C9IZA9 C9JAH6 Q6AI62 Q6NVZ0 Q9UHW4

> <UniProt (SwissProt) Alternative ID(s) of Target Chain>


> <UniProt (TrEMBL) Submitted Name of Target Chain>


> <UniProt (TrEMBL) Entry Name of Target Chain>


> <UniProt (TrEMBL) Primary ID of Target Chain>


> <UniProt (TrEMBL) Secondary ID(s) of Target Chain>


> <UniProt (TrEMBL) Alternative ID(s) of Target Chain>


$$$$
 
     RDKit          2D

 56 62  0  0  0  0  0  0  0  0999 V2000
   23.5089  -17.5055    0.0000 C   0  0  0  0  0  0  0  0  0  0  0  0
   24.1674  -17.0216    0.0000 N   0  0  0  0  0  0  0  0  0  0  0  0
   23.9125  -16.2452    0.0000 C   0  0  0  0  0  0  0  0  0  0  0  0
   23.0953  -16.2476    0.0000 C   0  0  0  0  0  0  0  0  0  0  0  0
   22.8452  -17.0256    0.0000 S   0  0  0  0  0  0  0  0  0  0  0  0
   24.3886  -15.5825    0.0000 C   0  0  0  0  0  0  0  0  0  0  0  0
   25.2025  -15.6670    0.0000 C   0  0  0  0  0  0  0  0  0  0  0  0
   25.6807  -15.0052    0.0000 C   0  0  0  0  0  0  0  0  0  0  0  0
   25.3462  -14.2587    0.0000 C   0  0  0  0  0  0  0  0  0  0  0  0
   24.5287  -14.1779    0.0000 C   0  0  0  0  0  0  0  0  0  0  0  0
   24.0542  -14.8406    0.0000 C   0  0  0  0  0  0  0  0  0  0  0  0
   25.8232  -13.5963    0.0000 C   0  0  0  0  0  0  0  0  0  0  0  0
   26.6372  -13.6796    0.0000 C   0  0  0  0  0  0  0  0  0  0  0  0
   27.1145  -13.0172    0.0000 C   0  0  0  0  0  0  0  0  0  0  0  0
   26.7790  -12.2712    0.0000 C   0  0  0  0  0  0  0  0  0  0  0  0
   25.9614  -12.1914    0.0000 C   0  0  0  0  0  0  0  0  0  0  0  0
   25.4878  -12.8548    0.0000 C   0  0  0  0  0  0  0  0  0  0  0  0
   24.9477  -24.8541    0.0000 C   0  0  0  0  0  0  0  0  0  0  0  0
   24.9465  -25.6737    0.0000 C   0  0  0  0  0  0  0  0  0  0  0  0
   25.6546  -26.0826    0.0000 C   0  0  0  0  0  0  0  0  0  0  0  0
   25.6528  -24.4453    0.0000 C   0  0  0  0  0  0  0  0  0  0  0  0
   26.3614  -24.8505    0.0000 C   0  0  0  0  0  0  0  0  0  0  0  0
   26.3662  -25.6691    0.0000 C   0  0  0  0  0  0  0  0  0  0  0  0
   27.1462  -25.9176    0.0000 C   0  0  0  0  0  0  0  0  0  0  0  0
   27.6236  -25.2525    0.0000 N   0  0  0  0  0  0  0  0  0  0  0  0
   27.1385  -24.5931    0.0000 C   0  0  0  0  0  0  0  0  0  0  0  0
   28.4400  -25.2464    0.0000 C   0  0  0  0  0  0  0  0  0  0  0  0
   28.8515  -25.9535    0.0000 C   0  0  0  0  0  0  0  0  0  0  0  0
   29.6651  -25.9506    0.0000 N   0  0  0  0  0  0  0  0  0  0  0  0
   30.0734  -25.2423    0.0000 C   0  0  0  0  0  0  0  0  0  0  0  0
   29.6618  -24.5352    0.0000 C   0  0  0  0  0  0  0  0  0  0  0  0
   28.8420  -24.5364    0.0000 C   0  0  0  0  0  0  0  0  0  0  0  0
   25.6504  -23.6281    0.0000 N   0  0  0  0  0  0  0  0  0  0  0  0
   24.9414  -23.2216    0.0000 C   0  0  0  0  0  0  0  0  0  0  0  0
   24.9390  -22.4044    0.0000 C   0  0  0  0  0  0  0  0  0  0  0  0
   24.2301  -21.9979    0.0000 C   0  0  0  0  0  0  0  0  0  0  0  0
   24.2276  -21.1807    0.0000 C   0  0  0  0  0  0  0  0  0  0  0  0
   23.5187  -20.7743    0.0000 N   0  0  0  0  0  0  0  0  0  0  0  0
   23.5163  -19.9571    0.0000 C   0  0  0  0  0  0  0  0  0  0  0  0
   22.8073  -19.5506    0.0000 O   0  0  0  0  0  0  0  0  0  0  0  0
   24.2227  -19.5464    0.0000 C   0  0  0  0  0  0  0  0  0  0  0  0
   24.9317  -19.9529    0.0000 C   0  0  0  0  0  0  0  0  0  0  0  0
   24.2203  -18.7292    0.0000 N   0  0  0  0  0  0  0  0  0  0  0  0
   28.4454  -26.6626    0.0000 O   0  0  0  0  0  0  0  0  0  0  0  0
   30.8906  -25.2406    0.0000 O   0  0  0  0  0  0  0  0  0  0  0  0
   27.4033  -26.6933    0.0000 O   0  0  0  0  0  0  0  0  0  0  0  0
   27.3864  -23.8144    0.0000 O   0  0  0  0  0  0  0  0  0  0  0  0
   24.9323  -20.7693    0.0000 C   0  0  0  0  0  0  0  0  0  0  0  0
   25.6404  -21.1757    0.0000 C   0  0  0  0  0  0  0  0  0  0  0  0
   26.3478  -20.7649    0.0000 C   0  0  0  0  0  0  0  0  0  0  0  0
   26.3427  -19.9435    0.0000 C   0  0  0  0  0  0  0  0  0  0  0  0
   25.6341  -19.5408    0.0000 C   0  0  0  0  0  0  0  0  0  0  0  0
   23.5114  -18.3227    0.0000 N   0  0  0  0  0  0  0  0  0  0  0  0
   25.6257  -18.7209    0.0000 N   0  0  0  0  0  0  0  0  0  0  0  0
   26.3306  -18.3074    0.0000 O   0  0  0  0  0  0  0  0  0  0  0  0
   24.9152  -18.3172    0.0000 O   0  0  0  0  0  0  0  0  0  0  0  0
  1  2  2  0
  2  3  1  0
  3  4  2  0
  4  5  1  0
  5  1  1  0
  6  7  2  0
  7  8  1  0
  8  9  2  0
  9 10  1  0
 10 11  2  0
 11  6  1  0
  3  6  1  0
 12 13  2  0
 13 14  1  0
 14 15  2  0
 15 16  1  0
 16 17  2  0
 17 12  1  0
  9 12  1  0
 18 19  2  0
 19 20  1  0
 20 23  2  0
 22 21  2  0
 21 18  1  0
 22 23  1  0
 23 24  1  0
 24 25  1  0
 25 26  1  0
 26 22  1  0
 27 28  1  0
 27 32  1  0
 28 29  1  0
 29 30  1  0
 30 31  1  0
 31 32  1  0
 25 27  1  0
 21 33  1  0
 33 34  1  0
 34 35  1  0
 35 36  1  0
 36 37  1  0
 37 38  1  0
 38 39  1  0
 39 40  2  0
 39 41  1  0
 41 42  1  0
 41 43  2  0
 28 44  2  0
 30 45  2  0
 24 46  2  0
 26 47  2  0
 42 48  2  0
 48 49  1  0
 49 50  2  0
 50 51  1  0
 51 52  2  0
 52 42  1  0
 43 53  1  0
 53  1  1  0
 54 55  1  0
 54 56  2  0
 52 54  1  0
M  CHG  2  54   1  55  -1
M  END
> <From>
www.bindingDB.org

> <BindingDB Reactant_set_id>
51413242

> <Ligand InChI>
InChI=1S/C40H34N8O7S/c49-33-20-19-32(36(50)44-33)47-38(52)28-12-8-13-29(34(28)39(47)53)41-21-6-7-22-42-37(51)35(27-11-4-5-14-31(27)48(54)55)45-46-40-43-30(23-56-40)26-17-15-25(16-18-26)24-9-2-1-3-10-24/h1-5,8-18,23,32,41H,6-7,19-22H2,(H,42,51)(H,43,46)(H,44,49,50)/b45-35-

> <Ligand InChI Key>
CWKAWUHTUGAXQR-VKWCIQKDSA-N

> <BindingDB MonomerID>
50570885

> <BindingDB Ligand Name>
CHEMBL4855690

> <Target Name>
Protein cereblon

> <Target Source Organism According to Curator or DataSource>
Human

> <Ki (nM)>


> <IC50 (nM)>
 13000

> <Kd (nM)>


> <EC50 (nM)>


> <kon (M-1-s-1)>


> <koff (s-1)>


> <pH>


> <Temp C>


> <Curation/DataSource>
ChEMBL

> <Article DOI>
10.1016/j.ejmech.2021.113435

> <BindingDB Entry DOI>
10.7270/Q2QV3R91

> <PMID>
33892272

> <PubChem AID>


> <Patent Number>


> <Authors>
Fischer, PD; Papadopoulos, E; Dempersmier, JM; Wang, ZF; Nowak, RP; Donovan, KA; Kalabathula, J; Gorgulla, C; Junghanns, PPM; Kabha, E; Dimitrakakis, N; Petrov, OI; Mitsiades, C; Ducho, C; Gelev, V; Fischer, ES; Wagner, G; Arthanari, H

> <Date of publication>
7/5/2021

> <Date in BindingDB>
8/20/2022

> <Institution>
Dana-Farber Cancer Institute

> <Link to Ligand in BindingDB>
http://www.bindingdb.org/bind/chemsearch/marvin/MolStructure.jsp?monomerid=50570885

> <Link to Ligand-Target Pair in BindingDB>
http://www.bindingdb.org/jsp/dbsearch/PrimarySearch_ki.jsp?energyterm=kJ/mole&tag=pol&polymerid=50007050&target=Protein+cereblon&column=ki&startPg=0&Increment=50&submit=Search

> <Link to Ligand-Target Pair in BindingDB>
http://www.bindingdb.org/jsp/dbsearch/PrimarySearch_ki.jsp?energyterm=kJ/mole&tag=r21&monomerid=50570885&enzyme=Protein+cereblon&column=ki&startPg=0&Increment=50&submit=Search

> <Ligand HET ID in PDB>


> <PDB ID(s) for Ligand-Target Complex>


> <PubChem CID of Ligand>
164614635

> <PubChem SID of Ligand>
471061030

> <ChEBI ID of Ligand>


> <ChEMBL ID of Ligand>


> <DrugBank ID of Ligand>


> <IUPHAR_GRAC ID of Ligand>


> <KEGG ID of Ligand>


> <ZINC ID of Ligand>


> <Number of Protein Chains in Target (bigger than 1 implies a multichain complex)>
1

> <BindingDB Target Chain Sequence>
MAGEGDQQDAAHNMGNHLPLLPAESEEEDEMEVEDQDSKEAKKPNIINFDTSLPTSHTYLGADMEEFHGRTLHDDDSCQVIPVLPQVMMILIPGQTLPLQLFHPQEVSMVRNLIQKDRTFAVLAYSNVQEREAQFGTTAEIYAYREEQDFGIEIVKVKAIGRQRFKVLELRTQSDGIQQAKVQILPECVLPSTMSAVQLESLNKCQIFPSKPVSREDQCSYKWWQKYQKRKFHCANLTSWPRWLYSLYDAETLMDRIKKQLREWDENLKDDSLPSNPIDFSYRVAACLPIDDVLRIQLLKIGSAIQRLRCELDIMNKCTSLCCKQCQETEITTKNEIFSLSLCGPMAAYVNPHGYVHETLTVYKACNLNLIGRPSTEHSWFPGYAWTVAQCKICASHIGWKFTATKKDMSPQKFWGLTRSALLPTIPDTEDEISPDKVILCL

> <PDB ID(s) of Target Chain>
4TZ4,5HXB,5V3O,6UML,6XK9,7LPS,7U8F,8CVP,8D7U,8D7V,8D7W,8D7X,8D7Y,8D7Z,8D80,8D81,8DEY,8OIZ,8OJH

> <UniProt (SwissProt) Recommended Name of Target Chain>
Protein cereblon

> <UniProt (SwissProt) Entry Name of Target Chain>
CRBN_HUMAN

> <UniProt (SwissProt) Primary ID of Target Chain>
Q96SW2

> <UniProt (SwissProt) Secondary ID(s) of Target Chain>
B2R6H4 C9IZA9 C9JAH6 Q6AI62 Q6NVZ0 Q9UHW4

> <UniProt (SwissProt) Alternative ID(s) of Target Chain>


> <UniProt (TrEMBL) Submitted Name of Target Chain>


> <UniProt (TrEMBL) Entry Name of Target Chain>


> <UniProt (TrEMBL) Primary ID of Target Chain>


> <UniProt (TrEMBL) Secondary ID(s) of Target Chain>


> <UniProt (TrEMBL) Alternative ID(s) of Target Chain>


$$$$
134780
  Mrv0541 01031813182D          

 20 22  0  0  1  0            999 V2000
    5.1662   -1.6578    0.0000 O   0  0  0  0  0  0  0  0  0  0  0  0
    4.1159    1.2193    0.0000 O   0  0  0  0  0  0  0  0  0  0  0  0
    4.1159   -1.6769    0.0000 O   0  0  0  0  0  0  0  0  0  0  0  0
    7.6412   -0.2289    0.0000 O   0  0  0  0  0  0  0  0  0  0  0  0
    4.3412   -0.2289    0.0000 N   0  0  0  0  0  0  0  0  0  0  0  0
    6.4037   -0.9433    0.0000 N   0  0  0  0  0  0  0  0  0  0  0  0
    2.3645    1.4212    0.0000 N   0  0  0  0  0  0  0  0  0  0  0  0
    5.1662   -0.2289    0.0000 C   0  0  0  0  0  0  0  0  0  0  0  0
    5.5787    0.4857    0.0000 C   0  0  0  0  0  0  0  0  0  0  0  0
    6.4037    0.4857    0.0000 C   0  0  0  0  0  0  0  0  0  0  0  0
    5.5787   -0.9433    0.0000 C   0  0  0  0  0  0  0  0  0  0  0  0
    3.8597    0.4351    0.0000 C   0  0  0  0  0  0  0  0  0  0  0  0
    3.8597   -0.8928    0.0000 C   0  0  0  0  0  0  0  0  0  0  0  0
    3.0790    0.1836    0.0000 C   0  0  0  0  0  0  0  0  0  0  0  0
    3.0790   -0.6414    0.0000 C   0  0  0  0  0  0  0  0  0  0  0  0
    6.8162   -0.2289    0.0000 C   0  0  0  0  0  0  0  0  0  0  0  0
    2.3645    0.5962    0.0000 C   0  0  0  0  0  0  0  0  0  0  0  0
    2.3645   -1.0539    0.0000 C   0  0  0  0  0  0  0  0  0  0  0  0
    1.6500    0.1836    0.0000 C   0  0  0  0  0  0  0  0  0  0  0  0
    1.6500   -0.6414    0.0000 C   0  0  0  0  0  0  0  0  0  0  0  0
  1 11  2  0  0  0  0
  2 12  2  0  0  0  0
  3 13  2  0  0  0  0
  4 16  2  0  0  0  0
  5  8  1  0  0  0  0
  5 12  1  0  0  0  0
  5 13  1  0  0  0  0
  6 11  1  0  0  0  0
  6 16  1  0  0  0  0
  7 17  1  0  0  0  0
  8  9  1  0  0  0  0
  8 11  1  0  0  0  0
  9 10  1  0  0  0  0
 10 16  1  0  0  0  0
 12 14  1  0  0  0  0
 13 15  1  0  0  0  0
 14 15  4  0  0  0  0
 14 17  4  0  0  0  0
 15 18  4  0  0  0  0
 17 19  4  0  0  0  0
 18 20  4  0  0  0  0
 19 20  4  0  0  0  0
M  END
> <From>
www.bindingDB.org

> <BindingDB Reactant_set_id>
51567906

> <Ligand InChI>
InChI=1S/C13H11N3O4/c14-7-3-1-2-6-10(7)13(20)16(12(6)19)8-4-5-9(17)15-11(8)18/h1-3,8H,4-5,14H2,(H,15,17,18)

> <Ligand InChI Key>
UVSMNLNDYGZFPF-UHFFFAOYSA-N

> <BindingDB MonomerID>
65456

> <BindingDB Ligand Name>
19171-19-8::4-amino-2-(2,6-dioxopiperidin-3-yl)isoindoline-1,3-dione::Actimid::CC-4047::Pomalyst::US11059801, Compound D-4::US20230271966, Compound Pomalidomide::US9694015, 6.2::pomalidomide

> <Target Name>
Protein cereblon

> <Target Source Organism According to Curator or DataSource>
Homo sapiens

> <Ki (nM)>


> <IC50 (nM)>
 13000

> <Kd (nM)>


> <EC50 (nM)>


> <kon (M-1-s-1)>


> <koff (s-1)>


> <pH>


> <Temp C>


> <Curation/DataSource>
ChEMBL

> <Article DOI>
10.1021/acs.jmedchem.3c00851

> <BindingDB Entry DOI>
10.7270/Q2PK0MM6

> <PMID>
37902300

> <PubChem AID>


> <Patent Number>


> <Authors>
n/a

> <Date of publication>
11/9/2023

> <Date in BindingDB>
12/20/2024

> <Institution>
n/a

> <Link to Ligand in BindingDB>
http://www.bindingdb.org/bind/chemsearch/marvin/MolStructure.jsp?monomerid=65456

> <Link to Ligand-Target Pair in BindingDB>
http://www.bindingdb.org/jsp/dbsearch/PrimarySearch_ki.jsp?energyterm=kJ/mole&tag=pol&polymerid=50007050&target=Protein+cereblon&column=ki&startPg=0&Increment=50&submit=Search

> <Link to Ligand-Target Pair in BindingDB>
http://www.bindingdb.org/jsp/dbsearch/PrimarySearch_ki.jsp?energyterm=kJ/mole&tag=r21&monomerid=65456&enzyme=Protein+cereblon&column=ki&startPg=0&Increment=50&submit=Search

> <Ligand HET ID in PDB>
Y70    

> <PDB ID(s) for Ligand-Target Complex>
7SZA

> <PubChem CID of Ligand>
134780

> <PubChem SID of Ligand>
350083086

> <ChEBI ID of Ligand>


> <ChEMBL ID of Ligand>


> <DrugBank ID of Ligand>
DB08910

> <IUPHAR_GRAC ID of Ligand>


> <KEGG ID of Ligand>


> <ZINC ID of Ligand>
ZINC15953204

> <Number of Protein Chains in Target (bigger than 1 implies a multichain complex)>
1

> <BindingDB Target Chain Sequence>
MAGEGDQQDAAHNMGNHLPLLPAESEEEDEMEVEDQDSKEAKKPNIINFDTSLPTSHTYLGADMEEFHGRTLHDDDSCQVIPVLPQVMMILIPGQTLPLQLFHPQEVSMVRNLIQKDRTFAVLAYSNVQEREAQFGTTAEIYAYREEQDFGIEIVKVKAIGRQRFKVLELRTQSDGIQQAKVQILPECVLPSTMSAVQLESLNKCQIFPSKPVSREDQCSYKWWQKYQKRKFHCANLTSWPRWLYSLYDAETLMDRIKKQLREWDENLKDDSLPSNPIDFSYRVAACLPIDDVLRIQLLKIGSAIQRLRCELDIMNKCTSLCCKQCQETEITTKNEIFSLSLCGPMAAYVNPHGYVHETLTVYKACNLNLIGRPSTEHSWFPGYAWTVAQCKICASHIGWKFTATKKDMSPQKFWGLTRSALLPTIPDTEDEISPDKVILCL

> <PDB ID(s) of Target Chain>
8TNR,8TNQ,8TNP,8D81,8D80,8D7Z,8D7Y,8D7X,8D7W,8D7V,8D7U,8CVP,9DQD,8UH6,6BOY,6BNB,6BN9,6BN8,6BN7,6XK9,6UML,5V3O,5HXB,7U8F,8OJH,8OIZ,7LPS,4TZ4,9DJX,9DJT,8U17,8U16,8U15,8TZX,8DEY,9CUO,4M91

> <UniProt (SwissProt) Recommended Name of Target Chain>
Protein cereblon

> <UniProt (SwissProt) Entry Name of Target Chain>
CRBN_HUMAN

> <UniProt (SwissProt) Primary ID of Target Chain>
Q96SW2

> <UniProt (SwissProt) Secondary ID(s) of Target Chain>
B2R6H4 C9IZA9 C9JAH6 Q6AI62 Q6NVZ0 Q9UHW4

> <UniProt (SwissProt) Alternative ID(s) of Target Chain>


> <UniProt (TrEMBL) Submitted Name of Target Chain>


> <UniProt (TrEMBL) Entry Name of Target Chain>


> <UniProt (TrEMBL) Primary ID of Target Chain>


> <UniProt (TrEMBL) Secondary ID(s) of Target Chain>


> <UniProt (TrEMBL) Alternative ID(s) of Target Chain>


$$$$
 
     RDKit          2D

 19 20  0  0  0  0  0  0  0  0999 V2000
    0.3572    1.0312    0.0000 C   0  0  0  0  0  0  0  0  0  0  0  0
    1.0716    1.4437    0.0000 C   0  0  0  0  0  0  0  0  0  0  0  0
    1.0716    2.2687    0.0000 C   0  0  0  0  0  0  0  0  0  0  0  0
    1.7861    2.6812    0.0000 C   0  0  0  0  0  0  0  0  0  0  0  0
    2.5005    2.2686    0.0000 C   0  0  0  0  0  0  0  0  0  0  0  0
    2.5005    1.4437    0.0000 N   0  0  0  0  0  0  0  0  0  0  0  0
    1.7861    1.0312    0.0000 C   0  0  0  0  0  0  0  0  0  0  0  0
    1.7861    0.2062    0.0000 O   0  0  0  0  0  0  0  0  0  0  0  0
    3.2150    2.6812    0.0000 O   0  0  0  0  0  0  0  0  0  0  0  0
    0.3572    0.2062    0.0000 C   0  0  0  0  0  0  0  0  0  0  0  0
   -0.3572   -0.2062    0.0000 C   0  0  0  0  0  0  0  0  0  0  0  0
   -1.0716    0.2062    0.0000 C   0  0  0  0  0  0  0  0  0  0  0  0
   -1.0716    1.0312    0.0000 C   0  0  0  0  0  0  0  0  0  0  0  0
   -0.3572    1.4437    0.0000 C   0  0  0  0  0  0  0  0  0  0  0  0
   -1.7861   -0.2062    0.0000 O   0  0  0  0  0  0  0  0  0  0  0  0
   -1.7861   -1.0312    0.0000 C   0  0  0  0  0  0  0  0  0  0  0  0
   -2.5005   -1.4437    0.0000 C   0  0  0  0  0  0  0  0  0  0  0  0
   -2.5005   -2.2687    0.0000 C   0  0  0  0  0  0  0  0  0  0  0  0
   -3.2150   -2.6812    0.0000 C   0  0  0  0  0  0  0  0  0  0  0  0
  1  2  1  0
  2  3  1  0
  3  4  1  0
  4  5  1  0
  5  6  1  0
  6  7  1  0
  2  7  1  0
  7  8  2  0
  5  9  2  0
 10  1  1  0
 11 10  2  0
 12 11  1  0
 13 12  2  0
 14 13  1  0
  1 14  2  0
 12 15  1  0
 15 16  1  0
 16 17  1  0
 17 18  1  0
 18 19  1  0
M  END
> <From>
www.bindingDB.org

> <BindingDB Reactant_set_id>
51567927

> <Ligand InChI>
InChI=1S/C15H19NO3/c1-2-3-10-19-12-6-4-11(5-7-12)13-8-9-14(17)16-15(13)18/h4-7,13H,2-3,8-10H2,1H3,(H,16,17,18)

> <Ligand InChI Key>
YAHLYYMAJMLQQH-UHFFFAOYSA-N

> <BindingDB MonomerID>
50630607

> <BindingDB Ligand Name>
CHEMBL5427990

> <Target Name>
Protein cereblon

> <Target Source Organism According to Curator or DataSource>
Homo sapiens

> <Ki (nM)>


> <IC50 (nM)>
 14000

> <Kd (nM)>


> <EC50 (nM)>


> <kon (M-1-s-1)>


> <koff (s-1)>


> <pH>


> <Temp C>


> <Curation/DataSource>
ChEMBL

> <Article DOI>
10.1021/acs.jmedchem.3c00851

> <BindingDB Entry DOI>
10.7270/Q2PK0MM6

> <PMID>
37902300

> <PubChem AID>


> <Patent Number>


> <Authors>
Steinebach, C; Bricelj, A; Murgai, A; Sosič, I; Bischof, L; Ng, YLD; Heim, C; Maiwald, S; Proj, M; Voget, R; Feller, F; Košmrlj, J; Sapozhnikova, V; Schmidt, A; Zuleeg, MR; Lemnitzer, P; Mertins, P; Hansen, FK; Gütschow, M; Krönke, J; Hartmann, MD

> <Date of publication>
11/9/2023

> <Date in BindingDB>
12/20/2024

> <Institution>
University of Bonn

> <Link to Ligand in BindingDB>
http://www.bindingdb.org/bind/chemsearch/marvin/MolStructure.jsp?monomerid=50630607

> <Link to Ligand-Target Pair in BindingDB>
http://www.bindingdb.org/jsp/dbsearch/PrimarySearch_ki.jsp?energyterm=kJ/mole&tag=pol&polymerid=50007050&target=Protein+cereblon&column=ki&startPg=0&Increment=50&submit=Search

> <Link to Ligand-Target Pair in BindingDB>
http://www.bindingdb.org/jsp/dbsearch/PrimarySearch_ki.jsp?energyterm=kJ/mole&tag=r21&monomerid=50630607&enzyme=Protein+cereblon&column=ki&startPg=0&Increment=50&submit=Search

> <Ligand HET ID in PDB>


> <PDB ID(s) for Ligand-Target Complex>


> <PubChem CID of Ligand>
12399099

> <PubChem SID of Ligand>
505048578

> <ChEBI ID of Ligand>


> <ChEMBL ID of Ligand>


> <DrugBank ID of Ligand>


> <IUPHAR_GRAC ID of Ligand>


> <KEGG ID of Ligand>


> <ZINC ID of Ligand>


> <Number of Protein Chains in Target (bigger than 1 implies a multichain complex)>
1

> <BindingDB Target Chain Sequence>
MAGEGDQQDAAHNMGNHLPLLPAESEEEDEMEVEDQDSKEAKKPNIINFDTSLPTSHTYLGADMEEFHGRTLHDDDSCQVIPVLPQVMMILIPGQTLPLQLFHPQEVSMVRNLIQKDRTFAVLAYSNVQEREAQFGTTAEIYAYREEQDFGIEIVKVKAIGRQRFKVLELRTQSDGIQQAKVQILPECVLPSTMSAVQLESLNKCQIFPSKPVSREDQCSYKWWQKYQKRKFHCANLTSWPRWLYSLYDAETLMDRIKKQLREWDENLKDDSLPSNPIDFSYRVAACLPIDDVLRIQLLKIGSAIQRLRCELDIMNKCTSLCCKQCQETEITTKNEIFSLSLCGPMAAYVNPHGYVHETLTVYKACNLNLIGRPSTEHSWFPGYAWTVAQCKICASHIGWKFTATKKDMSPQKFWGLTRSALLPTIPDTEDEISPDKVILCL

> <PDB ID(s) of Target Chain>
8TNR,8TNQ,8TNP,8D81,8D80,8D7Z,8D7Y,8D7X,8D7W,8D7V,8D7U,8CVP,9DQD,8UH6,6BOY,6BNB,6BN9,6BN8,6BN7,6XK9,6UML,5V3O,5HXB,7U8F,8OJH,8OIZ,7LPS,4TZ4,9DJX,9DJT,8U17,8U16,8U15,8TZX,8DEY,9CUO,4M91

> <UniProt (SwissProt) Recommended Name of Target Chain>
Protein cereblon

> <UniProt (SwissProt) Entry Name of Target Chain>
CRBN_HUMAN

> <UniProt (SwissProt) Primary ID of Target Chain>
Q96SW2

> <UniProt (SwissProt) Secondary ID(s) of Target Chain>
B2R6H4 C9IZA9 C9JAH6 Q6AI62 Q6NVZ0 Q9UHW4

> <UniProt (SwissProt) Alternative ID(s) of Target Chain>


> <UniProt (TrEMBL) Submitted Name of Target Chain>


> <UniProt (TrEMBL) Entry Name of Target Chain>


> <UniProt (TrEMBL) Primary ID of Target Chain>


> <UniProt (TrEMBL) Secondary ID(s) of Target Chain>


> <UniProt (TrEMBL) Alternative ID(s) of Target Chain>


$$$$

     RDKit          2D

 35 38  0  0  0  0  0  0  0  0999 V2000
    1.5699   -1.3571    0.0000 C   0  0  0  0  0  0  0  0  0  0  0  0
    2.2844   -1.7696    0.0000 C   0  0  0  0  0  0  0  0  0  0  0  0
    2.9989   -2.1821    0.0000 C   0  0  0  0  0  0  0  0  0  0  0  0
    2.9989   -3.0071    0.0000 C   0  0  0  0  0  0  0  0  0  0  0  0
    3.7134   -3.4196    0.0000 C   0  0  0  0  0  0  0  0  0  0  0  0
    3.7134   -4.2446    0.0000 N   0  0  0  0  0  0  0  0  0  0  0  0
    4.4278   -3.0071    0.0000 C   0  0  0  0  0  0  0  0  0  0  0  0
    4.4278   -2.1821    0.0000 C   0  0  0  0  0  0  0  0  0  0  0  0
    5.1423   -1.7696    0.0000 C   0  0  0  0  0  0  0  0  0  0  0  0
    5.1423   -0.9446    0.0000 C   0  0  0  0  0  0  0  0  0  0  0  0
    5.8568   -0.5321    0.0000 C   0  0  0  0  0  0  0  0  0  0  0  0
    8.0002   -0.9446    0.0000 C   0  0  0  0  0  0  0  0  0  0  0  0
    8.7147   -0.5321    0.0000 N   0  0  0  0  0  0  0  0  0  0  0  0
    8.0002   -1.7696    0.0000 C   0  0  0  0  0  0  0  0  0  0  0  0
    7.2857   -2.1821    0.0000 C   0  0  0  0  0  0  0  0  0  0  0  0
    6.5712   -1.7696    0.0000 C   0  0  0  0  0  0  0  0  0  0  0  0
    5.8568   -2.1821    0.0000 C   0  0  0  0  0  0  0  0  0  0  0  0
    3.7134   -1.7696    0.0000 C   0  0  0  0  0  0  0  0  0  0  0  0
    4.4278   -0.5321    0.0000 C   0  0  0  0  0  0  0  0  0  0  0  0
    3.7134   -0.9446    0.0000 O   0  0  0  0  0  0  0  0  0  0  0  0
    1.8719   -2.4841    0.0000 C   0  0  0  0  0  0  0  0  0  0  0  0
    2.6969   -1.0552    0.0000 C   0  0  0  0  0  0  0  0  0  0  0  0
    6.5712   -0.9446    0.0000 C   0  0  0  0  0  0  0  0  0  0  0  0
    7.2857   -0.5321    0.0000 C   0  0  0  0  0  0  0  0  0  0  0  0
    4.4278   -5.4821    0.0000 N   0  0  0  0  0  0  0  0  0  0  0  0
    4.4278   -4.6571    0.0000 C   0  0  0  0  0  0  0  0  0  0  0  0
    5.1423   -4.2446    0.0000 O   0  0  0  0  0  0  0  0  0  0  0  0
    3.7134   -6.7196    0.0000 O   0  0  0  0  0  0  0  0  0  0  0  0
    3.7134   -5.8946    0.0000 C   0  0  0  0  0  0  0  0  0  0  0  0
    2.9989   -5.4821    0.0000 C   0  0  0  0  0  0  0  0  0  0  0  0
    2.9989   -4.6571    0.0000 C   0  0  0  0  0  0  0  0  0  0  0  0
    8.7147    0.2929    0.0000 S   0  0  0  0  0  0  0  0  0  0  0  0
    8.7147    1.1179    0.0000 C   0  0  0  0  0  0  0  0  0  0  0  0
    9.5397    0.2929    0.0000 O   0  0  0  0  0  0  0  0  0  0  0  0
    7.8897    0.2929    0.0000 O   0  0  0  0  0  0  0  0  0  0  0  0
  1  2  1  0
  2 21  1  0
  3  2  1  0
  3 18  1  0
  4  3  2  0
  4  5  1  0
  5  7  2  0
  6  5  1  0
  6 26  1  0
  8  9  1  0
  8  7  1  0
  9 17  2  0
 10  9  1  0
 10 11  2  0
 11 23  1  0
 12 13  1  0
 12 14  1  0
 13 32  1  0
 15 14  2  0
 16 15  1  0
 17 16  1  0
 18  8  2  0
 20 19  1  0
 20 18  1  0
 22  2  1  0
 23 16  2  0
 23 24  1  0
 24 12  2  0
 25 26  1  0
 26 27  2  0
 28 29  2  0
 29 30  1  0
 29 25  1  0
 30 31  2  0
 31  6  1  0
 32 33  1  0
 32 34  2  0
 32 35  2  0
M  END
> <From>
www.bindingDB.org

> <BindingDB Reactant_set_id>
51359705

> <Ligand InChI>
InChI=1S/C26H27N3O5S/c1-26(2,3)22-15-20(29-11-10-23(30)27-25(29)31)14-21(24(22)34-4)18-7-6-17-13-19(28-35(5,32)33)9-8-16(17)12-18/h6-15,28H,1-5H3,(H,27,30,31)

> <Ligand InChI Key>
NBRBXGKOEOGLOI-UHFFFAOYSA-N

> <BindingDB MonomerID>
50549803

> <BindingDB Ligand Name>
ABT-333::CHEBI:85182::Dasabuvir::Dasabuvir sodium monohydrate::Exviera

> <Target Name>
Protein cereblon

> <Target Source Organism According to Curator or DataSource>
Human

> <Ki (nM)>


> <IC50 (nM)>
 15600

> <Kd (nM)>


> <EC50 (nM)>


> <kon (M-1-s-1)>


> <koff (s-1)>


> <pH>


> <Temp C>


> <Curation/DataSource>
ChEMBL

> <Article DOI>
10.1021/acsmedchemlett.0c00440

> <BindingDB Entry DOI>
10.7270/Q2WM1J1B

> <PMID>
33488967

> <PubChem AID>


> <Patent Number>


> <Authors>
Maiwald, S; Heim, C; Hernandez Alvarez, B; Hartmann, MD

> <Date of publication>
1/14/2021

> <Date in BindingDB>
3/23/2022

> <Institution>
Max Planck Institute for Developmental Biology

> <Link to Ligand in BindingDB>
http://www.bindingdb.org/bind/chemsearch/marvin/MolStructure.jsp?monomerid=50549803

> <Link to Ligand-Target Pair in BindingDB>
http://www.bindingdb.org/jsp/dbsearch/PrimarySearch_ki.jsp?energyterm=kJ/mole&tag=pol&polymerid=50007050&target=Protein+cereblon&column=ki&startPg=0&Increment=50&submit=Search

> <Link to Ligand-Target Pair in BindingDB>
http://www.bindingdb.org/jsp/dbsearch/PrimarySearch_ki.jsp?energyterm=kJ/mole&tag=r21&monomerid=50549803&enzyme=Protein+cereblon&column=ki&startPg=0&Increment=50&submit=Search

> <Ligand HET ID in PDB>


> <PDB ID(s) for Ligand-Target Complex>


> <PubChem CID of Ligand>
56640146

> <PubChem SID of Ligand>
461680143

> <ChEBI ID of Ligand>


> <ChEMBL ID of Ligand>


> <DrugBank ID of Ligand>


> <IUPHAR_GRAC ID of Ligand>


> <KEGG ID of Ligand>


> <ZINC ID of Ligand>


> <Number of Protein Chains in Target (bigger than 1 implies a multichain complex)>
1

> <BindingDB Target Chain Sequence>
MAGEGDQQDAAHNMGNHLPLLPAESEEEDEMEVEDQDSKEAKKPNIINFDTSLPTSHTYLGADMEEFHGRTLHDDDSCQVIPVLPQVMMILIPGQTLPLQLFHPQEVSMVRNLIQKDRTFAVLAYSNVQEREAQFGTTAEIYAYREEQDFGIEIVKVKAIGRQRFKVLELRTQSDGIQQAKVQILPECVLPSTMSAVQLESLNKCQIFPSKPVSREDQCSYKWWQKYQKRKFHCANLTSWPRWLYSLYDAETLMDRIKKQLREWDENLKDDSLPSNPIDFSYRVAACLPIDDVLRIQLLKIGSAIQRLRCELDIMNKCTSLCCKQCQETEITTKNEIFSLSLCGPMAAYVNPHGYVHETLTVYKACNLNLIGRPSTEHSWFPGYAWTVAQCKICASHIGWKFTATKKDMSPQKFWGLTRSALLPTIPDTEDEISPDKVILCL

> <PDB ID(s) of Target Chain>
4TZ4,5HXB,5V3O,6UML,6XK9,7LPS,7U8F,8CVP,8D7U,8D7V,8D7W,8D7X,8D7Y,8D7Z,8D80,8D81,8DEY,8OIZ,8OJH

> <UniProt (SwissProt) Recommended Name of Target Chain>
Protein cereblon

> <UniProt (SwissProt) Entry Name of Target Chain>
CRBN_HUMAN

> <UniProt (SwissProt) Primary ID of Target Chain>
Q96SW2

> <UniProt (SwissProt) Secondary ID(s) of Target Chain>
B2R6H4 C9IZA9 C9JAH6 Q6AI62 Q6NVZ0 Q9UHW4

> <UniProt (SwissProt) Alternative ID(s) of Target Chain>


> <UniProt (TrEMBL) Submitted Name of Target Chain>


> <UniProt (TrEMBL) Entry Name of Target Chain>


> <UniProt (TrEMBL) Primary ID of Target Chain>


> <UniProt (TrEMBL) Secondary ID(s) of Target Chain>


> <UniProt (TrEMBL) Alternative ID(s) of Target Chain>


$$$$
134780
  Mrv0541 01031814082D          

 33 37  0  0  1  0            999 V2000
    3.1156   -0.6484    0.0000 O   0  0  0  0  0  0  0  0  0  0  0  0
    5.9927    0.4018    0.0000 O   0  0  0  0  0  0  0  0  0  0  0  0
    4.5445   -3.1234    0.0000 O   0  0  0  0  0  0  0  0  0  0  0  0
    4.5445    0.1765    0.0000 N   0  0  0  0  0  0  0  0  0  0  0  0
    3.8301   -1.8859    0.0000 N   0  0  0  0  0  0  0  0  0  0  0  0
    4.5445   -0.6484    0.0000 C   0  0  1  0  0  0  0  0  0  0  0  0
    5.2591   -1.0609    0.0000 C   0  0  0  0  0  0  0  0  0  0  0  0
    5.2591   -1.8859    0.0000 C   0  0  0  0  0  0  0  0  0  0  0  0
    3.8301   -1.0609    0.0000 C   0  0  0  0  0  0  0  0  0  0  0  0
    5.2085    0.6580    0.0000 C   0  0  0  0  0  0  0  0  0  0  0  0
    3.8806    0.6580    0.0000 C   0  0  0  0  0  0  0  0  0  0  0  0
    4.9570    1.4387    0.0000 C   0  0  0  0  0  0  0  0  0  0  0  0
    4.1320    1.4387    0.0000 C   0  0  0  0  0  0  0  0  0  0  0  0
    4.5445   -2.2984    0.0000 C   0  0  0  0  0  0  0  0  0  0  0  0
    5.3696    2.1532    0.0000 C   0  0  0  0  0  0  0  0  0  0  0  0
    3.7195    2.1532    0.0000 C   0  0  0  0  0  0  0  0  0  0  0  0
    4.9570    2.8677    0.0000 C   0  0  0  0  0  0  0  0  0  0  0  0
    4.1320    2.8677    0.0000 C   0  0  0  0  0  0  0  0  0  0  0  0
    2.8945    2.1532    0.0000 O   0  0  0  0  0  0  0  0  0  0  0  0
    2.4820    2.8677    0.0000 C   0  0  0  0  0  0  0  0  0  0  0  0
    1.6570    2.8677    0.0000 C   0  0  0  0  0  0  0  0  0  0  0  0
    1.2446    3.5821    0.0000 C   0  0  0  0  0  0  0  0  0  0  0  0
    0.4195    3.5822    0.0000 C   0  0  0  0  0  0  0  0  0  0  0  0
    0.0069    2.8678    0.0000 C   0  0  0  0  0  0  0  0  0  0  0  0
    0.4194    2.1533    0.0000 C   0  0  0  0  0  0  0  0  0  0  0  0
    1.2445    2.1532    0.0000 C   0  0  0  0  0  0  0  0  0  0  0  0
   -0.8181    2.8678    0.0000 C   0  0  0  0  0  0  0  0  0  0  0  0
   -1.2306    2.1534    0.0000 N   0  0  0  0  0  0  0  0  0  0  0  0
   -2.0556    2.1534    0.0000 C   0  0  0  0  0  0  0  0  0  0  0  0
   -2.4682    1.4388    0.0000 C   0  0  0  0  0  0  0  0  0  0  0  0
   -2.0556    0.7244    0.0000 O   0  0  0  0  0  0  0  0  0  0  0  0
   -1.2306    0.7243    0.0000 C   0  0  0  0  0  0  0  0  0  0  0  0
   -0.8181    1.4389    0.0000 C   0  0  0  0  0  0  0  0  0  0  0  0
  1  9  2  0  0  0  0
  2 10  2  0  0  0  0
  3 14  2  0  0  0  0
  6  4  1  1  0  0  0
  4 10  1  0  0  0  0
  4 11  1  0  0  0  0
  5  9  1  0  0  0  0
  5 14  1  0  0  0  0
  6  7  1  0  0  0  0
  6  9  1  0  0  0  0
  7  8  1  0  0  0  0
  8 14  1  0  0  0  0
 10 12  1  0  0  0  0
 11 13  1  0  0  0  0
 12 13  4  0  0  0  0
 12 15  4  0  0  0  0
 13 16  4  0  0  0  0
 15 17  4  0  0  0  0
 16 18  4  0  0  0  0
 17 18  4  0  0  0  0
 16 19  1  0  0  0  0
 19 20  1  0  0  0  0
 20 21  1  0  0  0  0
 22 23  4  0  0  0  0
 23 24  4  0  0  0  0
 24 25  4  0  0  0  0
 25 26  4  0  0  0  0
 21 22  4  0  0  0  0
 26 21  4  0  0  0  0
 24 27  1  0  0  0  0
 27 28  1  0  0  0  0
 29 30  1  0  0  0  0
 32 33  1  0  0  0  0
 28 29  1  0  0  0  0
 28 33  1  0  0  0  0
 30 31  1  0  0  0  0
 31 32  1  0  0  0  0
M  END
> <From>
www.bindingDB.org

> <BindingDB Reactant_set_id>
51359713

> <Ligand InChI>
InChI=1S/C25H27N3O5/c29-23-9-8-21(24(30)26-23)28-15-20-19(25(28)31)2-1-3-22(20)33-16-18-6-4-17(5-7-18)14-27-10-12-32-13-11-27/h1-7,21H,8-16H2,(H,26,29,30)/t21-/m0/s1

> <Ligand InChI Key>
IXZOHGPZAQLIBH-NRFANRHFSA-N

> <BindingDB MonomerID>
65497

> <BindingDB Ligand Name>
CC-220 (Compound 6)::US9694015, 6.4S

> <Target Name>
Protein cereblon

> <Target Source Organism According to Curator or DataSource>
Human

> <Ki (nM)>


> <IC50 (nM)>
 16000

> <Kd (nM)>


> <EC50 (nM)>


> <kon (M-1-s-1)>


> <koff (s-1)>


> <pH>


> <Temp C>


> <Curation/DataSource>
ChEMBL

> <Article DOI>
10.1021/acsmedchemlett.0c00440

> <BindingDB Entry DOI>
10.7270/Q2WM1J1B

> <PMID>
33488967

> <PubChem AID>


> <Patent Number>


> <Authors>
Maiwald, S; Heim, C; Hernandez Alvarez, B; Hartmann, MD

> <Date of publication>
1/14/2021

> <Date in BindingDB>
3/23/2022

> <Institution>
Max Planck Institute for Developmental Biology

> <Link to Ligand in BindingDB>
http://www.bindingdb.org/bind/chemsearch/marvin/MolStructure.jsp?monomerid=65497

> <Link to Ligand-Target Pair in BindingDB>
http://www.bindingdb.org/jsp/dbsearch/PrimarySearch_ki.jsp?energyterm=kJ/mole&tag=pol&polymerid=50007050&target=Protein+cereblon&column=ki&startPg=0&Increment=50&submit=Search

> <Link to Ligand-Target Pair in BindingDB>
http://www.bindingdb.org/jsp/dbsearch/PrimarySearch_ki.jsp?energyterm=kJ/mole&tag=r21&monomerid=65497&enzyme=Protein+cereblon&column=ki&startPg=0&Increment=50&submit=Search

> <Ligand HET ID in PDB>
8W7

> <PDB ID(s) for Ligand-Target Complex>
7PS9,5V3O,8D80

> <PubChem CID of Ligand>
67335295

> <PubChem SID of Ligand>
350083120

> <ChEBI ID of Ligand>


> <ChEMBL ID of Ligand>


> <DrugBank ID of Ligand>


> <IUPHAR_GRAC ID of Ligand>


> <KEGG ID of Ligand>


> <ZINC ID of Ligand>
ZINC13133466

> <Number of Protein Chains in Target (bigger than 1 implies a multichain complex)>
1

> <BindingDB Target Chain Sequence>
MAGEGDQQDAAHNMGNHLPLLPAESEEEDEMEVEDQDSKEAKKPNIINFDTSLPTSHTYLGADMEEFHGRTLHDDDSCQVIPVLPQVMMILIPGQTLPLQLFHPQEVSMVRNLIQKDRTFAVLAYSNVQEREAQFGTTAEIYAYREEQDFGIEIVKVKAIGRQRFKVLELRTQSDGIQQAKVQILPECVLPSTMSAVQLESLNKCQIFPSKPVSREDQCSYKWWQKYQKRKFHCANLTSWPRWLYSLYDAETLMDRIKKQLREWDENLKDDSLPSNPIDFSYRVAACLPIDDVLRIQLLKIGSAIQRLRCELDIMNKCTSLCCKQCQETEITTKNEIFSLSLCGPMAAYVNPHGYVHETLTVYKACNLNLIGRPSTEHSWFPGYAWTVAQCKICASHIGWKFTATKKDMSPQKFWGLTRSALLPTIPDTEDEISPDKVILCL

> <PDB ID(s) of Target Chain>
4TZ4,5HXB,5V3O,6UML,6XK9,7LPS,7U8F,8CVP,8D7U,8D7V,8D7W,8D7X,8D7Y,8D7Z,8D80,8D81,8DEY,8OIZ,8OJH

> <UniProt (SwissProt) Recommended Name of Target Chain>
Protein cereblon

> <UniProt (SwissProt) Entry Name of Target Chain>
CRBN_HUMAN

> <UniProt (SwissProt) Primary ID of Target Chain>
Q96SW2

> <UniProt (SwissProt) Secondary ID(s) of Target Chain>
B2R6H4 C9IZA9 C9JAH6 Q6AI62 Q6NVZ0 Q9UHW4

> <UniProt (SwissProt) Alternative ID(s) of Target Chain>


> <UniProt (TrEMBL) Submitted Name of Target Chain>


> <UniProt (TrEMBL) Entry Name of Target Chain>


> <UniProt (TrEMBL) Primary ID of Target Chain>


> <UniProt (TrEMBL) Secondary ID(s) of Target Chain>


> <UniProt (TrEMBL) Alternative ID(s) of Target Chain>


$$$$
 
     RDKit          2D

 24 26  0  0  0  0  0  0  0  0999 V2000
    1.0709    1.0304    0.0000 N   0  0  0  0  0  0  0  0  0  0  0  0
    1.7853    1.4430    0.0000 C   0  0  0  0  0  0  0  0  0  0  0  0
    1.7853    2.2679    0.0000 C   0  0  0  0  0  0  0  0  0  0  0  0
    2.4998    2.6804    0.0000 C   0  0  0  0  0  0  0  0  0  0  0  0
    3.2143    2.2679    0.0000 C   0  0  0  0  0  0  0  0  0  0  0  0
    3.2143    1.4429    0.0000 N   0  0  0  0  0  0  0  0  0  0  0  0
    2.4998    1.0304    0.0000 C   0  0  0  0  0  0  0  0  0  0  0  0
    2.4998    0.2054    0.0000 O   0  0  0  0  0  0  0  0  0  0  0  0
    3.9288    2.6804    0.0000 O   0  0  0  0  0  0  0  0  0  0  0  0
    1.0709    0.2054    0.0000 N   0  0  0  0  0  0  0  0  0  0  0  0
    0.3564   -0.2070    0.0000 N   0  0  0  0  0  0  0  0  0  0  0  0
   -0.3580    0.2054    0.0000 C   0  0  0  0  0  0  0  0  0  0  0  0
   -0.3580    1.0305    0.0000 C   0  0  0  0  0  0  0  0  0  0  0  0
    0.3564    1.4430    0.0000 C   0  0  0  0  0  0  0  0  0  0  0  0
    0.3564    2.2679    0.0000 O   0  0  0  0  0  0  0  0  0  0  0  0
   -1.0705   -0.2052    0.0000 C   0  0  0  0  0  0  0  0  0  0  0  0
   -1.7853    0.2070    0.0000 C   0  0  0  0  0  0  0  0  0  0  0  0
   -1.7871    1.0279    0.0000 C   0  0  0  0  0  0  0  0  0  0  0  0
   -1.0756    1.4444    0.0000 C   0  0  0  0  0  0  0  0  0  0  0  0
   -2.4996   -0.2054    0.0000 N   0  0  0  0  0  0  0  0  0  0  0  0
   -2.4996   -1.0304    0.0000 C   0  0  0  0  0  0  0  0  0  0  0  0
   -3.2143   -1.4429    0.0000 C   0  0  0  0  0  0  0  0  0  0  0  0
   -3.2143   -2.2679    0.0000 C   0  0  0  0  0  0  0  0  0  0  0  0
   -3.9288   -2.6804    0.0000 C   0  0  0  0  0  0  0  0  0  0  0  0
  1  2  1  0
  2  3  1  0
  3  4  1  0
  4  5  1  0
  5  6  1  0
  6  7  1  0
  2  7  1  0
  7  8  2  0
  5  9  2  0
 10  1  1  0
 11 10  2  0
 12 11  1  0
 13 12  2  0
 14 13  1  0
  1 14  1  0
 14 15  2  0
 12 16  1  0
 17 16  2  0
 18 17  1  0
 19 18  2  0
 13 19  1  0
 17 20  1  0
 20 21  1  0
 21 22  1  0
 22 23  1  0
 23 24  1  0
M  END
> <From>
www.bindingDB.org

> <BindingDB Reactant_set_id>
51567926

> <Ligand InChI>
InChI=1S/C16H19N5O3/c1-2-3-8-17-10-4-5-11-12(9-10)19-20-21(16(11)24)13-6-7-14(22)18-15(13)23/h4-5,9,13,17H,2-3,6-8H2,1H3,(H,18,22,23)

> <Ligand InChI Key>
BWYRJHMYILLTOI-UHFFFAOYSA-N

> <BindingDB MonomerID>
50630606

> <BindingDB Ligand Name>
CHEMBL5414951

> <Target Name>
Protein cereblon

> <Target Source Organism According to Curator or DataSource>
Homo sapiens

> <Ki (nM)>


> <IC50 (nM)>
 16000

> <Kd (nM)>


> <EC50 (nM)>


> <kon (M-1-s-1)>


> <koff (s-1)>


> <pH>


> <Temp C>


> <Curation/DataSource>
ChEMBL

> <Article DOI>
10.1021/acs.jmedchem.3c00851

> <BindingDB Entry DOI>
10.7270/Q2PK0MM6

> <PMID>
37902300

> <PubChem AID>


> <Patent Number>


> <Authors>
Steinebach, C; Bricelj, A; Murgai, A; Sosič, I; Bischof, L; Ng, YLD; Heim, C; Maiwald, S; Proj, M; Voget, R; Feller, F; Košmrlj, J; Sapozhnikova, V; Schmidt, A; Zuleeg, MR; Lemnitzer, P; Mertins, P; Hansen, FK; Gütschow, M; Krönke, J; Hartmann, MD

> <Date of publication>
11/9/2023

> <Date in BindingDB>
12/20/2024

> <Institution>
University of Bonn

> <Link to Ligand in BindingDB>
http://www.bindingdb.org/bind/chemsearch/marvin/MolStructure.jsp?monomerid=50630606

> <Link to Ligand-Target Pair in BindingDB>
http://www.bindingdb.org/jsp/dbsearch/PrimarySearch_ki.jsp?energyterm=kJ/mole&tag=pol&polymerid=50007050&target=Protein+cereblon&column=ki&startPg=0&Increment=50&submit=Search

> <Link to Ligand-Target Pair in BindingDB>
http://www.bindingdb.org/jsp/dbsearch/PrimarySearch_ki.jsp?energyterm=kJ/mole&tag=r21&monomerid=50630606&enzyme=Protein+cereblon&column=ki&startPg=0&Increment=50&submit=Search

> <Ligand HET ID in PDB>


> <PDB ID(s) for Ligand-Target Complex>


> <PubChem CID of Ligand>
172452876

> <PubChem SID of Ligand>
505048577

> <ChEBI ID of Ligand>


> <ChEMBL ID of Ligand>


> <DrugBank ID of Ligand>


> <IUPHAR_GRAC ID of Ligand>


> <KEGG ID of Ligand>


> <ZINC ID of Ligand>


> <Number of Protein Chains in Target (bigger than 1 implies a multichain complex)>
1

> <BindingDB Target Chain Sequence>
MAGEGDQQDAAHNMGNHLPLLPAESEEEDEMEVEDQDSKEAKKPNIINFDTSLPTSHTYLGADMEEFHGRTLHDDDSCQVIPVLPQVMMILIPGQTLPLQLFHPQEVSMVRNLIQKDRTFAVLAYSNVQEREAQFGTTAEIYAYREEQDFGIEIVKVKAIGRQRFKVLELRTQSDGIQQAKVQILPECVLPSTMSAVQLESLNKCQIFPSKPVSREDQCSYKWWQKYQKRKFHCANLTSWPRWLYSLYDAETLMDRIKKQLREWDENLKDDSLPSNPIDFSYRVAACLPIDDVLRIQLLKIGSAIQRLRCELDIMNKCTSLCCKQCQETEITTKNEIFSLSLCGPMAAYVNPHGYVHETLTVYKACNLNLIGRPSTEHSWFPGYAWTVAQCKICASHIGWKFTATKKDMSPQKFWGLTRSALLPTIPDTEDEISPDKVILCL

> <PDB ID(s) of Target Chain>
8TNR,8TNQ,8TNP,8D81,8D80,8D7Z,8D7Y,8D7X,8D7W,8D7V,8D7U,8CVP,9DQD,8UH6,6BOY,6BNB,6BN9,6BN8,6BN7,6XK9,6UML,5V3O,5HXB,7U8F,8OJH,8OIZ,7LPS,4TZ4,9DJX,9DJT,8U17,8U16,8U15,8TZX,8DEY,9CUO,4M91

> <UniProt (SwissProt) Recommended Name of Target Chain>
Protein cereblon

> <UniProt (SwissProt) Entry Name of Target Chain>
CRBN_HUMAN

> <UniProt (SwissProt) Primary ID of Target Chain>
Q96SW2

> <UniProt (SwissProt) Secondary ID(s) of Target Chain>
B2R6H4 C9IZA9 C9JAH6 Q6AI62 Q6NVZ0 Q9UHW4

> <UniProt (SwissProt) Alternative ID(s) of Target Chain>


> <UniProt (TrEMBL) Submitted Name of Target Chain>


> <UniProt (TrEMBL) Entry Name of Target Chain>


> <UniProt (TrEMBL) Primary ID of Target Chain>


> <UniProt (TrEMBL) Secondary ID(s) of Target Chain>


> <UniProt (TrEMBL) Alternative ID(s) of Target Chain>


$$$$
 
     RDKit          2D

 22 23  0  0  0  0  0  0  0  0999 V2000
    1.7847   -0.3577    0.0000 C   0  0  0  0  0  0  0  0  0  0  0  0
    1.0702   -0.7702    0.0000 N   0  0  0  0  0  0  0  0  0  0  0  0
    0.3558   -0.3577    0.0000 C   0  0  0  0  0  0  0  0  0  0  0  0
   -0.3586   -0.7702    0.0000 C   0  0  0  0  0  0  0  0  0  0  0  0
   -1.0730   -0.3577    0.0000 C   0  0  0  0  0  0  0  0  0  0  0  0
   -1.7829   -0.7693    0.0000 C   0  0  0  0  0  0  0  0  0  0  0  0
   -2.4991   -0.3613    0.0000 C   0  0  0  0  0  0  0  0  0  0  0  0
   -2.4991    0.4668    0.0000 C   0  0  0  0  0  0  0  0  0  0  0  0
   -1.7847    0.8790    0.0000 C   0  0  0  0  0  0  0  0  0  0  0  0
   -1.0730    0.4672    0.0000 C   0  0  0  0  0  0  0  0  0  0  0  0
   -3.2136    0.8794    0.0000 S   0  0  0  0  0  0  0  0  0  0  0  0
   -3.9281    0.4668    0.0000 F   0  0  0  0  0  0  0  0  0  0  0  0
   -2.8004    1.5951    0.0000 O   0  0  0  0  0  0  0  0  0  0  0  0
   -3.6253    1.5951    0.0000 O   0  0  0  0  0  0  0  0  0  0  0  0
    0.3558    0.4672    0.0000 O   0  0  0  0  0  0  0  0  0  0  0  0
    1.7847    0.4672    0.0000 C   0  0  0  0  0  0  0  0  0  0  0  0
    2.4991    0.8797    0.0000 C   0  0  0  0  0  0  0  0  0  0  0  0
    3.2136    0.4672    0.0000 C   0  0  0  0  0  0  0  0  0  0  0  0
    3.2136   -0.3577    0.0000 N   0  0  0  0  0  0  0  0  0  0  0  0
    2.4992   -0.7702    0.0000 C   0  0  0  0  0  0  0  0  0  0  0  0
    2.4992   -1.5951    0.0000 O   0  0  0  0  0  0  0  0  0  0  0  0
    3.9281    0.8797    0.0000 O   0  0  0  0  0  0  0  0  0  0  0  0
  1  2  1  0
  3  2  1  0
  4  3  1  0
  5  4  1  0
  6  5  1  0
  7  6  2  0
  8  7  1  0
  9  8  2  0
 10  9  1  0
  5 10  2  0
  8 11  1  0
 11 12  1  0
 11 13  2  0
 11 14  2  0
  3 15  2  0
 16  1  1  0
 17 16  1  0
 18 17  1  0
 19 18  1  0
 20 19  1  0
  1 20  1  0
 20 21  2  0
 18 22  2  0
M  END
> <From>
www.bindingDB.org

> <BindingDB Reactant_set_id>
51570924

> <Ligand InChI>
InChI=1S/C13H13FN2O5S/c14-22(20,21)9-3-1-8(2-4-9)7-12(18)15-10-5-6-11(17)16-13(10)19/h1-4,10H,5-7H2,(H,15,18)(H,16,17,19)

> <Ligand InChI Key>
GAQCMELJCRZXNV-UHFFFAOYSA-N

> <BindingDB MonomerID>
50631807

> <BindingDB Ligand Name>
CHEMBL5427622

> <Target Name>
Protein cereblon

> <Target Source Organism According to Curator or DataSource>
Homo sapiens

> <Ki (nM)>


> <IC50 (nM)>
 16000

> <Kd (nM)>


> <EC50 (nM)>


> <kon (M-1-s-1)>


> <koff (s-1)>


> <pH>


> <Temp C>


> <Curation/DataSource>
ChEMBL

> <Article DOI>
10.1039/d3md00652b

> <BindingDB Entry DOI>
10.7270/Q2CV4P64

> <PMID>
38389883

> <PubChem AID>


> <Patent Number>


> <Authors>
Liu, Y; Nowak, RP; Che, J; Donovan, KA; Huerta, F; Liu, H; Metivier, RJ; Fischer, ES; Jones, LH

> <Date of publication>
2/21/2024

> <Date in BindingDB>
12/21/2024

> <Institution>
Dana-Farber Cancer Institute

> <Link to Ligand in BindingDB>
http://www.bindingdb.org/bind/chemsearch/marvin/MolStructure.jsp?monomerid=50631807

> <Link to Ligand-Target Pair in BindingDB>
http://www.bindingdb.org/jsp/dbsearch/PrimarySearch_ki.jsp?energyterm=kJ/mole&tag=pol&polymerid=50007050&target=Protein+cereblon&column=ki&startPg=0&Increment=50&submit=Search

> <Link to Ligand-Target Pair in BindingDB>
http://www.bindingdb.org/jsp/dbsearch/PrimarySearch_ki.jsp?energyterm=kJ/mole&tag=r21&monomerid=50631807&enzyme=Protein+cereblon&column=ki&startPg=0&Increment=50&submit=Search

> <Ligand HET ID in PDB>


> <PDB ID(s) for Ligand-Target Complex>


> <PubChem CID of Ligand>
172467174

> <PubChem SID of Ligand>
505036141

> <ChEBI ID of Ligand>


> <ChEMBL ID of Ligand>


> <DrugBank ID of Ligand>


> <IUPHAR_GRAC ID of Ligand>


> <KEGG ID of Ligand>


> <ZINC ID of Ligand>


> <Number of Protein Chains in Target (bigger than 1 implies a multichain complex)>
1

> <BindingDB Target Chain Sequence>
MAGEGDQQDAAHNMGNHLPLLPAESEEEDEMEVEDQDSKEAKKPNIINFDTSLPTSHTYLGADMEEFHGRTLHDDDSCQVIPVLPQVMMILIPGQTLPLQLFHPQEVSMVRNLIQKDRTFAVLAYSNVQEREAQFGTTAEIYAYREEQDFGIEIVKVKAIGRQRFKVLELRTQSDGIQQAKVQILPECVLPSTMSAVQLESLNKCQIFPSKPVSREDQCSYKWWQKYQKRKFHCANLTSWPRWLYSLYDAETLMDRIKKQLREWDENLKDDSLPSNPIDFSYRVAACLPIDDVLRIQLLKIGSAIQRLRCELDIMNKCTSLCCKQCQETEITTKNEIFSLSLCGPMAAYVNPHGYVHETLTVYKACNLNLIGRPSTEHSWFPGYAWTVAQCKICASHIGWKFTATKKDMSPQKFWGLTRSALLPTIPDTEDEISPDKVILCL

> <PDB ID(s) of Target Chain>
8TNR,8TNQ,8TNP,8D81,8D80,8D7Z,8D7Y,8D7X,8D7W,8D7V,8D7U,8CVP,9DQD,8UH6,6BOY,6BNB,6BN9,6BN8,6BN7,6XK9,6UML,5V3O,5HXB,7U8F,8OJH,8OIZ,7LPS,4TZ4,9DJX,9DJT,8U17,8U16,8U15,8TZX,8DEY,9CUO,4M91

> <UniProt (SwissProt) Recommended Name of Target Chain>
Protein cereblon

> <UniProt (SwissProt) Entry Name of Target Chain>
CRBN_HUMAN

> <UniProt (SwissProt) Primary ID of Target Chain>
Q96SW2

> <UniProt (SwissProt) Secondary ID(s) of Target Chain>
B2R6H4 C9IZA9 C9JAH6 Q6AI62 Q6NVZ0 Q9UHW4

> <UniProt (SwissProt) Alternative ID(s) of Target Chain>


> <UniProt (TrEMBL) Submitted Name of Target Chain>


> <UniProt (TrEMBL) Entry Name of Target Chain>


> <UniProt (TrEMBL) Primary ID of Target Chain>


> <UniProt (TrEMBL) Secondary ID(s) of Target Chain>


> <UniProt (TrEMBL) Alternative ID(s) of Target Chain>


$$$$
216326
  Mrv0541 01031813182D          

 19 21  0  0  1  0            999 V2000
    4.1147   -1.6769    0.0000 O   0  0  0  0  0  0  0  0  0  0  0  0
    5.1652    1.2004    0.0000 O   0  0  0  0  0  0  0  0  0  0  0  0
    7.6402   -0.2289    0.0000 O   0  0  0  0  0  0  0  0  0  0  0  0
    4.3402   -0.2289    0.0000 N   0  0  0  0  0  0  0  0  0  0  0  0
    6.4025    0.4857    0.0000 N   0  0  0  0  0  0  0  0  0  0  0  0
    2.3633    1.4212    0.0000 N   0  0  0  0  0  0  0  0  0  0  0  0
    5.1652   -0.2289    0.0000 C   0  0  0  0  0  0  0  0  0  0  0  0
    5.5775   -0.9433    0.0000 C   0  0  0  0  0  0  0  0  0  0  0  0
    3.8585    0.4351    0.0000 C   0  0  0  0  0  0  0  0  0  0  0  0
    3.0778    0.1836    0.0000 C   0  0  0  0  0  0  0  0  0  0  0  0
    3.8585   -0.8928    0.0000 C   0  0  0  0  0  0  0  0  0  0  0  0
    6.4025   -0.9433    0.0000 C   0  0  0  0  0  0  0  0  0  0  0  0
    3.0778   -0.6414    0.0000 C   0  0  0  0  0  0  0  0  0  0  0  0
    5.5775    0.4857    0.0000 C   0  0  0  0  0  0  0  0  0  0  0  0
    6.8152   -0.2289    0.0000 C   0  0  0  0  0  0  0  0  0  0  0  0
    2.3633    0.5962    0.0000 C   0  0  0  0  0  0  0  0  0  0  0  0
    2.3633   -1.0539    0.0000 C   0  0  0  0  0  0  0  0  0  0  0  0
    1.6488    0.1836    0.0000 C   0  0  0  0  0  0  0  0  0  0  0  0
    1.6488   -0.6414    0.0000 C   0  0  0  0  0  0  0  0  0  0  0  0
  1 11  2  0  0  0  0
  2 14  2  0  0  0  0
  3 15  2  0  0  0  0
  4  7  1  0  0  0  0
  4  9  1  0  0  0  0
  4 11  1  0  0  0  0
  5 14  1  0  0  0  0
  5 15  1  0  0  0  0
  6 16  1  0  0  0  0
  7  8  1  0  0  0  0
  7 14  1  0  0  0  0
  8 12  1  0  0  0  0
  9 10  1  0  0  0  0
 10 13  4  0  0  0  0
 10 16  4  0  0  0  0
 11 13  1  0  0  0  0
 12 15  1  0  0  0  0
 13 17  4  0  0  0  0
 16 18  4  0  0  0  0
 17 19  4  0  0  0  0
 18 19  4  0  0  0  0
M  END
> <From>
www.bindingDB.org

> <BindingDB Reactant_set_id>
51567907

> <Ligand InChI>
InChI=1S/C13H13N3O3/c14-9-3-1-2-7-8(9)6-16(13(7)19)10-4-5-11(17)15-12(10)18/h1-3,10H,4-6,14H2,(H,15,17,18)

> <Ligand InChI Key>
GOTYRUGSSMKFNF-UHFFFAOYSA-N

> <BindingDB MonomerID>
65454

> <BindingDB Ligand Name>
191732-72-6::CC-5013::Lenalidomide::Revimid::Revlimid::US11530219, Compound Lenalidomide::US9694015, 6.1

> <Target Name>
Protein cereblon

> <Target Source Organism According to Curator or DataSource>
Homo sapiens

> <Ki (nM)>


> <IC50 (nM)>
 19000

> <Kd (nM)>


> <EC50 (nM)>


> <kon (M-1-s-1)>


> <koff (s-1)>


> <pH>


> <Temp C>


> <Curation/DataSource>
ChEMBL

> <Article DOI>
10.1021/acs.jmedchem.3c00851

> <BindingDB Entry DOI>
10.7270/Q2PK0MM6

> <PMID>
37902300

> <PubChem AID>


> <Patent Number>


> <Authors>
n/a

> <Date of publication>
11/9/2023

> <Date in BindingDB>
12/20/2024

> <Institution>
n/a

> <Link to Ligand in BindingDB>
http://www.bindingdb.org/bind/chemsearch/marvin/MolStructure.jsp?monomerid=65454

> <Link to Ligand-Target Pair in BindingDB>
http://www.bindingdb.org/jsp/dbsearch/PrimarySearch_ki.jsp?energyterm=kJ/mole&tag=pol&polymerid=50007050&target=Protein+cereblon&column=ki&startPg=0&Increment=50&submit=Search

> <Link to Ligand-Target Pair in BindingDB>
http://www.bindingdb.org/jsp/dbsearch/PrimarySearch_ki.jsp?energyterm=kJ/mole&tag=r21&monomerid=65454&enzyme=Protein+cereblon&column=ki&startPg=0&Increment=50&submit=Search

> <Ligand HET ID in PDB>
LVY    

> <PDB ID(s) for Ligand-Target Complex>
8RQA,4CI2,5FQD,4V30,4TZ4

> <PubChem CID of Ligand>
216326

> <PubChem SID of Ligand>
350083085

> <ChEBI ID of Ligand>


> <ChEMBL ID of Ligand>


> <DrugBank ID of Ligand>
DB00480

> <IUPHAR_GRAC ID of Ligand>


> <KEGG ID of Ligand>


> <ZINC ID of Ligand>
ZINC02508407

> <Number of Protein Chains in Target (bigger than 1 implies a multichain complex)>
1

> <BindingDB Target Chain Sequence>
MAGEGDQQDAAHNMGNHLPLLPAESEEEDEMEVEDQDSKEAKKPNIINFDTSLPTSHTYLGADMEEFHGRTLHDDDSCQVIPVLPQVMMILIPGQTLPLQLFHPQEVSMVRNLIQKDRTFAVLAYSNVQEREAQFGTTAEIYAYREEQDFGIEIVKVKAIGRQRFKVLELRTQSDGIQQAKVQILPECVLPSTMSAVQLESLNKCQIFPSKPVSREDQCSYKWWQKYQKRKFHCANLTSWPRWLYSLYDAETLMDRIKKQLREWDENLKDDSLPSNPIDFSYRVAACLPIDDVLRIQLLKIGSAIQRLRCELDIMNKCTSLCCKQCQETEITTKNEIFSLSLCGPMAAYVNPHGYVHETLTVYKACNLNLIGRPSTEHSWFPGYAWTVAQCKICASHIGWKFTATKKDMSPQKFWGLTRSALLPTIPDTEDEISPDKVILCL

> <PDB ID(s) of Target Chain>
8TNR,8TNQ,8TNP,8D81,8D80,8D7Z,8D7Y,8D7X,8D7W,8D7V,8D7U,8CVP,9DQD,8UH6,6BOY,6BNB,6BN9,6BN8,6BN7,6XK9,6UML,5V3O,5HXB,7U8F,8OJH,8OIZ,7LPS,4TZ4,9DJX,9DJT,8U17,8U16,8U15,8TZX,8DEY,9CUO,4M91

> <UniProt (SwissProt) Recommended Name of Target Chain>
Protein cereblon

> <UniProt (SwissProt) Entry Name of Target Chain>
CRBN_HUMAN

> <UniProt (SwissProt) Primary ID of Target Chain>
Q96SW2

> <UniProt (SwissProt) Secondary ID(s) of Target Chain>
B2R6H4 C9IZA9 C9JAH6 Q6AI62 Q6NVZ0 Q9UHW4

> <UniProt (SwissProt) Alternative ID(s) of Target Chain>


> <UniProt (TrEMBL) Submitted Name of Target Chain>


> <UniProt (TrEMBL) Entry Name of Target Chain>


> <UniProt (TrEMBL) Primary ID of Target Chain>


> <UniProt (TrEMBL) Secondary ID(s) of Target Chain>


> <UniProt (TrEMBL) Alternative ID(s) of Target Chain>


$$$$
 
     RDKit          2D

 19 20  0  0  0  0  0  0  0  0999 V2000
   -1.7852    0.2074    0.0000 C   0  0  0  0  0  0  0  0  0  0  0  0
   -2.4998   -0.2048    0.0000 C   0  0  0  0  0  0  0  0  0  0  0  0
   -2.4998   -1.0333    0.0000 C   0  0  0  0  0  0  0  0  0  0  0  0
   -1.7834   -1.4414    0.0000 C   0  0  0  0  0  0  0  0  0  0  0  0
   -1.0733   -1.0296    0.0000 C   0  0  0  0  0  0  0  0  0  0  0  0
   -1.0733   -0.2044    0.0000 C   0  0  0  0  0  0  0  0  0  0  0  0
   -0.3587    0.2081    0.0000 C   0  0  0  0  0  0  0  0  0  0  0  0
   -0.3587    1.0333    0.0000 O   0  0  0  0  0  0  0  0  0  0  0  0
    0.3558   -0.2044    0.0000 N   0  0  0  0  0  0  0  0  0  0  0  0
    1.0705    0.2081    0.0000 C   0  0  0  0  0  0  0  0  0  0  0  0
    1.0705    1.0333    0.0000 C   0  0  0  0  0  0  0  0  0  0  0  0
    1.7851    1.4459    0.0000 C   0  0  0  0  0  0  0  0  0  0  0  0
    2.4998    1.0333    0.0000 C   0  0  0  0  0  0  0  0  0  0  0  0
    2.4998    0.2081    0.0000 N   0  0  0  0  0  0  0  0  0  0  0  0
    1.7852   -0.2044    0.0000 C   0  0  0  0  0  0  0  0  0  0  0  0
    1.7852   -1.0296    0.0000 O   0  0  0  0  0  0  0  0  0  0  0  0
    3.2144    1.4459    0.0000 O   0  0  0  0  0  0  0  0  0  0  0  0
   -0.3587   -1.4422    0.0000 O   0  0  0  0  0  0  0  0  0  0  0  0
   -3.2144   -1.4459    0.0000 N   0  0  0  0  0  0  0  0  0  0  0  0
  1  2  2  0
  2  3  1  0
  4  3  2  0
  5  4  1  0
  6  5  2  0
  1  6  1  0
  6  7  1  0
  7  8  2  0
  7  9  1  0
  9 10  1  0
 10 11  1  0
 11 12  1  0
 12 13  1  0
 13 14  1  0
 14 15  1  0
 10 15  1  0
 15 16  2  0
 13 17  2  0
  5 18  1  0
  3 19  1  0
M  END
> <From>
www.bindingDB.org

> <BindingDB Reactant_set_id>
51567920

> <Ligand InChI>
InChI=1S/C12H13N3O4/c13-6-1-2-7(9(16)5-6)11(18)14-8-3-4-10(17)15-12(8)19/h1-2,5,8,16H,3-4,13H2,(H,14,18)(H,15,17,19)

> <Ligand InChI Key>
IPUAAMOPTISHEC-UHFFFAOYSA-N

> <BindingDB MonomerID>
50630600

> <BindingDB Ligand Name>
CHEMBL5441135

> <Target Name>
Protein cereblon

> <Target Source Organism According to Curator or DataSource>
Homo sapiens

> <Ki (nM)>


> <IC50 (nM)>
 20000

> <Kd (nM)>


> <EC50 (nM)>


> <kon (M-1-s-1)>


> <koff (s-1)>


> <pH>


> <Temp C>


> <Curation/DataSource>
ChEMBL

> <Article DOI>
10.1021/acs.jmedchem.3c00851

> <BindingDB Entry DOI>
10.7270/Q2PK0MM6

> <PMID>
37902300

> <PubChem AID>


> <Patent Number>


> <Authors>
Steinebach, C; Bricelj, A; Murgai, A; Sosič, I; Bischof, L; Ng, YLD; Heim, C; Maiwald, S; Proj, M; Voget, R; Feller, F; Košmrlj, J; Sapozhnikova, V; Schmidt, A; Zuleeg, MR; Lemnitzer, P; Mertins, P; Hansen, FK; Gütschow, M; Krönke, J; Hartmann, MD

> <Date of publication>
11/9/2023

> <Date in BindingDB>
12/20/2024

> <Institution>
University of Bonn

> <Link to Ligand in BindingDB>
http://www.bindingdb.org/bind/chemsearch/marvin/MolStructure.jsp?monomerid=50630600

> <Link to Ligand-Target Pair in BindingDB>
http://www.bindingdb.org/jsp/dbsearch/PrimarySearch_ki.jsp?energyterm=kJ/mole&tag=pol&polymerid=50007050&target=Protein+cereblon&column=ki&startPg=0&Increment=50&submit=Search

> <Link to Ligand-Target Pair in BindingDB>
http://www.bindingdb.org/jsp/dbsearch/PrimarySearch_ki.jsp?energyterm=kJ/mole&tag=r21&monomerid=50630600&enzyme=Protein+cereblon&column=ki&startPg=0&Increment=50&submit=Search

> <Ligand HET ID in PDB>
W1B    

> <PDB ID(s) for Ligand-Target Complex>
8OU9

> <PubChem CID of Ligand>
170703965

> <PubChem SID of Ligand>
505048571

> <ChEBI ID of Ligand>


> <ChEMBL ID of Ligand>


> <DrugBank ID of Ligand>


> <IUPHAR_GRAC ID of Ligand>


> <KEGG ID of Ligand>


> <ZINC ID of Ligand>


> <Number of Protein Chains in Target (bigger than 1 implies a multichain complex)>
1

> <BindingDB Target Chain Sequence>
MAGEGDQQDAAHNMGNHLPLLPAESEEEDEMEVEDQDSKEAKKPNIINFDTSLPTSHTYLGADMEEFHGRTLHDDDSCQVIPVLPQVMMILIPGQTLPLQLFHPQEVSMVRNLIQKDRTFAVLAYSNVQEREAQFGTTAEIYAYREEQDFGIEIVKVKAIGRQRFKVLELRTQSDGIQQAKVQILPECVLPSTMSAVQLESLNKCQIFPSKPVSREDQCSYKWWQKYQKRKFHCANLTSWPRWLYSLYDAETLMDRIKKQLREWDENLKDDSLPSNPIDFSYRVAACLPIDDVLRIQLLKIGSAIQRLRCELDIMNKCTSLCCKQCQETEITTKNEIFSLSLCGPMAAYVNPHGYVHETLTVYKACNLNLIGRPSTEHSWFPGYAWTVAQCKICASHIGWKFTATKKDMSPQKFWGLTRSALLPTIPDTEDEISPDKVILCL

> <PDB ID(s) of Target Chain>
8TNR,8TNQ,8TNP,8D81,8D80,8D7Z,8D7Y,8D7X,8D7W,8D7V,8D7U,8CVP,9DQD,8UH6,6BOY,6BNB,6BN9,6BN8,6BN7,6XK9,6UML,5V3O,5HXB,7U8F,8OJH,8OIZ,7LPS,4TZ4,9DJX,9DJT,8U17,8U16,8U15,8TZX,8DEY,9CUO,4M91

> <UniProt (SwissProt) Recommended Name of Target Chain>
Protein cereblon

> <UniProt (SwissProt) Entry Name of Target Chain>
CRBN_HUMAN

> <UniProt (SwissProt) Primary ID of Target Chain>
Q96SW2

> <UniProt (SwissProt) Secondary ID(s) of Target Chain>
B2R6H4 C9IZA9 C9JAH6 Q6AI62 Q6NVZ0 Q9UHW4

> <UniProt (SwissProt) Alternative ID(s) of Target Chain>


> <UniProt (TrEMBL) Submitted Name of Target Chain>


> <UniProt (TrEMBL) Entry Name of Target Chain>


> <UniProt (TrEMBL) Primary ID of Target Chain>


> <UniProt (TrEMBL) Secondary ID(s) of Target Chain>


> <UniProt (TrEMBL) Alternative ID(s) of Target Chain>


$$$$
 
     RDKit          2D

 54 58  0  0  0  0  0  0  0  0999 V2000
   21.3465   -6.5342    0.0000 C   0  0  0  0  0  0  0  0  0  0  0  0
   20.6933   -7.0254    0.0000 C   0  0  0  0  0  0  0  0  0  0  0  0
   20.7939   -7.8321    0.0000 N   0  0  0  0  0  0  0  0  0  0  0  0
   21.5411   -8.1527    0.0000 C   0  0  0  0  0  0  0  0  0  0  0  0
   22.1942   -7.6616    0.0000 C   0  0  0  0  0  0  0  0  0  0  0  0
   22.1002   -6.8499    0.0000 C   0  0  0  0  0  0  0  0  0  0  0  0
   22.9468   -7.9810    0.0000 N   0  0  0  0  0  0  0  0  0  0  0  0
   23.1275   -8.7780    0.0000 C   0  0  0  0  0  0  0  0  0  0  0  0
   23.6489   -7.5630    0.0000 C   0  0  0  0  0  0  0  0  0  0  0  0
   24.2636   -8.1014    0.0000 C   0  0  0  0  0  0  0  0  0  0  0  0
   23.9406   -8.8499    0.0000 C   0  0  0  0  0  0  0  0  0  0  0  0
   24.4270   -9.5017    0.0000 C   0  0  0  0  0  0  0  0  0  0  0  0
   25.2363   -9.4064    0.0000 C   0  0  0  0  0  0  0  0  0  0  0  0
   25.5569   -8.6535    0.0000 C   0  0  0  0  0  0  0  0  0  0  0  0
   25.0686   -8.0048    0.0000 C   0  0  0  0  0  0  0  0  0  0  0  0
   21.6386   -8.9641    0.0000 O   0  0  0  0  0  0  0  0  0  0  0  0
   19.9410   -6.7064    0.0000 O   0  0  0  0  0  0  0  0  0  0  0  0
   22.5899   -9.3934    0.0000 O   0  0  0  0  0  0  0  0  0  0  0  0
   23.7233   -6.7492    0.0000 O   0  0  0  0  0  0  0  0  0  0  0  0
   32.3079  -11.8905    0.0000 C   0  0  0  0  0  0  0  0  0  0  0  0
   32.7207  -12.6004    0.0000 C   0  0  0  0  0  0  0  0  0  0  0  0
   33.1291  -11.8881    0.0000 C   0  0  0  0  0  0  0  0  0  0  0  0
   29.1620   -6.6040    0.0000 C   0  0  0  0  0  0  0  0  0  0  0  0
   28.8606   -7.3621    0.0000 S   0  0  0  0  0  0  0  0  0  0  0  0
   29.4885   -7.8851    0.0000 C   0  0  0  0  0  0  0  0  0  0  0  0
   30.1800   -7.4495    0.0000 N   0  0  0  0  0  0  0  0  0  0  0  0
   29.9793   -6.6574    0.0000 C   0  0  0  0  0  0  0  0  0  0  0  0
   30.4993   -6.0294    0.0000 C   0  0  0  0  0  0  0  0  0  0  0  0
   31.3055   -6.1694    0.0000 C   0  0  0  0  0  0  0  0  0  0  0  0
   31.8280   -5.5421    0.0000 C   0  0  0  0  0  0  0  0  0  0  0  0
   31.5454   -4.7744    0.0000 C   0  0  0  0  0  0  0  0  0  0  0  0
   30.7354   -4.6377    0.0000 C   0  0  0  0  0  0  0  0  0  0  0  0
   30.2165   -5.2663    0.0000 C   0  0  0  0  0  0  0  0  0  0  0  0
   29.4344   -8.7005    0.0000 N   0  0  0  0  0  0  0  0  0  0  0  0
   30.1136   -9.1550    0.0000 N   0  0  0  0  0  0  0  0  0  0  0  0
   30.0595   -9.9704    0.0000 C   0  0  0  0  0  0  0  0  0  0  0  0
   30.7387  -10.4249    0.0000 C   0  0  0  0  0  0  0  0  0  0  0  0
   30.6846  -11.2404    0.0000 O   0  0  0  0  0  0  0  0  0  0  0  0
   31.4718  -10.0641    0.0000 O   0  0  0  0  0  0  0  0  0  0  0  0
   29.3263  -10.3313    0.0000 C   0  0  0  0  0  0  0  0  0  0  0  0
   30.4500   -3.8720    0.0000 Cl  0  0  0  0  0  0  0  0  0  0  0  0
   32.0672   -4.1455    0.0000 Cl  0  0  0  0  0  0  0  0  0  0  0  0
   25.4798   -7.2986    0.0000 N   0  0  0  0  0  0  0  0  0  0  0  0
   26.2970   -7.3017    0.0000 C   0  0  0  0  0  0  0  0  0  0  0  0
   26.7083   -6.5956    0.0000 C   0  0  0  0  0  0  0  0  0  0  0  0
   27.5255   -6.5986    0.0000 N   0  0  0  0  0  0  0  0  0  0  0  0
   27.9368   -5.8925    0.0000 C   0  0  0  0  0  0  0  0  0  0  0  0
   28.7539   -5.8956    0.0000 C   0  0  0  0  0  0  0  0  0  0  0  0
   27.5308   -5.1832    0.0000 O   0  0  0  0  0  0  0  0  0  0  0  0
   31.3637  -11.6949    0.0000 C   0  0  0  0  0  0  0  0  0  0  0  0
   31.3097  -12.5103    0.0000 O   0  0  0  0  0  0  0  0  0  0  0  0
   31.9888  -12.9648    0.0000 C   0  0  0  0  0  0  0  0  0  0  0  0
   31.9348  -13.7802    0.0000 O   0  0  0  0  0  0  0  0  0  0  0  0
   33.4011  -13.0584    0.0000 C   0  0  0  0  0  0  0  0  0  0  0  0
  1  2  1  0
  1  6  1  0
  2  3  1  0
  3  4  1  0
  4  5  1  0
  5  6  1  0
  7  8  1  0
  8 11  1  0
 10  9  1  0
  9  7  1  0
  5  7  1  0
 10 11  2  0
 11 12  1  0
 12 13  2  0
 13 14  1  0
 14 15  2  0
 15 10  1  0
  4 16  2  0
  2 17  2  0
  8 18  2  0
  9 19  2  0
 21 20  1  0
 22 21  1  0
 23 24  1  0
 24 25  1  0
 25 26  2  0
 26 27  1  0
 27 23  2  0
 28 29  2  0
 29 30  1  0
 30 31  2  0
 31 32  1  0
 32 33  2  0
 33 28  1  0
 27 28  1  0
 25 34  1  0
 34 35  1  0
 35 36  2  0
 36 37  1  0
 37 38  1  0
 37 39  2  0
 36 40  1  0
 32 41  1  0
 31 42  1  0
 43 44  1  0
 44 45  1  0
 45 46  1  0
 46 47  1  0
 47 48  1  0
 47 49  2  0
 48 23  1  0
 38 50  1  0
 50 51  1  0
 51 52  1  0
 52 53  2  0
 52 21  1  0
 21 54  1  0
 43 15  1  0
M  END
> <From>
www.bindingDB.org

> <BindingDB Reactant_set_id>
51413243

> <Ligand InChI>
InChI=1S/C35H35Cl2N7O9S/c1-17(32(50)52-16-53-33(51)35(2,3)4)42-43-34-41-28(18-8-9-20(36)21(37)14-18)24(54-34)15-26(46)39-13-12-38-22-7-5-6-19-27(22)31(49)44(30(19)48)23-10-11-25(45)40-29(23)47/h5-9,14,23,38H,10-13,15-16H2,1-4H3,(H,39,46)(H,41,43)(H,40,45,47)/b42-17+

> <Ligand InChI Key>
OUHYRQKOYDLKET-OLUOZRNISA-N

> <BindingDB MonomerID>
50570886

> <BindingDB Ligand Name>
CHEMBL4869528

> <Target Name>
Protein cereblon

> <Target Source Organism According to Curator or DataSource>
Human

> <Ki (nM)>


> <IC50 (nM)>
 20700

> <Kd (nM)>


> <EC50 (nM)>


> <kon (M-1-s-1)>


> <koff (s-1)>


> <pH>


> <Temp C>


> <Curation/DataSource>
ChEMBL

> <Article DOI>
10.1016/j.ejmech.2021.113435

> <BindingDB Entry DOI>
10.7270/Q2QV3R91

> <PMID>
33892272

> <PubChem AID>


> <Patent Number>


> <Authors>
Fischer, PD; Papadopoulos, E; Dempersmier, JM; Wang, ZF; Nowak, RP; Donovan, KA; Kalabathula, J; Gorgulla, C; Junghanns, PPM; Kabha, E; Dimitrakakis, N; Petrov, OI; Mitsiades, C; Ducho, C; Gelev, V; Fischer, ES; Wagner, G; Arthanari, H

> <Date of publication>
7/5/2021

> <Date in BindingDB>
8/20/2022

> <Institution>
Dana-Farber Cancer Institute

> <Link to Ligand in BindingDB>
http://www.bindingdb.org/bind/chemsearch/marvin/MolStructure.jsp?monomerid=50570886

> <Link to Ligand-Target Pair in BindingDB>
http://www.bindingdb.org/jsp/dbsearch/PrimarySearch_ki.jsp?energyterm=kJ/mole&tag=pol&polymerid=50007050&target=Protein+cereblon&column=ki&startPg=0&Increment=50&submit=Search

> <Link to Ligand-Target Pair in BindingDB>
http://www.bindingdb.org/jsp/dbsearch/PrimarySearch_ki.jsp?energyterm=kJ/mole&tag=r21&monomerid=50570886&enzyme=Protein+cereblon&column=ki&startPg=0&Increment=50&submit=Search

> <Ligand HET ID in PDB>


> <PDB ID(s) for Ligand-Target Complex>


> <PubChem CID of Ligand>
164621922

> <PubChem SID of Ligand>
471061031

> <ChEBI ID of Ligand>


> <ChEMBL ID of Ligand>


> <DrugBank ID of Ligand>


> <IUPHAR_GRAC ID of Ligand>


> <KEGG ID of Ligand>


> <ZINC ID of Ligand>


> <Number of Protein Chains in Target (bigger than 1 implies a multichain complex)>
1

> <BindingDB Target Chain Sequence>
MAGEGDQQDAAHNMGNHLPLLPAESEEEDEMEVEDQDSKEAKKPNIINFDTSLPTSHTYLGADMEEFHGRTLHDDDSCQVIPVLPQVMMILIPGQTLPLQLFHPQEVSMVRNLIQKDRTFAVLAYSNVQEREAQFGTTAEIYAYREEQDFGIEIVKVKAIGRQRFKVLELRTQSDGIQQAKVQILPECVLPSTMSAVQLESLNKCQIFPSKPVSREDQCSYKWWQKYQKRKFHCANLTSWPRWLYSLYDAETLMDRIKKQLREWDENLKDDSLPSNPIDFSYRVAACLPIDDVLRIQLLKIGSAIQRLRCELDIMNKCTSLCCKQCQETEITTKNEIFSLSLCGPMAAYVNPHGYVHETLTVYKACNLNLIGRPSTEHSWFPGYAWTVAQCKICASHIGWKFTATKKDMSPQKFWGLTRSALLPTIPDTEDEISPDKVILCL

> <PDB ID(s) of Target Chain>
4TZ4,5HXB,5V3O,6UML,6XK9,7LPS,7U8F,8CVP,8D7U,8D7V,8D7W,8D7X,8D7Y,8D7Z,8D80,8D81,8DEY,8OIZ,8OJH

> <UniProt (SwissProt) Recommended Name of Target Chain>
Protein cereblon

> <UniProt (SwissProt) Entry Name of Target Chain>
CRBN_HUMAN

> <UniProt (SwissProt) Primary ID of Target Chain>
Q96SW2

> <UniProt (SwissProt) Secondary ID(s) of Target Chain>
B2R6H4 C9IZA9 C9JAH6 Q6AI62 Q6NVZ0 Q9UHW4

> <UniProt (SwissProt) Alternative ID(s) of Target Chain>


> <UniProt (TrEMBL) Submitted Name of Target Chain>


> <UniProt (TrEMBL) Entry Name of Target Chain>


> <UniProt (TrEMBL) Primary ID of Target Chain>


> <UniProt (TrEMBL) Secondary ID(s) of Target Chain>


> <UniProt (TrEMBL) Alternative ID(s) of Target Chain>


$$$$
Maleimide-Related Compound 13
  Mrv0541 11181423152D          

  7  7  0  0  0  0            999 V2000
   -1.5112    0.8106    0.0000 C   0  0  0  0  0  0  0  0  0  0  0  0
   -1.2563    0.0260    0.0000 C   0  0  0  0  0  0  0  0  0  0  0  0
   -0.4312    0.0260    0.0000 C   0  0  0  0  0  0  0  0  0  0  0  0
   -0.1763    0.8106    0.0000 C   0  0  0  0  0  0  0  0  0  0  0  0
   -2.2958    1.0655    0.0000 O   0  0  0  0  0  0  0  0  0  0  0  0
    0.6083    1.0655    0.0000 O   0  0  0  0  0  0  0  0  0  0  0  0
   -0.8438    1.2955    0.0000 N   0  0  0  0  0  0  0  0  0  0  0  0
  7  1  1  0  0  0  0
  7  4  1  0  0  0  0
  1  2  1  0  0  0  0
  3  4  1  0  0  0  0
  1  5  2  0  0  0  0
  4  6  2  0  0  0  0
  2  3  1  0  0  0  0
M  END
> <From>
www.bindingDB.org

> <BindingDB Reactant_set_id>
51359692

> <Ligand InChI>
InChI=1S/C4H5NO2/c6-3-1-2-4(7)5-3/h1-2H2,(H,5,6,7)

> <Ligand InChI Key>
KZNICNPSHKQLFF-UHFFFAOYSA-N

> <BindingDB MonomerID>
7814

> <BindingDB Ligand Name>
Maleimide-Related Compound 13::pyrrolidine-2,5-dione

> <Target Name>
Protein cereblon

> <Target Source Organism According to Curator or DataSource>
Human

> <Ki (nM)>


> <IC50 (nM)>
 22300

> <Kd (nM)>


> <EC50 (nM)>


> <kon (M-1-s-1)>


> <koff (s-1)>


> <pH>


> <Temp C>


> <Curation/DataSource>
ChEMBL

> <Article DOI>
10.1021/acsmedchemlett.0c00440

> <BindingDB Entry DOI>
10.7270/Q2WM1J1B

> <PMID>
33488967

> <PubChem AID>


> <Patent Number>


> <Authors>
Maiwald, S; Heim, C; Hernandez Alvarez, B; Hartmann, MD

> <Date of publication>
1/14/2021

> <Date in BindingDB>
3/23/2022

> <Institution>
Max Planck Institute for Developmental Biology

> <Link to Ligand in BindingDB>
http://www.bindingdb.org/bind/chemsearch/marvin/MolStructure.jsp?monomerid=7814

> <Link to Ligand-Target Pair in BindingDB>
http://www.bindingdb.org/jsp/dbsearch/PrimarySearch_ki.jsp?energyterm=kJ/mole&tag=pol&polymerid=50007050&target=Protein+cereblon&column=ki&startPg=0&Increment=50&submit=Search

> <Link to Ligand-Target Pair in BindingDB>
http://www.bindingdb.org/jsp/dbsearch/PrimarySearch_ki.jsp?energyterm=kJ/mole&tag=r21&monomerid=7814&enzyme=Protein+cereblon&column=ki&startPg=0&Increment=50&submit=Search

> <Ligand HET ID in PDB>


> <PDB ID(s) for Ligand-Target Complex>


> <PubChem CID of Ligand>
11439

> <PubChem SID of Ligand>
11108588

> <ChEBI ID of Ligand>
9307

> <ChEMBL ID of Ligand>


> <DrugBank ID of Ligand>


> <IUPHAR_GRAC ID of Ligand>


> <KEGG ID of Ligand>
C07273

> <ZINC ID of Ligand>
ZINC05133396

> <Number of Protein Chains in Target (bigger than 1 implies a multichain complex)>
1

> <BindingDB Target Chain Sequence>
MAGEGDQQDAAHNMGNHLPLLPAESEEEDEMEVEDQDSKEAKKPNIINFDTSLPTSHTYLGADMEEFHGRTLHDDDSCQVIPVLPQVMMILIPGQTLPLQLFHPQEVSMVRNLIQKDRTFAVLAYSNVQEREAQFGTTAEIYAYREEQDFGIEIVKVKAIGRQRFKVLELRTQSDGIQQAKVQILPECVLPSTMSAVQLESLNKCQIFPSKPVSREDQCSYKWWQKYQKRKFHCANLTSWPRWLYSLYDAETLMDRIKKQLREWDENLKDDSLPSNPIDFSYRVAACLPIDDVLRIQLLKIGSAIQRLRCELDIMNKCTSLCCKQCQETEITTKNEIFSLSLCGPMAAYVNPHGYVHETLTVYKACNLNLIGRPSTEHSWFPGYAWTVAQCKICASHIGWKFTATKKDMSPQKFWGLTRSALLPTIPDTEDEISPDKVILCL

> <PDB ID(s) of Target Chain>
4TZ4,5HXB,5V3O,6UML,6XK9,7LPS,7U8F,8CVP,8D7U,8D7V,8D7W,8D7X,8D7Y,8D7Z,8D80,8D81,8DEY,8OIZ,8OJH

> <UniProt (SwissProt) Recommended Name of Target Chain>
Protein cereblon

> <UniProt (SwissProt) Entry Name of Target Chain>
CRBN_HUMAN

> <UniProt (SwissProt) Primary ID of Target Chain>
Q96SW2

> <UniProt (SwissProt) Secondary ID(s) of Target Chain>
B2R6H4 C9IZA9 C9JAH6 Q6AI62 Q6NVZ0 Q9UHW4

> <UniProt (SwissProt) Alternative ID(s) of Target Chain>


> <UniProt (TrEMBL) Submitted Name of Target Chain>


> <UniProt (TrEMBL) Entry Name of Target Chain>


> <UniProt (TrEMBL) Primary ID of Target Chain>


> <UniProt (TrEMBL) Secondary ID(s) of Target Chain>


> <UniProt (TrEMBL) Alternative ID(s) of Target Chain>


$$$$
 
  Mrv0541 11231401562D          

 19 21  0  0  0  0            999 V2000
    0.8646  -22.9723    0.0000 C   0  0  0  0  0  0  0  0  0  0  0  0
    1.6916  -22.9723    0.0000 C   0  0  0  0  0  0  0  0  0  0  0  0
    2.1028  -22.2600    0.0000 C   0  0  0  0  0  0  0  0  0  0  0  0
    1.6916  -21.5432    0.0000 N   0  0  0  0  0  0  0  0  0  0  0  0
    0.8646  -21.5432    0.0000 C   0  0  0  0  0  0  0  0  0  0  0  0
    0.4488  -22.2600    0.0000 C   0  0  0  0  0  0  0  0  0  0  0  0
   -0.3797  -22.2649    0.0000 N   0  0  0  0  0  0  0  0  0  0  0  0
   -0.8667  -21.5966    0.0000 C   0  0  0  0  0  0  0  0  0  0  0  0
   -0.8649  -22.9346    0.0000 C   0  0  0  0  0  0  0  0  0  0  0  0
   -1.6518  -22.6803    0.0000 C   0  0  0  0  0  0  0  0  0  0  0  0
   -1.6493  -21.8553    0.0000 C   0  0  0  0  0  0  0  0  0  0  0  0
   -2.3613  -21.4425    0.0000 C   0  0  0  0  0  0  0  0  0  0  0  0
   -3.0763  -21.8535    0.0000 C   0  0  0  0  0  0  0  0  0  0  0  0
   -3.0748  -22.6816    0.0000 C   0  0  0  0  0  0  0  0  0  0  0  0
   -2.3622  -23.0907    0.0000 C   0  0  0  0  0  0  0  0  0  0  0  0
   -0.6138  -20.8092    0.0000 O   0  0  0  0  0  0  0  0  0  0  0  0
   -0.6082  -23.7207    0.0000 O   0  0  0  0  0  0  0  0  0  0  0  0
    0.4518  -20.8266    0.0000 O   0  0  0  0  0  0  0  0  0  0  0  0
    2.9298  -22.2612    0.0000 O   0  0  0  0  0  0  0  0  0  0  0  0
  9  7  1  0  0  0  0
  6  7  1  0  0  0  0
  2  3  1  0  0  0  0
  3  4  1  0  0  0  0
 10 11  2  0  0  0  0
  4  5  1  0  0  0  0
 11 12  1  0  0  0  0
  5  6  1  0  0  0  0
 12 13  2  0  0  0  0
  7  8  1  0  0  0  0
 13 14  1  0  0  0  0
 14 15  2  0  0  0  0
 15 10  1  0  0  0  0
  1  2  1  0  0  0  0
  8 16  2  0  0  0  0
  1  6  1  0  0  0  0
  9 17  2  0  0  0  0
  8 11  1  0  0  0  0
  5 18  2  0  0  0  0
 10  9  1  0  0  0  0
  3 19  2  0  0  0  0
M  END
> <From>
www.bindingDB.org

> <BindingDB Reactant_set_id>
51359685

> <Ligand InChI>
InChI=1S/C13H10N2O4/c16-10-6-5-9(11(17)14-10)15-12(18)7-3-1-2-4-8(7)13(15)19/h1-4,9H,5-6H2,(H,14,16,17)

> <Ligand InChI Key>
UEJJHQNACJXSKW-UHFFFAOYSA-N

> <BindingDB MonomerID>
50070114

> <BindingDB Ligand Name>
(+/-)-thalidomide::2-(2,6-Dioxo-piperidin-3-yl)-isoindole-1,3-dione::2-(2,6-dioxopiperidin-3-yl)isoindoline-1,3-dione::CHEMBL468::K-17::THALIDOMIDE::Thalomid::US11059801, Compound D-62::[(R,S)-2-(2,6-dioxo-3-piperidinyl)-1H-isoindole-1,3(2H)-dione

> <Target Name>
Protein cereblon

> <Target Source Organism According to Curator or DataSource>
Human

> <Ki (nM)>


> <IC50 (nM)>
 22900

> <Kd (nM)>


> <EC50 (nM)>


> <kon (M-1-s-1)>


> <koff (s-1)>


> <pH>


> <Temp C>


> <Curation/DataSource>
ChEMBL

> <Article DOI>
10.1021/acsmedchemlett.0c00440

> <BindingDB Entry DOI>
10.7270/Q2WM1J1B

> <PMID>
33488967

> <PubChem AID>


> <Patent Number>


> <Authors>
Maiwald, S; Heim, C; Hernandez Alvarez, B; Hartmann, MD

> <Date of publication>
1/14/2021

> <Date in BindingDB>
3/23/2022

> <Institution>
Max Planck Institute for Developmental Biology

> <Link to Ligand in BindingDB>
http://www.bindingdb.org/bind/chemsearch/marvin/MolStructure.jsp?monomerid=50070114

> <Link to Ligand-Target Pair in BindingDB>
http://www.bindingdb.org/jsp/dbsearch/PrimarySearch_ki.jsp?energyterm=kJ/mole&tag=pol&polymerid=50007050&target=Protein+cereblon&column=ki&startPg=0&Increment=50&submit=Search

> <Link to Ligand-Target Pair in BindingDB>
http://www.bindingdb.org/jsp/dbsearch/PrimarySearch_ki.jsp?energyterm=kJ/mole&tag=r21&monomerid=50070114&enzyme=Protein+cereblon&column=ki&startPg=0&Increment=50&submit=Search

> <Ligand HET ID in PDB>
EF2

> <PDB ID(s) for Ligand-Target Complex>
4CI1,8BC7,5AMI,5AMH,7BQU,5YIZ,7PSO,4V32,4V2Y,5OH1,5AMK,5AMJ,6R13,6R12,6R19,6R18,6R1C,6R1A,6R1W,6R0U,6R0S,5YJ0,4TZC

> <PubChem CID of Ligand>
5426

> <PubChem SID of Ligand>
103964042

> <ChEBI ID of Ligand>
74947

> <ChEMBL ID of Ligand>
CHEMBL468

> <DrugBank ID of Ligand>
DB01041

> <IUPHAR_GRAC ID of Ligand>
7327

> <KEGG ID of Ligand>
C07910

> <ZINC ID of Ligand>
ZINC01530948

> <Number of Protein Chains in Target (bigger than 1 implies a multichain complex)>
1

> <BindingDB Target Chain Sequence>
MAGEGDQQDAAHNMGNHLPLLPAESEEEDEMEVEDQDSKEAKKPNIINFDTSLPTSHTYLGADMEEFHGRTLHDDDSCQVIPVLPQVMMILIPGQTLPLQLFHPQEVSMVRNLIQKDRTFAVLAYSNVQEREAQFGTTAEIYAYREEQDFGIEIVKVKAIGRQRFKVLELRTQSDGIQQAKVQILPECVLPSTMSAVQLESLNKCQIFPSKPVSREDQCSYKWWQKYQKRKFHCANLTSWPRWLYSLYDAETLMDRIKKQLREWDENLKDDSLPSNPIDFSYRVAACLPIDDVLRIQLLKIGSAIQRLRCELDIMNKCTSLCCKQCQETEITTKNEIFSLSLCGPMAAYVNPHGYVHETLTVYKACNLNLIGRPSTEHSWFPGYAWTVAQCKICASHIGWKFTATKKDMSPQKFWGLTRSALLPTIPDTEDEISPDKVILCL

> <PDB ID(s) of Target Chain>
4TZ4,5HXB,5V3O,6UML,6XK9,7LPS,7U8F,8CVP,8D7U,8D7V,8D7W,8D7X,8D7Y,8D7Z,8D80,8D81,8DEY,8OIZ,8OJH

> <UniProt (SwissProt) Recommended Name of Target Chain>
Protein cereblon

> <UniProt (SwissProt) Entry Name of Target Chain>
CRBN_HUMAN

> <UniProt (SwissProt) Primary ID of Target Chain>
Q96SW2

> <UniProt (SwissProt) Secondary ID(s) of Target Chain>
B2R6H4 C9IZA9 C9JAH6 Q6AI62 Q6NVZ0 Q9UHW4

> <UniProt (SwissProt) Alternative ID(s) of Target Chain>


> <UniProt (TrEMBL) Submitted Name of Target Chain>


> <UniProt (TrEMBL) Entry Name of Target Chain>


> <UniProt (TrEMBL) Primary ID of Target Chain>


> <UniProt (TrEMBL) Secondary ID(s) of Target Chain>


> <UniProt (TrEMBL) Alternative ID(s) of Target Chain>


$$$$
 
     RDKit          2D

 23 25  0  0  0  0  0  0  0  0999 V2000
   -3.4065    1.4834    0.0000 O   0  0  0  0  0  0  0  0  0  0  0  0
   -2.9951    0.7682    0.0000 S   0  0  0  0  0  0  0  0  0  0  0  0
   -2.5822    1.4834    0.0000 O   0  0  0  0  0  0  0  0  0  0  0  0
   -3.7090    0.3560    0.0000 F   0  0  0  0  0  0  0  0  0  0  0  0
   -2.2813    0.3560    0.0000 C   0  0  0  0  0  0  0  0  0  0  0  0
   -2.2813   -0.4714    0.0000 C   0  0  0  0  0  0  0  0  0  0  0  0
   -1.5657   -0.8790    0.0000 C   0  0  0  0  0  0  0  0  0  0  0  0
   -0.8564   -0.4677    0.0000 C   0  0  0  0  0  0  0  0  0  0  0  0
   -0.0725   -0.7224    0.0000 C   0  0  0  0  0  0  0  0  0  0  0  0
    0.4119   -0.0556    0.0000 N   0  0  0  0  0  0  0  0  0  0  0  0
    1.2362   -0.0556    0.0000 C   0  0  0  0  0  0  0  0  0  0  0  0
    1.6483   -0.7695    0.0000 C   0  0  0  0  0  0  0  0  0  0  0  0
    1.2362   -1.4834    0.0000 O   0  0  0  0  0  0  0  0  0  0  0  0
    2.4726   -0.7695    0.0000 N   0  0  0  0  0  0  0  0  0  0  0  0
    2.8847   -0.0557    0.0000 C   0  0  0  0  0  0  0  0  0  0  0  0
    3.7090   -0.0557    0.0000 O   0  0  0  0  0  0  0  0  0  0  0  0
    2.4726    0.6581    0.0000 C   0  0  0  0  0  0  0  0  0  0  0  0
    1.6483    0.6581    0.0000 C   0  0  0  0  0  0  0  0  0  0  0  0
    2.8847   -1.4834    0.0000 C   0  0  0  0  0  0  0  0  0  0  0  0
   -0.0724    0.6111    0.0000 C   0  0  0  0  0  0  0  0  0  0  0  0
    0.1407    1.4073    0.0000 O   0  0  0  0  0  0  0  0  0  0  0  0
   -0.8564    0.3565    0.0000 C   0  0  0  0  0  0  0  0  0  0  0  0
   -1.5675    0.7679    0.0000 C   0  0  0  0  0  0  0  0  0  0  0  0
  2  1  2  0
  2  3  2  0
  2  4  1  0
  5  2  1  0
  5  6  1  0
  6  7  2  0
  7  8  1  0
  8  9  1  0
 10  9  1  0
 10 11  1  0
 11 12  1  0
 12 13  2  0
 12 14  1  0
 14 15  1  0
 15 16  2  0
 15 17  1  0
 17 18  1  0
 18 11  1  0
 14 19  1  0
 20 10  1  0
 20 21  2  0
 22 20  1  0
  8 22  2  0
 22 23  1  0
 23  5  2  0
M  END
> <From>
www.bindingDB.org

> <BindingDB Reactant_set_id>
51570917

> <Ligand InChI>
InChI=1S/C14H13FN2O5S/c1-16-12(18)5-4-11(14(16)20)17-7-8-2-3-9(23(15,21)22)6-10(8)13(17)19/h2-3,6,11H,4-5,7H2,1H3

> <Ligand InChI Key>
AMHYHMMSUWYWOK-UHFFFAOYSA-N

> <BindingDB MonomerID>
50631800

> <BindingDB Ligand Name>
CHEMBL5409036

> <Target Name>
Protein cereblon

> <Target Source Organism According to Curator or DataSource>
Homo sapiens

> <Ki (nM)>


> <IC50 (nM)>
 23000

> <Kd (nM)>


> <EC50 (nM)>


> <kon (M-1-s-1)>


> <koff (s-1)>


> <pH>


> <Temp C>


> <Curation/DataSource>
ChEMBL

> <Article DOI>
10.1039/d3md00652b

> <BindingDB Entry DOI>
10.7270/Q2CV4P64

> <PMID>
38389883

> <PubChem AID>


> <Patent Number>


> <Authors>
Liu, Y; Nowak, RP; Che, J; Donovan, KA; Huerta, F; Liu, H; Metivier, RJ; Fischer, ES; Jones, LH

> <Date of publication>
2/21/2024

> <Date in BindingDB>
12/21/2024

> <Institution>
Dana-Farber Cancer Institute

> <Link to Ligand in BindingDB>
http://www.bindingdb.org/bind/chemsearch/marvin/MolStructure.jsp?monomerid=50631800

> <Link to Ligand-Target Pair in BindingDB>
http://www.bindingdb.org/jsp/dbsearch/PrimarySearch_ki.jsp?energyterm=kJ/mole&tag=pol&polymerid=50007050&target=Protein+cereblon&column=ki&startPg=0&Increment=50&submit=Search

> <Link to Ligand-Target Pair in BindingDB>
http://www.bindingdb.org/jsp/dbsearch/PrimarySearch_ki.jsp?energyterm=kJ/mole&tag=r21&monomerid=50631800&enzyme=Protein+cereblon&column=ki&startPg=0&Increment=50&submit=Search

> <Ligand HET ID in PDB>


> <PDB ID(s) for Ligand-Target Complex>


> <PubChem CID of Ligand>
172451463

> <PubChem SID of Ligand>
505036134

> <ChEBI ID of Ligand>


> <ChEMBL ID of Ligand>


> <DrugBank ID of Ligand>


> <IUPHAR_GRAC ID of Ligand>


> <KEGG ID of Ligand>


> <ZINC ID of Ligand>


> <Number of Protein Chains in Target (bigger than 1 implies a multichain complex)>
1

> <BindingDB Target Chain Sequence>
MAGEGDQQDAAHNMGNHLPLLPAESEEEDEMEVEDQDSKEAKKPNIINFDTSLPTSHTYLGADMEEFHGRTLHDDDSCQVIPVLPQVMMILIPGQTLPLQLFHPQEVSMVRNLIQKDRTFAVLAYSNVQEREAQFGTTAEIYAYREEQDFGIEIVKVKAIGRQRFKVLELRTQSDGIQQAKVQILPECVLPSTMSAVQLESLNKCQIFPSKPVSREDQCSYKWWQKYQKRKFHCANLTSWPRWLYSLYDAETLMDRIKKQLREWDENLKDDSLPSNPIDFSYRVAACLPIDDVLRIQLLKIGSAIQRLRCELDIMNKCTSLCCKQCQETEITTKNEIFSLSLCGPMAAYVNPHGYVHETLTVYKACNLNLIGRPSTEHSWFPGYAWTVAQCKICASHIGWKFTATKKDMSPQKFWGLTRSALLPTIPDTEDEISPDKVILCL

> <PDB ID(s) of Target Chain>
8TNR,8TNQ,8TNP,8D81,8D80,8D7Z,8D7Y,8D7X,8D7W,8D7V,8D7U,8CVP,9DQD,8UH6,6BOY,6BNB,6BN9,6BN8,6BN7,6XK9,6UML,5V3O,5HXB,7U8F,8OJH,8OIZ,7LPS,4TZ4,9DJX,9DJT,8U17,8U16,8U15,8TZX,8DEY,9CUO,4M91

> <UniProt (SwissProt) Recommended Name of Target Chain>
Protein cereblon

> <UniProt (SwissProt) Entry Name of Target Chain>
CRBN_HUMAN

> <UniProt (SwissProt) Primary ID of Target Chain>
Q96SW2

> <UniProt (SwissProt) Secondary ID(s) of Target Chain>
B2R6H4 C9IZA9 C9JAH6 Q6AI62 Q6NVZ0 Q9UHW4

> <UniProt (SwissProt) Alternative ID(s) of Target Chain>


> <UniProt (TrEMBL) Submitted Name of Target Chain>


> <UniProt (TrEMBL) Entry Name of Target Chain>


> <UniProt (TrEMBL) Primary ID of Target Chain>


> <UniProt (TrEMBL) Secondary ID(s) of Target Chain>


> <UniProt (TrEMBL) Alternative ID(s) of Target Chain>


$$$$
 
     RDKit          2D

 17 19  0  0  0  0  0  0  0  0999 V2000
    2.9976    0.3022    0.0000 O   0  0  0  0  0  0  0  0  0  0  0  0
    2.1726    0.3022    0.0000 C   0  0  0  0  0  0  0  0  0  0  0  0
    1.7602   -0.4122    0.0000 N   0  0  0  0  0  0  0  0  0  0  0  0
    0.9352   -0.4122    0.0000 C   0  0  0  0  0  0  0  0  0  0  0  0
    0.5228   -1.1266    0.0000 O   0  0  0  0  0  0  0  0  0  0  0  0
    0.5228    0.3022    0.0000 C   0  0  0  0  0  0  0  0  0  0  0  0
    0.9352    1.0166    0.0000 C   0  0  0  0  0  0  0  0  0  0  0  0
    1.7602    1.0166    0.0000 C   0  0  0  0  0  0  0  0  0  0  0  0
   -0.3021    0.3022    0.0000 N   0  0  0  0  0  0  0  0  0  0  0  0
   -0.7870    0.9697    0.0000 C   0  0  0  0  0  0  0  0  0  0  0  0
   -1.5715    0.7147    0.0000 C   0  0  0  0  0  0  0  0  0  0  0  0
   -1.5715   -0.1101    0.0000 C   0  0  0  0  0  0  0  0  0  0  0  0
   -0.7870   -0.3650    0.0000 C   0  0  0  0  0  0  0  0  0  0  0  0
   -2.2814   -0.5218    0.0000 C   0  0  0  0  0  0  0  0  0  0  0  0
   -2.9976   -0.1138    0.0000 C   0  0  0  0  0  0  0  0  0  0  0  0
   -2.9976    0.7144    0.0000 C   0  0  0  0  0  0  0  0  0  0  0  0
   -2.2832    1.1266    0.0000 C   0  0  0  0  0  0  0  0  0  0  0  0
  2  1  2  0
  3  2  1  0
  4  3  1  0
  4  5  2  0
  6  4  1  0
  7  6  1  0
  8  7  1  0
  2  8  1  0
  9  6  1  0
 10  9  1  0
 11 10  1  0
 12 11  2  0
 12 13  1  0
  9 13  1  0
 14 12  1  0
 15 14  2  0
 16 15  1  0
 17 16  2  0
 11 17  1  0
M  END
> <From>
www.bindingDB.org

> <BindingDB Reactant_set_id>
51570918

> <Ligand InChI>
InChI=1S/C13H14N2O2/c16-12-6-5-11(13(17)14-12)15-7-9-3-1-2-4-10(9)8-15/h1-4,11H,5-8H2,(H,14,16,17)

> <Ligand InChI Key>
VJWHSCYAWWAUKE-UHFFFAOYSA-N

> <BindingDB MonomerID>
50631801

> <BindingDB Ligand Name>
CHEMBL5425793

> <Target Name>
Protein cereblon

> <Target Source Organism According to Curator or DataSource>
Homo sapiens

> <Ki (nM)>


> <IC50 (nM)>
 23000

> <Kd (nM)>


> <EC50 (nM)>


> <kon (M-1-s-1)>


> <koff (s-1)>


> <pH>


> <Temp C>


> <Curation/DataSource>
ChEMBL

> <Article DOI>
10.1039/d3md00652b

> <BindingDB Entry DOI>
10.7270/Q2CV4P64

> <PMID>
38389883

> <PubChem AID>


> <Patent Number>


> <Authors>
Liu, Y; Nowak, RP; Che, J; Donovan, KA; Huerta, F; Liu, H; Metivier, RJ; Fischer, ES; Jones, LH

> <Date of publication>
2/21/2024

> <Date in BindingDB>
12/21/2024

> <Institution>
Dana-Farber Cancer Institute

> <Link to Ligand in BindingDB>
http://www.bindingdb.org/bind/chemsearch/marvin/MolStructure.jsp?monomerid=50631801

> <Link to Ligand-Target Pair in BindingDB>
http://www.bindingdb.org/jsp/dbsearch/PrimarySearch_ki.jsp?energyterm=kJ/mole&tag=pol&polymerid=50007050&target=Protein+cereblon&column=ki&startPg=0&Increment=50&submit=Search

> <Link to Ligand-Target Pair in BindingDB>
http://www.bindingdb.org/jsp/dbsearch/PrimarySearch_ki.jsp?energyterm=kJ/mole&tag=r21&monomerid=50631801&enzyme=Protein+cereblon&column=ki&startPg=0&Increment=50&submit=Search

> <Ligand HET ID in PDB>


> <PDB ID(s) for Ligand-Target Complex>


> <PubChem CID of Ligand>
11776018

> <PubChem SID of Ligand>
505036135

> <ChEBI ID of Ligand>


> <ChEMBL ID of Ligand>


> <DrugBank ID of Ligand>


> <IUPHAR_GRAC ID of Ligand>


> <KEGG ID of Ligand>


> <ZINC ID of Ligand>


> <Number of Protein Chains in Target (bigger than 1 implies a multichain complex)>
1

> <BindingDB Target Chain Sequence>
MAGEGDQQDAAHNMGNHLPLLPAESEEEDEMEVEDQDSKEAKKPNIINFDTSLPTSHTYLGADMEEFHGRTLHDDDSCQVIPVLPQVMMILIPGQTLPLQLFHPQEVSMVRNLIQKDRTFAVLAYSNVQEREAQFGTTAEIYAYREEQDFGIEIVKVKAIGRQRFKVLELRTQSDGIQQAKVQILPECVLPSTMSAVQLESLNKCQIFPSKPVSREDQCSYKWWQKYQKRKFHCANLTSWPRWLYSLYDAETLMDRIKKQLREWDENLKDDSLPSNPIDFSYRVAACLPIDDVLRIQLLKIGSAIQRLRCELDIMNKCTSLCCKQCQETEITTKNEIFSLSLCGPMAAYVNPHGYVHETLTVYKACNLNLIGRPSTEHSWFPGYAWTVAQCKICASHIGWKFTATKKDMSPQKFWGLTRSALLPTIPDTEDEISPDKVILCL

> <PDB ID(s) of Target Chain>
8TNR,8TNQ,8TNP,8D81,8D80,8D7Z,8D7Y,8D7X,8D7W,8D7V,8D7U,8CVP,9DQD,8UH6,6BOY,6BNB,6BN9,6BN8,6BN7,6XK9,6UML,5V3O,5HXB,7U8F,8OJH,8OIZ,7LPS,4TZ4,9DJX,9DJT,8U17,8U16,8U15,8TZX,8DEY,9CUO,4M91

> <UniProt (SwissProt) Recommended Name of Target Chain>
Protein cereblon

> <UniProt (SwissProt) Entry Name of Target Chain>
CRBN_HUMAN

> <UniProt (SwissProt) Primary ID of Target Chain>
Q96SW2

> <UniProt (SwissProt) Secondary ID(s) of Target Chain>
B2R6H4 C9IZA9 C9JAH6 Q6AI62 Q6NVZ0 Q9UHW4

> <UniProt (SwissProt) Alternative ID(s) of Target Chain>


> <UniProt (TrEMBL) Submitted Name of Target Chain>


> <UniProt (TrEMBL) Entry Name of Target Chain>


> <UniProt (TrEMBL) Primary ID of Target Chain>


> <UniProt (TrEMBL) Secondary ID(s) of Target Chain>


> <UniProt (TrEMBL) Alternative ID(s) of Target Chain>


$$$$
134780
  Mrv0541 01031813182D          

 20 22  0  0  1  0            999 V2000
    5.1662   -1.6578    0.0000 O   0  0  0  0  0  0  0  0  0  0  0  0
    4.1159    1.2193    0.0000 O   0  0  0  0  0  0  0  0  0  0  0  0
    4.1159   -1.6769    0.0000 O   0  0  0  0  0  0  0  0  0  0  0  0
    7.6412   -0.2289    0.0000 O   0  0  0  0  0  0  0  0  0  0  0  0
    4.3412   -0.2289    0.0000 N   0  0  0  0  0  0  0  0  0  0  0  0
    6.4037   -0.9433    0.0000 N   0  0  0  0  0  0  0  0  0  0  0  0
    2.3645    1.4212    0.0000 N   0  0  0  0  0  0  0  0  0  0  0  0
    5.1662   -0.2289    0.0000 C   0  0  0  0  0  0  0  0  0  0  0  0
    5.5787    0.4857    0.0000 C   0  0  0  0  0  0  0  0  0  0  0  0
    6.4037    0.4857    0.0000 C   0  0  0  0  0  0  0  0  0  0  0  0
    5.5787   -0.9433    0.0000 C   0  0  0  0  0  0  0  0  0  0  0  0
    3.8597    0.4351    0.0000 C   0  0  0  0  0  0  0  0  0  0  0  0
    3.8597   -0.8928    0.0000 C   0  0  0  0  0  0  0  0  0  0  0  0
    3.0790    0.1836    0.0000 C   0  0  0  0  0  0  0  0  0  0  0  0
    3.0790   -0.6414    0.0000 C   0  0  0  0  0  0  0  0  0  0  0  0
    6.8162   -0.2289    0.0000 C   0  0  0  0  0  0  0  0  0  0  0  0
    2.3645    0.5962    0.0000 C   0  0  0  0  0  0  0  0  0  0  0  0
    2.3645   -1.0539    0.0000 C   0  0  0  0  0  0  0  0  0  0  0  0
    1.6500    0.1836    0.0000 C   0  0  0  0  0  0  0  0  0  0  0  0
    1.6500   -0.6414    0.0000 C   0  0  0  0  0  0  0  0  0  0  0  0
  1 11  2  0  0  0  0
  2 12  2  0  0  0  0
  3 13  2  0  0  0  0
  4 16  2  0  0  0  0
  5  8  1  0  0  0  0
  5 12  1  0  0  0  0
  5 13  1  0  0  0  0
  6 11  1  0  0  0  0
  6 16  1  0  0  0  0
  7 17  1  0  0  0  0
  8  9  1  0  0  0  0
  8 11  1  0  0  0  0
  9 10  1  0  0  0  0
 10 16  1  0  0  0  0
 12 14  1  0  0  0  0
 13 15  1  0  0  0  0
 14 15  4  0  0  0  0
 14 17  4  0  0  0  0
 15 18  4  0  0  0  0
 17 19  4  0  0  0  0
 18 20  4  0  0  0  0
 19 20  4  0  0  0  0
M  END
> <From>
www.bindingDB.org

> <BindingDB Reactant_set_id>
51359707

> <Ligand InChI>
InChI=1S/C13H11N3O4/c14-7-3-1-2-6-10(7)13(20)16(12(6)19)8-4-5-9(17)15-11(8)18/h1-3,8H,4-5,14H2,(H,15,17,18)

> <Ligand InChI Key>
UVSMNLNDYGZFPF-UHFFFAOYSA-N

> <BindingDB MonomerID>
65456

> <BindingDB Ligand Name>
19171-19-8::4-amino-2-(2,6-dioxopiperidin-3-yl)isoindoline-1,3-dione::Actimid::CC-4047::Pomalyst::US11059801, Compound D-4::US9694015, 6.2::pomalidomide

> <Target Name>
Protein cereblon

> <Target Source Organism According to Curator or DataSource>
Human

> <Ki (nM)>


> <IC50 (nM)>
 25800

> <Kd (nM)>


> <EC50 (nM)>


> <kon (M-1-s-1)>


> <koff (s-1)>


> <pH>


> <Temp C>


> <Curation/DataSource>
ChEMBL

> <Article DOI>
10.1021/acsmedchemlett.0c00440

> <BindingDB Entry DOI>
10.7270/Q2WM1J1B

> <PMID>
33488967

> <PubChem AID>


> <Patent Number>


> <Authors>
Maiwald, S; Heim, C; Hernandez Alvarez, B; Hartmann, MD

> <Date of publication>
1/14/2021

> <Date in BindingDB>
3/23/2022

> <Institution>
Max Planck Institute for Developmental Biology

> <Link to Ligand in BindingDB>
http://www.bindingdb.org/bind/chemsearch/marvin/MolStructure.jsp?monomerid=65456

> <Link to Ligand-Target Pair in BindingDB>
http://www.bindingdb.org/jsp/dbsearch/PrimarySearch_ki.jsp?energyterm=kJ/mole&tag=pol&polymerid=50007050&target=Protein+cereblon&column=ki&startPg=0&Increment=50&submit=Search

> <Link to Ligand-Target Pair in BindingDB>
http://www.bindingdb.org/jsp/dbsearch/PrimarySearch_ki.jsp?energyterm=kJ/mole&tag=r21&monomerid=65456&enzyme=Protein+cereblon&column=ki&startPg=0&Increment=50&submit=Search

> <Ligand HET ID in PDB>
Y70

> <PDB ID(s) for Ligand-Target Complex>
7SZA

> <PubChem CID of Ligand>
134780

> <PubChem SID of Ligand>
350083086

> <ChEBI ID of Ligand>


> <ChEMBL ID of Ligand>


> <DrugBank ID of Ligand>
DB08910

> <IUPHAR_GRAC ID of Ligand>


> <KEGG ID of Ligand>


> <ZINC ID of Ligand>
ZINC15953204

> <Number of Protein Chains in Target (bigger than 1 implies a multichain complex)>
1

> <BindingDB Target Chain Sequence>
MAGEGDQQDAAHNMGNHLPLLPAESEEEDEMEVEDQDSKEAKKPNIINFDTSLPTSHTYLGADMEEFHGRTLHDDDSCQVIPVLPQVMMILIPGQTLPLQLFHPQEVSMVRNLIQKDRTFAVLAYSNVQEREAQFGTTAEIYAYREEQDFGIEIVKVKAIGRQRFKVLELRTQSDGIQQAKVQILPECVLPSTMSAVQLESLNKCQIFPSKPVSREDQCSYKWWQKYQKRKFHCANLTSWPRWLYSLYDAETLMDRIKKQLREWDENLKDDSLPSNPIDFSYRVAACLPIDDVLRIQLLKIGSAIQRLRCELDIMNKCTSLCCKQCQETEITTKNEIFSLSLCGPMAAYVNPHGYVHETLTVYKACNLNLIGRPSTEHSWFPGYAWTVAQCKICASHIGWKFTATKKDMSPQKFWGLTRSALLPTIPDTEDEISPDKVILCL

> <PDB ID(s) of Target Chain>
4TZ4,5HXB,5V3O,6UML,6XK9,7LPS,7U8F,8CVP,8D7U,8D7V,8D7W,8D7X,8D7Y,8D7Z,8D80,8D81,8DEY,8OIZ,8OJH

> <UniProt (SwissProt) Recommended Name of Target Chain>
Protein cereblon

> <UniProt (SwissProt) Entry Name of Target Chain>
CRBN_HUMAN

> <UniProt (SwissProt) Primary ID of Target Chain>
Q96SW2

> <UniProt (SwissProt) Secondary ID(s) of Target Chain>
B2R6H4 C9IZA9 C9JAH6 Q6AI62 Q6NVZ0 Q9UHW4

> <UniProt (SwissProt) Alternative ID(s) of Target Chain>


> <UniProt (TrEMBL) Submitted Name of Target Chain>


> <UniProt (TrEMBL) Entry Name of Target Chain>


> <UniProt (TrEMBL) Primary ID of Target Chain>


> <UniProt (TrEMBL) Secondary ID(s) of Target Chain>


> <UniProt (TrEMBL) Alternative ID(s) of Target Chain>


$$$$
 
     RDKit          2D

 20 21  0  0  0  0  0  0  0  0999 V2000
   -1.7852    0.2074    0.0000 C   0  0  0  0  0  0  0  0  0  0  0  0
   -2.4998   -0.2048    0.0000 C   0  0  0  0  0  0  0  0  0  0  0  0
   -2.4998   -1.0333    0.0000 C   0  0  0  0  0  0  0  0  0  0  0  0
   -1.7834   -1.4414    0.0000 C   0  0  0  0  0  0  0  0  0  0  0  0
   -1.0733   -1.0296    0.0000 C   0  0  0  0  0  0  0  0  0  0  0  0
   -1.0733   -0.2044    0.0000 C   0  0  0  0  0  0  0  0  0  0  0  0
   -0.3587    0.2081    0.0000 C   0  0  0  0  0  0  0  0  0  0  0  0
   -0.3587    1.0333    0.0000 O   0  0  0  0  0  0  0  0  0  0  0  0
    0.3558   -0.2044    0.0000 N   0  0  0  0  0  0  0  0  0  0  0  0
    1.0705    0.2081    0.0000 C   0  0  0  0  0  0  0  0  0  0  0  0
    1.0705    1.0333    0.0000 C   0  0  0  0  0  0  0  0  0  0  0  0
    1.7851    1.4459    0.0000 C   0  0  0  0  0  0  0  0  0  0  0  0
    2.4998    1.0333    0.0000 C   0  0  0  0  0  0  0  0  0  0  0  0
    2.4998    0.2081    0.0000 N   0  0  0  0  0  0  0  0  0  0  0  0
    1.7851   -0.2044    0.0000 C   0  0  0  0  0  0  0  0  0  0  0  0
    1.7851   -1.0296    0.0000 O   0  0  0  0  0  0  0  0  0  0  0  0
    3.2144    1.4459    0.0000 O   0  0  0  0  0  0  0  0  0  0  0  0
   -0.3587   -1.4422    0.0000 O   0  0  0  0  0  0  0  0  0  0  0  0
   -3.2144   -1.4459    0.0000 N   0  0  0  0  0  0  0  0  0  0  0  0
    0.3558   -1.0296    0.0000 C   0  0  0  0  0  0  0  0  0  0  0  0
  1  2  2  0
  2  3  1  0
  4  3  2  0
  5  4  1  0
  6  5  2  0
  1  6  1  0
  6  7  1  0
  7  8  2  0
  7  9  1  0
  9 10  1  0
 10 11  1  0
 11 12  1  0
 12 13  1  0
 13 14  1  0
 14 15  1  0
 10 15  1  0
 15 16  2  0
 13 17  2  0
  5 18  1  0
  3 19  1  0
 18 20  1  0
M  END
> <From>
www.bindingDB.org

> <BindingDB Reactant_set_id>
51567919

> <Ligand InChI>
InChI=1S/C13H15N3O4/c1-20-10-6-7(14)2-3-8(10)12(18)15-9-4-5-11(17)16-13(9)19/h2-3,6,9H,4-5,14H2,1H3,(H,15,18)(H,16,17,19)

> <Ligand InChI Key>
SLGDHJMSLPDYEO-UHFFFAOYSA-N

> <BindingDB MonomerID>
50630599

> <BindingDB Ligand Name>
CHEMBL5405986

> <Target Name>
Protein cereblon

> <Target Source Organism According to Curator or DataSource>
Homo sapiens

> <Ki (nM)>


> <IC50 (nM)>
 28000

> <Kd (nM)>


> <EC50 (nM)>


> <kon (M-1-s-1)>


> <koff (s-1)>


> <pH>


> <Temp C>


> <Curation/DataSource>
ChEMBL

> <Article DOI>
10.1021/acs.jmedchem.3c00851

> <BindingDB Entry DOI>
10.7270/Q2PK0MM6

> <PMID>
37902300

> <PubChem AID>


> <Patent Number>


> <Authors>
Steinebach, C; Bricelj, A; Murgai, A; Sosič, I; Bischof, L; Ng, YLD; Heim, C; Maiwald, S; Proj, M; Voget, R; Feller, F; Košmrlj, J; Sapozhnikova, V; Schmidt, A; Zuleeg, MR; Lemnitzer, P; Mertins, P; Hansen, FK; Gütschow, M; Krönke, J; Hartmann, MD

> <Date of publication>
11/9/2023

> <Date in BindingDB>
12/20/2024

> <Institution>
University of Bonn

> <Link to Ligand in BindingDB>
http://www.bindingdb.org/bind/chemsearch/marvin/MolStructure.jsp?monomerid=50630599

> <Link to Ligand-Target Pair in BindingDB>
http://www.bindingdb.org/jsp/dbsearch/PrimarySearch_ki.jsp?energyterm=kJ/mole&tag=pol&polymerid=50007050&target=Protein+cereblon&column=ki&startPg=0&Increment=50&submit=Search

> <Link to Ligand-Target Pair in BindingDB>
http://www.bindingdb.org/jsp/dbsearch/PrimarySearch_ki.jsp?energyterm=kJ/mole&tag=r21&monomerid=50630599&enzyme=Protein+cereblon&column=ki&startPg=0&Increment=50&submit=Search

> <Ligand HET ID in PDB>
W1F    

> <PDB ID(s) for Ligand-Target Complex>
8OU7

> <PubChem CID of Ligand>
81678735

> <PubChem SID of Ligand>
505048570

> <ChEBI ID of Ligand>


> <ChEMBL ID of Ligand>


> <DrugBank ID of Ligand>


> <IUPHAR_GRAC ID of Ligand>


> <KEGG ID of Ligand>


> <ZINC ID of Ligand>


> <Number of Protein Chains in Target (bigger than 1 implies a multichain complex)>
1

> <BindingDB Target Chain Sequence>
MAGEGDQQDAAHNMGNHLPLLPAESEEEDEMEVEDQDSKEAKKPNIINFDTSLPTSHTYLGADMEEFHGRTLHDDDSCQVIPVLPQVMMILIPGQTLPLQLFHPQEVSMVRNLIQKDRTFAVLAYSNVQEREAQFGTTAEIYAYREEQDFGIEIVKVKAIGRQRFKVLELRTQSDGIQQAKVQILPECVLPSTMSAVQLESLNKCQIFPSKPVSREDQCSYKWWQKYQKRKFHCANLTSWPRWLYSLYDAETLMDRIKKQLREWDENLKDDSLPSNPIDFSYRVAACLPIDDVLRIQLLKIGSAIQRLRCELDIMNKCTSLCCKQCQETEITTKNEIFSLSLCGPMAAYVNPHGYVHETLTVYKACNLNLIGRPSTEHSWFPGYAWTVAQCKICASHIGWKFTATKKDMSPQKFWGLTRSALLPTIPDTEDEISPDKVILCL

> <PDB ID(s) of Target Chain>
8TNR,8TNQ,8TNP,8D81,8D80,8D7Z,8D7Y,8D7X,8D7W,8D7V,8D7U,8CVP,9DQD,8UH6,6BOY,6BNB,6BN9,6BN8,6BN7,6XK9,6UML,5V3O,5HXB,7U8F,8OJH,8OIZ,7LPS,4TZ4,9DJX,9DJT,8U17,8U16,8U15,8TZX,8DEY,9CUO,4M91

> <UniProt (SwissProt) Recommended Name of Target Chain>
Protein cereblon

> <UniProt (SwissProt) Entry Name of Target Chain>
CRBN_HUMAN

> <UniProt (SwissProt) Primary ID of Target Chain>
Q96SW2

> <UniProt (SwissProt) Secondary ID(s) of Target Chain>
B2R6H4 C9IZA9 C9JAH6 Q6AI62 Q6NVZ0 Q9UHW4

> <UniProt (SwissProt) Alternative ID(s) of Target Chain>


> <UniProt (TrEMBL) Submitted Name of Target Chain>


> <UniProt (TrEMBL) Entry Name of Target Chain>


> <UniProt (TrEMBL) Primary ID of Target Chain>


> <UniProt (TrEMBL) Secondary ID(s) of Target Chain>


> <UniProt (TrEMBL) Alternative ID(s) of Target Chain>


$$$$
 
     RDKit          2D

 29 32  0  0  0  0  0  0  0  0999 V2000
   -1.2130    0.3565    0.0000 C   0  0  0  0  0  0  0  0  0  0  0  0
   -0.4986    0.7691    0.0000 C   0  0  0  0  0  0  0  0  0  0  0  0
    0.2158    0.3565    0.0000 C   0  0  0  0  0  0  0  0  0  0  0  0
    0.2158   -0.4684    0.0000 C   0  0  0  0  0  0  0  0  0  0  0  0
   -0.4986   -0.8809    0.0000 C   0  0  0  0  0  0  0  0  0  0  0  0
   -1.2130   -0.4684    0.0000 C   0  0  0  0  0  0  0  0  0  0  0  0
    1.0004   -0.7233    0.0000 C   0  0  0  0  0  0  0  0  0  0  0  0
    1.4853   -0.0559    0.0000 N   0  0  0  0  0  0  0  0  0  0  0  0
    1.0004    0.6115    0.0000 C   0  0  0  0  0  0  0  0  0  0  0  0
    1.2139    1.4081    0.0000 O   0  0  0  0  0  0  0  0  0  0  0  0
    2.3101   -0.0559    0.0000 C   0  0  0  0  0  0  0  0  0  0  0  0
    2.7224    0.6582    0.0000 C   0  0  0  0  0  0  0  0  0  0  0  0
    3.5472    0.6582    0.0000 C   0  0  0  0  0  0  0  0  0  0  0  0
    3.9595   -0.0560    0.0000 C   0  0  0  0  0  0  0  0  0  0  0  0
    3.5472   -0.7702    0.0000 N   0  0  0  0  0  0  0  0  0  0  0  0
    2.7224   -0.7702    0.0000 C   0  0  0  0  0  0  0  0  0  0  0  0
    2.3101   -1.4845    0.0000 O   0  0  0  0  0  0  0  0  0  0  0  0
    4.7843   -0.0560    0.0000 O   0  0  0  0  0  0  0  0  0  0  0  0
   -1.9273    0.7689    0.0000 S   0  0  0  0  0  0  0  0  0  0  0  0
   -2.6415    0.3565    0.0000 N   0  0  0  0  0  0  0  0  0  0  0  0
   -1.5141    1.4845    0.0000 O   0  0  0  0  0  0  0  0  0  0  0  0
   -2.3389    1.4845    0.0000 O   0  0  0  0  0  0  0  0  0  0  0  0
   -2.6415   -0.4681    0.0000 C   0  0  0  0  0  0  0  0  0  0  0  0
   -3.3558   -0.8805    0.0000 N   0  0  0  0  0  0  0  0  0  0  0  0
   -4.0700   -0.4681    0.0000 C   0  0  0  0  0  0  0  0  0  0  0  0
   -4.0701    0.3566    0.0000 C   0  0  0  0  0  0  0  0  0  0  0  0
   -3.3558    0.7689    0.0000 C   0  0  0  0  0  0  0  0  0  0  0  0
   -4.7843   -0.8805    0.0000 N   0  0  0  0  0  0  0  0  0  0  0  0
   -1.9273   -0.8805    0.0000 O   0  0  0  0  0  0  0  0  0  0  0  0
  1  2  1  0
  3  2  2  0
  4  3  1  0
  5  4  2  0
  6  5  1  0
  1  6  2  0
  4  7  1  0
  8  7  1  0
  9  8  1  0
  3  9  1  0
  9 10  2  0
  8 11  1  0
 12 11  1  0
 13 12  1  0
 14 13  1  0
 15 14  1  0
 16 15  1  0
 11 16  1  0
 16 17  2  0
 14 18  2  0
  1 19  1  0
 19 20  1  0
 19 21  2  0
 19 22  2  0
 23 20  1  0
 24 23  1  0
 25 24  2  0
 26 25  1  0
 27 26  2  0
 20 27  1  0
 25 28  1  0
 23 29  2  0
M  END
> <From>
www.bindingDB.org

> <BindingDB Reactant_set_id>
51568409

> <Ligand InChI>
InChI=1S/C17H15N5O6S/c18-13-5-6-22(17(26)19-13)29(27,28)10-2-1-9-8-21(16(25)11(9)7-10)12-3-4-14(23)20-15(12)24/h1-2,5-7,12H,3-4,8H2,(H2,18,19,26)(H,20,23,24)

> <Ligand InChI Key>
MBJWTDRCYZYMDO-UHFFFAOYSA-N

> <BindingDB MonomerID>
50630782

> <BindingDB Ligand Name>
CHEMBL5423386

> <Target Name>
Protein cereblon

> <Target Source Organism According to Curator or DataSource>
Homo sapiens

> <Ki (nM)>


> <IC50 (nM)>
 28630

> <Kd (nM)>


> <EC50 (nM)>


> <kon (M-1-s-1)>


> <koff (s-1)>


> <pH>


> <Temp C>


> <Curation/DataSource>
ChEMBL

> <Article DOI>
10.1021/acsmedchemlett.3c00371

> <BindingDB Entry DOI>
10.7270/Q28D01RH

> <PMID>
37974938

> <PubChem AID>


> <Patent Number>


> <Authors>
Cruite, JT; Nowak, RP; Donovan, KA; Ficarro, SB; Huang, H; Liu, H; Liu, Y; Marto, JA; Metivier, RJ; Fischer, ES; Jones, LH

> <Date of publication>
11/9/2023

> <Date in BindingDB>
12/20/2024

> <Institution>
Dana-Farber Cancer Institute

> <Link to Ligand in BindingDB>
http://www.bindingdb.org/bind/chemsearch/marvin/MolStructure.jsp?monomerid=50630782

> <Link to Ligand-Target Pair in BindingDB>
http://www.bindingdb.org/jsp/dbsearch/PrimarySearch_ki.jsp?energyterm=kJ/mole&tag=pol&polymerid=50007050&target=Protein+cereblon&column=ki&startPg=0&Increment=50&submit=Search

> <Link to Ligand-Target Pair in BindingDB>
http://www.bindingdb.org/jsp/dbsearch/PrimarySearch_ki.jsp?energyterm=kJ/mole&tag=r21&monomerid=50630782&enzyme=Protein+cereblon&column=ki&startPg=0&Increment=50&submit=Search

> <Ligand HET ID in PDB>


> <PDB ID(s) for Ligand-Target Complex>


> <PubChem CID of Ligand>
172459362

> <PubChem SID of Ligand>
505048753

> <ChEBI ID of Ligand>


> <ChEMBL ID of Ligand>


> <DrugBank ID of Ligand>


> <IUPHAR_GRAC ID of Ligand>


> <KEGG ID of Ligand>


> <ZINC ID of Ligand>


> <Number of Protein Chains in Target (bigger than 1 implies a multichain complex)>
1

> <BindingDB Target Chain Sequence>
MAGEGDQQDAAHNMGNHLPLLPAESEEEDEMEVEDQDSKEAKKPNIINFDTSLPTSHTYLGADMEEFHGRTLHDDDSCQVIPVLPQVMMILIPGQTLPLQLFHPQEVSMVRNLIQKDRTFAVLAYSNVQEREAQFGTTAEIYAYREEQDFGIEIVKVKAIGRQRFKVLELRTQSDGIQQAKVQILPECVLPSTMSAVQLESLNKCQIFPSKPVSREDQCSYKWWQKYQKRKFHCANLTSWPRWLYSLYDAETLMDRIKKQLREWDENLKDDSLPSNPIDFSYRVAACLPIDDVLRIQLLKIGSAIQRLRCELDIMNKCTSLCCKQCQETEITTKNEIFSLSLCGPMAAYVNPHGYVHETLTVYKACNLNLIGRPSTEHSWFPGYAWTVAQCKICASHIGWKFTATKKDMSPQKFWGLTRSALLPTIPDTEDEISPDKVILCL

> <PDB ID(s) of Target Chain>
8TNR,8TNQ,8TNP,8D81,8D80,8D7Z,8D7Y,8D7X,8D7W,8D7V,8D7U,8CVP,9DQD,8UH6,6BOY,6BNB,6BN9,6BN8,6BN7,6XK9,6UML,5V3O,5HXB,7U8F,8OJH,8OIZ,7LPS,4TZ4,9DJX,9DJT,8U17,8U16,8U15,8TZX,8DEY,9CUO,4M91

> <UniProt (SwissProt) Recommended Name of Target Chain>
Protein cereblon

> <UniProt (SwissProt) Entry Name of Target Chain>
CRBN_HUMAN

> <UniProt (SwissProt) Primary ID of Target Chain>
Q96SW2

> <UniProt (SwissProt) Secondary ID(s) of Target Chain>
B2R6H4 C9IZA9 C9JAH6 Q6AI62 Q6NVZ0 Q9UHW4

> <UniProt (SwissProt) Alternative ID(s) of Target Chain>


> <UniProt (TrEMBL) Submitted Name of Target Chain>


> <UniProt (TrEMBL) Entry Name of Target Chain>


> <UniProt (TrEMBL) Primary ID of Target Chain>


> <UniProt (TrEMBL) Secondary ID(s) of Target Chain>


> <UniProt (TrEMBL) Alternative ID(s) of Target Chain>


$$$$
 
  Mrv0541 11231401562D          

 19 21  0  0  0  0            999 V2000
    0.8646  -22.9723    0.0000 C   0  0  0  0  0  0  0  0  0  0  0  0
    1.6916  -22.9723    0.0000 C   0  0  0  0  0  0  0  0  0  0  0  0
    2.1028  -22.2600    0.0000 C   0  0  0  0  0  0  0  0  0  0  0  0
    1.6916  -21.5432    0.0000 N   0  0  0  0  0  0  0  0  0  0  0  0
    0.8646  -21.5432    0.0000 C   0  0  0  0  0  0  0  0  0  0  0  0
    0.4488  -22.2600    0.0000 C   0  0  0  0  0  0  0  0  0  0  0  0
   -0.3797  -22.2649    0.0000 N   0  0  0  0  0  0  0  0  0  0  0  0
   -0.8667  -21.5966    0.0000 C   0  0  0  0  0  0  0  0  0  0  0  0
   -0.8649  -22.9346    0.0000 C   0  0  0  0  0  0  0  0  0  0  0  0
   -1.6518  -22.6803    0.0000 C   0  0  0  0  0  0  0  0  0  0  0  0
   -1.6493  -21.8553    0.0000 C   0  0  0  0  0  0  0  0  0  0  0  0
   -2.3613  -21.4425    0.0000 C   0  0  0  0  0  0  0  0  0  0  0  0
   -3.0763  -21.8535    0.0000 C   0  0  0  0  0  0  0  0  0  0  0  0
   -3.0748  -22.6816    0.0000 C   0  0  0  0  0  0  0  0  0  0  0  0
   -2.3622  -23.0907    0.0000 C   0  0  0  0  0  0  0  0  0  0  0  0
   -0.6138  -20.8092    0.0000 O   0  0  0  0  0  0  0  0  0  0  0  0
   -0.6082  -23.7207    0.0000 O   0  0  0  0  0  0  0  0  0  0  0  0
    0.4518  -20.8266    0.0000 O   0  0  0  0  0  0  0  0  0  0  0  0
    2.9298  -22.2612    0.0000 O   0  0  0  0  0  0  0  0  0  0  0  0
  9  7  1  0  0  0  0
  6  7  1  0  0  0  0
  2  3  1  0  0  0  0
  3  4  1  0  0  0  0
 10 11  2  0  0  0  0
  4  5  1  0  0  0  0
 11 12  1  0  0  0  0
  5  6  1  0  0  0  0
 12 13  2  0  0  0  0
  7  8  1  0  0  0  0
 13 14  1  0  0  0  0
 14 15  2  0  0  0  0
 15 10  1  0  0  0  0
  1  2  1  0  0  0  0
  8 16  2  0  0  0  0
  1  6  1  0  0  0  0
  9 17  2  0  0  0  0
  8 11  1  0  0  0  0
  5 18  2  0  0  0  0
 10  9  1  0  0  0  0
  3 19  2  0  0  0  0
M  END
> <From>
www.bindingDB.org

> <BindingDB Reactant_set_id>
50467269

> <Ligand InChI>
InChI=1S/C13H10N2O4/c16-10-6-5-9(11(17)14-10)15-12(18)7-3-1-2-4-8(7)13(15)19/h1-4,9H,5-6H2,(H,14,16,17)

> <Ligand InChI Key>
UEJJHQNACJXSKW-UHFFFAOYSA-N

> <BindingDB MonomerID>
50070114

> <BindingDB Ligand Name>
(+/-)-thalidomide::2-(2,6-Dioxo-piperidin-3-yl)-isoindole-1,3-dione::2-(2,6-dioxopiperidin-3-yl)isoindoline-1,3-dione::CHEMBL468::K-17::THALIDOMIDE::Thalomid::US11059801, Compound D-62::[(R,S)-2-(2,6-dioxo-3-piperidinyl)-1H-isoindole-1,3(2H)-dione

> <Target Name>
Protein cereblon

> <Target Source Organism According to Curator or DataSource>
Human

> <Ki (nM)>


> <IC50 (nM)>
 29900

> <Kd (nM)>


> <EC50 (nM)>


> <kon (M-1-s-1)>


> <koff (s-1)>


> <pH>


> <Temp C>


> <Curation/DataSource>
ChEMBL

> <Article DOI>
10.1021/acs.jmedchem.5b01735

> <BindingDB Entry DOI>
10.7270/Q2PR7XVF

> <PMID>
26730808

> <PubChem AID>


> <Patent Number>


> <Authors>
Boichenko, I; Deiss, S; Bär, K; Hartmann, MD; Hernandez Alvarez, B

> <Date of publication>
1/28/2016

> <Date in BindingDB>
6/17/2017

> <Institution>
Max Planck Institute for Developmental Biology

> <Link to Ligand in BindingDB>
http://www.bindingdb.org/bind/chemsearch/marvin/MolStructure.jsp?monomerid=50070114

> <Link to Ligand-Target Pair in BindingDB>
http://www.bindingdb.org/jsp/dbsearch/PrimarySearch_ki.jsp?energyterm=kJ/mole&tag=pol&polymerid=50007050&target=Protein+cereblon&column=ki&startPg=0&Increment=50&submit=Search

> <Link to Ligand-Target Pair in BindingDB>
http://www.bindingdb.org/jsp/dbsearch/PrimarySearch_ki.jsp?energyterm=kJ/mole&tag=r21&monomerid=50070114&enzyme=Protein+cereblon&column=ki&startPg=0&Increment=50&submit=Search

> <Ligand HET ID in PDB>
EF2

> <PDB ID(s) for Ligand-Target Complex>
4CI1,8BC7,5AMI,5AMH,7BQU,5YIZ,7PSO,4V32,4V2Y,5OH1,5AMK,5AMJ,6R13,6R12,6R19,6R18,6R1C,6R1A,6R1W,6R0U,6R0S,5YJ0,4TZC

> <PubChem CID of Ligand>
5426

> <PubChem SID of Ligand>
103964042

> <ChEBI ID of Ligand>
74947

> <ChEMBL ID of Ligand>
CHEMBL468

> <DrugBank ID of Ligand>
DB01041

> <IUPHAR_GRAC ID of Ligand>
7327

> <KEGG ID of Ligand>
C07910

> <ZINC ID of Ligand>
ZINC01530948

> <Number of Protein Chains in Target (bigger than 1 implies a multichain complex)>
1

> <BindingDB Target Chain Sequence>
MAGEGDQQDAAHNMGNHLPLLPAESEEEDEMEVEDQDSKEAKKPNIINFDTSLPTSHTYLGADMEEFHGRTLHDDDSCQVIPVLPQVMMILIPGQTLPLQLFHPQEVSMVRNLIQKDRTFAVLAYSNVQEREAQFGTTAEIYAYREEQDFGIEIVKVKAIGRQRFKVLELRTQSDGIQQAKVQILPECVLPSTMSAVQLESLNKCQIFPSKPVSREDQCSYKWWQKYQKRKFHCANLTSWPRWLYSLYDAETLMDRIKKQLREWDENLKDDSLPSNPIDFSYRVAACLPIDDVLRIQLLKIGSAIQRLRCELDIMNKCTSLCCKQCQETEITTKNEIFSLSLCGPMAAYVNPHGYVHETLTVYKACNLNLIGRPSTEHSWFPGYAWTVAQCKICASHIGWKFTATKKDMSPQKFWGLTRSALLPTIPDTEDEISPDKVILCL

> <PDB ID(s) of Target Chain>
4TZ4,5HXB,5V3O,6UML,6XK9,7LPS,7U8F,8CVP,8D7U,8D7V,8D7W,8D7X,8D7Y,8D7Z,8D80,8D81,8DEY,8OIZ,8OJH

> <UniProt (SwissProt) Recommended Name of Target Chain>
Protein cereblon

> <UniProt (SwissProt) Entry Name of Target Chain>
CRBN_HUMAN

> <UniProt (SwissProt) Primary ID of Target Chain>
Q96SW2

> <UniProt (SwissProt) Secondary ID(s) of Target Chain>
B2R6H4 C9IZA9 C9JAH6 Q6AI62 Q6NVZ0 Q9UHW4

> <UniProt (SwissProt) Alternative ID(s) of Target Chain>


> <UniProt (TrEMBL) Submitted Name of Target Chain>


> <UniProt (TrEMBL) Entry Name of Target Chain>


> <UniProt (TrEMBL) Primary ID of Target Chain>


> <UniProt (TrEMBL) Secondary ID(s) of Target Chain>


> <UniProt (TrEMBL) Alternative ID(s) of Target Chain>


$$$$
Maleimide-Related Compound 13
  Mrv0541 11181423152D          

  7  7  0  0  0  0            999 V2000
   -1.5112    0.8106    0.0000 C   0  0  0  0  0  0  0  0  0  0  0  0
   -1.2563    0.0260    0.0000 C   0  0  0  0  0  0  0  0  0  0  0  0
   -0.4312    0.0260    0.0000 C   0  0  0  0  0  0  0  0  0  0  0  0
   -0.1763    0.8106    0.0000 C   0  0  0  0  0  0  0  0  0  0  0  0
   -2.2958    1.0655    0.0000 O   0  0  0  0  0  0  0  0  0  0  0  0
    0.6083    1.0655    0.0000 O   0  0  0  0  0  0  0  0  0  0  0  0
   -0.8438    1.2955    0.0000 N   0  0  0  0  0  0  0  0  0  0  0  0
  7  1  1  0  0  0  0
  7  4  1  0  0  0  0
  1  2  1  0  0  0  0
  3  4  1  0  0  0  0
  1  5  2  0  0  0  0
  4  6  2  0  0  0  0
  2  3  1  0  0  0  0
M  END
> <From>
www.bindingDB.org

> <BindingDB Reactant_set_id>
50467265

> <Ligand InChI>
InChI=1S/C4H5NO2/c6-3-1-2-4(7)5-3/h1-2H2,(H,5,6,7)

> <Ligand InChI Key>
KZNICNPSHKQLFF-UHFFFAOYSA-N

> <BindingDB MonomerID>
7814

> <BindingDB Ligand Name>
Maleimide-Related Compound 13::pyrrolidine-2,5-dione

> <Target Name>
Protein cereblon

> <Target Source Organism According to Curator or DataSource>
Human

> <Ki (nM)>


> <IC50 (nM)>
 34500

> <Kd (nM)>


> <EC50 (nM)>


> <kon (M-1-s-1)>


> <koff (s-1)>


> <pH>


> <Temp C>


> <Curation/DataSource>
ChEMBL

> <Article DOI>
10.1021/acs.jmedchem.5b01735

> <BindingDB Entry DOI>
10.7270/Q2PR7XVF

> <PMID>
26730808

> <PubChem AID>


> <Patent Number>


> <Authors>
Boichenko, I; Deiss, S; Bär, K; Hartmann, MD; Hernandez Alvarez, B

> <Date of publication>
1/28/2016

> <Date in BindingDB>
6/17/2017

> <Institution>
Max Planck Institute for Developmental Biology

> <Link to Ligand in BindingDB>
http://www.bindingdb.org/bind/chemsearch/marvin/MolStructure.jsp?monomerid=7814

> <Link to Ligand-Target Pair in BindingDB>
http://www.bindingdb.org/jsp/dbsearch/PrimarySearch_ki.jsp?energyterm=kJ/mole&tag=pol&polymerid=50007050&target=Protein+cereblon&column=ki&startPg=0&Increment=50&submit=Search

> <Link to Ligand-Target Pair in BindingDB>
http://www.bindingdb.org/jsp/dbsearch/PrimarySearch_ki.jsp?energyterm=kJ/mole&tag=r21&monomerid=7814&enzyme=Protein+cereblon&column=ki&startPg=0&Increment=50&submit=Search

> <Ligand HET ID in PDB>


> <PDB ID(s) for Ligand-Target Complex>


> <PubChem CID of Ligand>
11439

> <PubChem SID of Ligand>
11108588

> <ChEBI ID of Ligand>
9307

> <ChEMBL ID of Ligand>


> <DrugBank ID of Ligand>


> <IUPHAR_GRAC ID of Ligand>


> <KEGG ID of Ligand>
C07273

> <ZINC ID of Ligand>
ZINC05133396

> <Number of Protein Chains in Target (bigger than 1 implies a multichain complex)>
1

> <BindingDB Target Chain Sequence>
MAGEGDQQDAAHNMGNHLPLLPAESEEEDEMEVEDQDSKEAKKPNIINFDTSLPTSHTYLGADMEEFHGRTLHDDDSCQVIPVLPQVMMILIPGQTLPLQLFHPQEVSMVRNLIQKDRTFAVLAYSNVQEREAQFGTTAEIYAYREEQDFGIEIVKVKAIGRQRFKVLELRTQSDGIQQAKVQILPECVLPSTMSAVQLESLNKCQIFPSKPVSREDQCSYKWWQKYQKRKFHCANLTSWPRWLYSLYDAETLMDRIKKQLREWDENLKDDSLPSNPIDFSYRVAACLPIDDVLRIQLLKIGSAIQRLRCELDIMNKCTSLCCKQCQETEITTKNEIFSLSLCGPMAAYVNPHGYVHETLTVYKACNLNLIGRPSTEHSWFPGYAWTVAQCKICASHIGWKFTATKKDMSPQKFWGLTRSALLPTIPDTEDEISPDKVILCL

> <PDB ID(s) of Target Chain>
4TZ4,5HXB,5V3O,6UML,6XK9,7LPS,7U8F,8CVP,8D7U,8D7V,8D7W,8D7X,8D7Y,8D7Z,8D80,8D81,8DEY,8OIZ,8OJH

> <UniProt (SwissProt) Recommended Name of Target Chain>
Protein cereblon

> <UniProt (SwissProt) Entry Name of Target Chain>
CRBN_HUMAN

> <UniProt (SwissProt) Primary ID of Target Chain>
Q96SW2

> <UniProt (SwissProt) Secondary ID(s) of Target Chain>
B2R6H4 C9IZA9 C9JAH6 Q6AI62 Q6NVZ0 Q9UHW4

> <UniProt (SwissProt) Alternative ID(s) of Target Chain>


> <UniProt (TrEMBL) Submitted Name of Target Chain>


> <UniProt (TrEMBL) Entry Name of Target Chain>


> <UniProt (TrEMBL) Primary ID of Target Chain>


> <UniProt (TrEMBL) Secondary ID(s) of Target Chain>


> <UniProt (TrEMBL) Alternative ID(s) of Target Chain>


$$$$
 
     RDKit          2D

 21 23  0  0  0  0  0  0  0  0999 V2000
   -2.8571    0.5935    0.0000 C   0  0  0  0  0  0  0  0  0  0  0  0
   -2.1425    1.0059    0.0000 C   0  0  0  0  0  0  0  0  0  0  0  0
   -1.4306    0.5939    0.0000 C   0  0  0  0  0  0  0  0  0  0  0  0
   -1.4306   -0.2311    0.0000 C   0  0  0  0  0  0  0  0  0  0  0  0
   -2.1407   -0.6429    0.0000 C   0  0  0  0  0  0  0  0  0  0  0  0
   -2.8571   -0.2348    0.0000 C   0  0  0  0  0  0  0  0  0  0  0  0
   -0.7160    1.0066    0.0000 C   0  0  0  0  0  0  0  0  0  0  0  0
   -0.7160    1.8317    0.0000 O   0  0  0  0  0  0  0  0  0  0  0  0
   -0.0013    0.5939    0.0000 N   0  0  0  0  0  0  0  0  0  0  0  0
    0.7131    1.0066    0.0000 C   0  0  0  0  0  0  0  0  0  0  0  0
    0.7131    1.8317    0.0000 C   0  0  0  0  0  0  0  0  0  0  0  0
    1.4278    2.2443    0.0000 C   0  0  0  0  0  0  0  0  0  0  0  0
    2.1425    1.8317    0.0000 C   0  0  0  0  0  0  0  0  0  0  0  0
    2.1425    1.0065    0.0000 N   0  0  0  0  0  0  0  0  0  0  0  0
    1.4278    0.5939    0.0000 C   0  0  0  0  0  0  0  0  0  0  0  0
    1.4278   -0.2311    0.0000 O   0  0  0  0  0  0  0  0  0  0  0  0
    2.8571    2.2443    0.0000 O   0  0  0  0  0  0  0  0  0  0  0  0
   -1.9685   -1.4454    0.0000 C   0  0  0  0  0  0  0  0  0  0  0  0
   -0.8196   -0.7792    0.0000 O   0  0  0  0  0  0  0  0  0  0  0  0
   -1.1520   -1.5297    0.0000 C   0  0  0  0  0  0  0  0  0  0  0  0
   -0.7393   -2.2443    0.0000 C   0  0  0  0  0  0  0  0  0  0  0  0
  2  1  2  0
  3  2  1  0
  4  3  2  0
  5  4  1  0
  6  5  2  0
  1  6  1  0
  3  7  1  0
  7  8  2  0
  7  9  1  0
  9 10  1  0
 11 10  1  0
 12 11  1  0
 13 12  1  0
 14 13  1  0
 15 14  1  0
 10 15  1  0
 15 16  2  0
 13 17  2  0
  5 18  1  0
  4 19  1  0
 19 20  1  0
 20 18  2  0
 20 21  1  0
M  END
> <From>
www.bindingDB.org

> <BindingDB Reactant_set_id>
51567931

> <Ligand InChI>
InChI=1S/C15H14N2O4/c1-8-7-9-3-2-4-10(13(9)21-8)14(19)16-11-5-6-12(18)17-15(11)20/h2-4,7,11H,5-6H2,1H3,(H,16,19)(H,17,18,20)

> <Ligand InChI Key>
LVMVFZVVJVFJKX-UHFFFAOYSA-N

> <BindingDB MonomerID>
50630611

> <BindingDB Ligand Name>
CHEMBL5414968

> <Target Name>
Protein cereblon

> <Target Source Organism According to Curator or DataSource>
Homo sapiens

> <Ki (nM)>


> <IC50 (nM)>
 36000

> <Kd (nM)>


> <EC50 (nM)>


> <kon (M-1-s-1)>


> <koff (s-1)>


> <pH>


> <Temp C>


> <Curation/DataSource>
ChEMBL

> <Article DOI>
10.1021/acs.jmedchem.3c00851

> <BindingDB Entry DOI>
10.7270/Q2PK0MM6

> <PMID>
37902300

> <PubChem AID>


> <Patent Number>


> <Authors>
Steinebach, C; Bricelj, A; Murgai, A; Sosič, I; Bischof, L; Ng, YLD; Heim, C; Maiwald, S; Proj, M; Voget, R; Feller, F; Košmrlj, J; Sapozhnikova, V; Schmidt, A; Zuleeg, MR; Lemnitzer, P; Mertins, P; Hansen, FK; Gütschow, M; Krönke, J; Hartmann, MD

> <Date of publication>
11/9/2023

> <Date in BindingDB>
12/20/2024

> <Institution>
University of Bonn

> <Link to Ligand in BindingDB>
http://www.bindingdb.org/bind/chemsearch/marvin/MolStructure.jsp?monomerid=50630611

> <Link to Ligand-Target Pair in BindingDB>
http://www.bindingdb.org/jsp/dbsearch/PrimarySearch_ki.jsp?energyterm=kJ/mole&tag=pol&polymerid=50007050&target=Protein+cereblon&column=ki&startPg=0&Increment=50&submit=Search

> <Link to Ligand-Target Pair in BindingDB>
http://www.bindingdb.org/jsp/dbsearch/PrimarySearch_ki.jsp?energyterm=kJ/mole&tag=r21&monomerid=50630611&enzyme=Protein+cereblon&column=ki&startPg=0&Increment=50&submit=Search

> <Ligand HET ID in PDB>


> <PDB ID(s) for Ligand-Target Complex>


> <PubChem CID of Ligand>
156408646

> <PubChem SID of Ligand>
505048582

> <ChEBI ID of Ligand>


> <ChEMBL ID of Ligand>


> <DrugBank ID of Ligand>


> <IUPHAR_GRAC ID of Ligand>


> <KEGG ID of Ligand>


> <ZINC ID of Ligand>


> <Number of Protein Chains in Target (bigger than 1 implies a multichain complex)>
1

> <BindingDB Target Chain Sequence>
MAGEGDQQDAAHNMGNHLPLLPAESEEEDEMEVEDQDSKEAKKPNIINFDTSLPTSHTYLGADMEEFHGRTLHDDDSCQVIPVLPQVMMILIPGQTLPLQLFHPQEVSMVRNLIQKDRTFAVLAYSNVQEREAQFGTTAEIYAYREEQDFGIEIVKVKAIGRQRFKVLELRTQSDGIQQAKVQILPECVLPSTMSAVQLESLNKCQIFPSKPVSREDQCSYKWWQKYQKRKFHCANLTSWPRWLYSLYDAETLMDRIKKQLREWDENLKDDSLPSNPIDFSYRVAACLPIDDVLRIQLLKIGSAIQRLRCELDIMNKCTSLCCKQCQETEITTKNEIFSLSLCGPMAAYVNPHGYVHETLTVYKACNLNLIGRPSTEHSWFPGYAWTVAQCKICASHIGWKFTATKKDMSPQKFWGLTRSALLPTIPDTEDEISPDKVILCL

> <PDB ID(s) of Target Chain>
8TNR,8TNQ,8TNP,8D81,8D80,8D7Z,8D7Y,8D7X,8D7W,8D7V,8D7U,8CVP,9DQD,8UH6,6BOY,6BNB,6BN9,6BN8,6BN7,6XK9,6UML,5V3O,5HXB,7U8F,8OJH,8OIZ,7LPS,4TZ4,9DJX,9DJT,8U17,8U16,8U15,8TZX,8DEY,9CUO,4M91

> <UniProt (SwissProt) Recommended Name of Target Chain>
Protein cereblon

> <UniProt (SwissProt) Entry Name of Target Chain>
CRBN_HUMAN

> <UniProt (SwissProt) Primary ID of Target Chain>
Q96SW2

> <UniProt (SwissProt) Secondary ID(s) of Target Chain>
B2R6H4 C9IZA9 C9JAH6 Q6AI62 Q6NVZ0 Q9UHW4

> <UniProt (SwissProt) Alternative ID(s) of Target Chain>


> <UniProt (TrEMBL) Submitted Name of Target Chain>


> <UniProt (TrEMBL) Entry Name of Target Chain>


> <UniProt (TrEMBL) Primary ID of Target Chain>


> <UniProt (TrEMBL) Secondary ID(s) of Target Chain>


> <UniProt (TrEMBL) Alternative ID(s) of Target Chain>


$$$$
216326
  Mrv0541 01031813182D          

 19 21  0  0  1  0            999 V2000
    4.1147   -1.6769    0.0000 O   0  0  0  0  0  0  0  0  0  0  0  0
    5.1652    1.2004    0.0000 O   0  0  0  0  0  0  0  0  0  0  0  0
    7.6402   -0.2289    0.0000 O   0  0  0  0  0  0  0  0  0  0  0  0
    4.3402   -0.2289    0.0000 N   0  0  0  0  0  0  0  0  0  0  0  0
    6.4025    0.4857    0.0000 N   0  0  0  0  0  0  0  0  0  0  0  0
    2.3633    1.4212    0.0000 N   0  0  0  0  0  0  0  0  0  0  0  0
    5.1652   -0.2289    0.0000 C   0  0  0  0  0  0  0  0  0  0  0  0
    5.5775   -0.9433    0.0000 C   0  0  0  0  0  0  0  0  0  0  0  0
    3.8585    0.4351    0.0000 C   0  0  0  0  0  0  0  0  0  0  0  0
    3.0778    0.1836    0.0000 C   0  0  0  0  0  0  0  0  0  0  0  0
    3.8585   -0.8928    0.0000 C   0  0  0  0  0  0  0  0  0  0  0  0
    6.4025   -0.9433    0.0000 C   0  0  0  0  0  0  0  0  0  0  0  0
    3.0778   -0.6414    0.0000 C   0  0  0  0  0  0  0  0  0  0  0  0
    5.5775    0.4857    0.0000 C   0  0  0  0  0  0  0  0  0  0  0  0
    6.8152   -0.2289    0.0000 C   0  0  0  0  0  0  0  0  0  0  0  0
    2.3633    0.5962    0.0000 C   0  0  0  0  0  0  0  0  0  0  0  0
    2.3633   -1.0539    0.0000 C   0  0  0  0  0  0  0  0  0  0  0  0
    1.6488    0.1836    0.0000 C   0  0  0  0  0  0  0  0  0  0  0  0
    1.6488   -0.6414    0.0000 C   0  0  0  0  0  0  0  0  0  0  0  0
  1 11  2  0  0  0  0
  2 14  2  0  0  0  0
  3 15  2  0  0  0  0
  4  7  1  0  0  0  0
  4  9  1  0  0  0  0
  4 11  1  0  0  0  0
  5 14  1  0  0  0  0
  5 15  1  0  0  0  0
  6 16  1  0  0  0  0
  7  8  1  0  0  0  0
  7 14  1  0  0  0  0
  8 12  1  0  0  0  0
  9 10  1  0  0  0  0
 10 13  4  0  0  0  0
 10 16  4  0  0  0  0
 11 13  1  0  0  0  0
 12 15  1  0  0  0  0
 13 17  4  0  0  0  0
 16 18  4  0  0  0  0
 17 19  4  0  0  0  0
 18 19  4  0  0  0  0
M  END
> <From>
www.bindingDB.org

> <BindingDB Reactant_set_id>
51359709

> <Ligand InChI>
InChI=1S/C13H13N3O3/c14-9-3-1-2-7-8(9)6-16(13(7)19)10-4-5-11(17)15-12(10)18/h1-3,10H,4-6,14H2,(H,15,17,18)

> <Ligand InChI Key>
GOTYRUGSSMKFNF-UHFFFAOYSA-N

> <BindingDB MonomerID>
65454

> <BindingDB Ligand Name>
191732-72-6::CC-5013::Lenalidomide::Revimid::Revlimid::US11530219, Compound Lenalidomide::US9694015, 6.1

> <Target Name>
Protein cereblon

> <Target Source Organism According to Curator or DataSource>
Human

> <Ki (nM)>


> <IC50 (nM)>
 37800

> <Kd (nM)>


> <EC50 (nM)>


> <kon (M-1-s-1)>


> <koff (s-1)>


> <pH>


> <Temp C>


> <Curation/DataSource>
ChEMBL

> <Article DOI>
10.1021/acsmedchemlett.0c00440

> <BindingDB Entry DOI>
10.7270/Q2WM1J1B

> <PMID>
33488967

> <PubChem AID>


> <Patent Number>


> <Authors>
Maiwald, S; Heim, C; Hernandez Alvarez, B; Hartmann, MD

> <Date of publication>
1/14/2021

> <Date in BindingDB>
3/23/2022

> <Institution>
Max Planck Institute for Developmental Biology

> <Link to Ligand in BindingDB>
http://www.bindingdb.org/bind/chemsearch/marvin/MolStructure.jsp?monomerid=65454

> <Link to Ligand-Target Pair in BindingDB>
http://www.bindingdb.org/jsp/dbsearch/PrimarySearch_ki.jsp?energyterm=kJ/mole&tag=pol&polymerid=50007050&target=Protein+cereblon&column=ki&startPg=0&Increment=50&submit=Search

> <Link to Ligand-Target Pair in BindingDB>
http://www.bindingdb.org/jsp/dbsearch/PrimarySearch_ki.jsp?energyterm=kJ/mole&tag=r21&monomerid=65454&enzyme=Protein+cereblon&column=ki&startPg=0&Increment=50&submit=Search

> <Ligand HET ID in PDB>
LVY

> <PDB ID(s) for Ligand-Target Complex>
4CI2,5FQD,4V30,4TZ4

> <PubChem CID of Ligand>
216326

> <PubChem SID of Ligand>
350083085

> <ChEBI ID of Ligand>


> <ChEMBL ID of Ligand>


> <DrugBank ID of Ligand>
DB00480

> <IUPHAR_GRAC ID of Ligand>


> <KEGG ID of Ligand>


> <ZINC ID of Ligand>
ZINC02508407

> <Number of Protein Chains in Target (bigger than 1 implies a multichain complex)>
1

> <BindingDB Target Chain Sequence>
MAGEGDQQDAAHNMGNHLPLLPAESEEEDEMEVEDQDSKEAKKPNIINFDTSLPTSHTYLGADMEEFHGRTLHDDDSCQVIPVLPQVMMILIPGQTLPLQLFHPQEVSMVRNLIQKDRTFAVLAYSNVQEREAQFGTTAEIYAYREEQDFGIEIVKVKAIGRQRFKVLELRTQSDGIQQAKVQILPECVLPSTMSAVQLESLNKCQIFPSKPVSREDQCSYKWWQKYQKRKFHCANLTSWPRWLYSLYDAETLMDRIKKQLREWDENLKDDSLPSNPIDFSYRVAACLPIDDVLRIQLLKIGSAIQRLRCELDIMNKCTSLCCKQCQETEITTKNEIFSLSLCGPMAAYVNPHGYVHETLTVYKACNLNLIGRPSTEHSWFPGYAWTVAQCKICASHIGWKFTATKKDMSPQKFWGLTRSALLPTIPDTEDEISPDKVILCL

> <PDB ID(s) of Target Chain>
4TZ4,5HXB,5V3O,6UML,6XK9,7LPS,7U8F,8CVP,8D7U,8D7V,8D7W,8D7X,8D7Y,8D7Z,8D80,8D81,8DEY,8OIZ,8OJH

> <UniProt (SwissProt) Recommended Name of Target Chain>
Protein cereblon

> <UniProt (SwissProt) Entry Name of Target Chain>
CRBN_HUMAN

> <UniProt (SwissProt) Primary ID of Target Chain>
Q96SW2

> <UniProt (SwissProt) Secondary ID(s) of Target Chain>
B2R6H4 C9IZA9 C9JAH6 Q6AI62 Q6NVZ0 Q9UHW4

> <UniProt (SwissProt) Alternative ID(s) of Target Chain>


> <UniProt (TrEMBL) Submitted Name of Target Chain>


> <UniProt (TrEMBL) Entry Name of Target Chain>


> <UniProt (TrEMBL) Primary ID of Target Chain>


> <UniProt (TrEMBL) Secondary ID(s) of Target Chain>


> <UniProt (TrEMBL) Alternative ID(s) of Target Chain>


$$$$
00021001.cdx
  Mrv0541 01191812422D          

 21 23  0  0  0  0            999 V2000
   -1.4289    0.2062    0.0000 C   0  0  0  0  0  0  0  0  0  0  0  0
   -1.4289    1.0313    0.0000 C   0  0  0  0  0  0  0  0  0  0  0  0
   -2.1434    1.4437    0.0000 C   0  0  0  0  0  0  0  0  0  0  0  0
   -2.8581    1.0313    0.0000 C   0  0  0  0  0  0  0  0  0  0  0  0
   -2.8581    0.2062    0.0000 C   0  0  0  0  0  0  0  0  0  0  0  0
   -2.1434   -0.2062    0.0000 C   0  0  0  0  0  0  0  0  0  0  0  0
   -0.7145   -0.2062    0.0000 C   0  0  0  0  0  0  0  0  0  0  0  0
    0.0000    0.2062    0.0000 N   0  0  0  0  0  0  0  0  0  0  0  0
    0.0000    1.0313    0.0000 C   0  0  0  0  0  0  0  0  0  0  0  0
   -0.7145    1.4437    0.0000 N   0  0  0  0  0  0  0  0  0  0  0  0
    0.7145   -0.2062    0.0000 C   0  0  0  0  0  0  0  0  0  0  0  0
    0.7145   -1.0313    0.0000 C   0  0  0  0  0  0  0  0  0  0  0  0
    1.4289   -1.4437    0.0000 N   0  0  0  0  0  0  0  0  0  0  0  0
    2.1434   -1.0313    0.0000 C   0  0  0  0  0  0  0  0  0  0  0  0
    2.1434   -0.2062    0.0000 C   0  0  0  0  0  0  0  0  0  0  0  0
    1.4289    0.2062    0.0000 C   0  0  0  0  0  0  0  0  0  0  0  0
    0.0000   -1.4437    0.0000 O   0  0  0  0  0  0  0  0  0  0  0  0
    2.8581   -1.4437    0.0000 O   0  0  0  0  0  0  0  0  0  0  0  0
   -0.7145   -1.0313    0.0000 O   0  0  0  0  0  0  0  0  0  0  0  0
   -2.1434   -1.0313    0.0000 N   0  0  0  0  0  0  0  0  0  0  0  0
    0.7145    1.4437    0.0000 C   0  0  0  0  0  0  0  0  0  0  0  0
  1  2  4  0  0  0  0
  2  3  4  0  0  0  0
  3  4  4  0  0  0  0
  4  5  4  0  0  0  0
  5  6  4  0  0  0  0
  6  1  4  0  0  0  0
  1  7  4  0  0  0  0
  7  8  4  0  0  0  0
  8  9  4  0  0  0  0
  9 10  4  0  0  0  0
 10  2  4  0  0  0  0
  8 11  1  0  0  0  0
 11 12  1  0  0  0  0
 12 13  1  0  0  0  0
 13 14  1  0  0  0  0
 14 15  1  0  0  0  0
 15 16  1  0  0  0  0
 16 11  1  0  0  0  0
 12 17  2  0  0  0  0
 14 18  2  0  0  0  0
  7 19  2  0  0  0  0
  6 20  1  0  0  0  0
  9 21  1  0  0  0  0
M  END
> <From>
www.bindingDB.org

> <BindingDB Reactant_set_id>
51359711

> <Ligand InChI>
InChI=1S/C14H14N4O3/c1-7-16-9-4-2-3-8(15)12(9)14(21)18(7)10-5-6-11(19)17-13(10)20/h2-4,10H,5-6,15H2,1H3,(H,17,19,20)

> <Ligand InChI Key>
RSNPAKAFCAAMBH-UHFFFAOYSA-N

> <BindingDB MonomerID>
76986

> <BindingDB Ligand Name>
3-(5-amino-2-methyl-4-oxo-4H-quinazolin-3-yl)-piperidine-2,6-dione::US11059801, Compound D-17::US9694015, Compound A

> <Target Name>
Protein cereblon

> <Target Source Organism According to Curator or DataSource>
Human

> <Ki (nM)>


> <IC50 (nM)>
 38700

> <Kd (nM)>


> <EC50 (nM)>


> <kon (M-1-s-1)>


> <koff (s-1)>


> <pH>


> <Temp C>


> <Curation/DataSource>
ChEMBL

> <Article DOI>
10.1021/acsmedchemlett.0c00440

> <BindingDB Entry DOI>
10.7270/Q2WM1J1B

> <PMID>
33488967

> <PubChem AID>


> <Patent Number>


> <Authors>
Maiwald, S; Heim, C; Hernandez Alvarez, B; Hartmann, MD

> <Date of publication>
1/14/2021

> <Date in BindingDB>
3/23/2022

> <Institution>
Max Planck Institute for Developmental Biology

> <Link to Ligand in BindingDB>
http://www.bindingdb.org/bind/chemsearch/marvin/MolStructure.jsp?monomerid=76986

> <Link to Ligand-Target Pair in BindingDB>
http://www.bindingdb.org/jsp/dbsearch/PrimarySearch_ki.jsp?energyterm=kJ/mole&tag=pol&polymerid=50007050&target=Protein+cereblon&column=ki&startPg=0&Increment=50&submit=Search

> <Link to Ligand-Target Pair in BindingDB>
http://www.bindingdb.org/jsp/dbsearch/PrimarySearch_ki.jsp?energyterm=kJ/mole&tag=r21&monomerid=76986&enzyme=Protein+cereblon&column=ki&startPg=0&Increment=50&submit=Search

> <Ligand HET ID in PDB>
835

> <PDB ID(s) for Ligand-Target Complex>
7PSO

> <PubChem CID of Ligand>
24967599

> <PubChem SID of Ligand>
354327359

> <ChEBI ID of Ligand>


> <ChEMBL ID of Ligand>


> <DrugBank ID of Ligand>


> <IUPHAR_GRAC ID of Ligand>


> <KEGG ID of Ligand>


> <ZINC ID of Ligand>
ZINC04197025

> <Number of Protein Chains in Target (bigger than 1 implies a multichain complex)>
1

> <BindingDB Target Chain Sequence>
MAGEGDQQDAAHNMGNHLPLLPAESEEEDEMEVEDQDSKEAKKPNIINFDTSLPTSHTYLGADMEEFHGRTLHDDDSCQVIPVLPQVMMILIPGQTLPLQLFHPQEVSMVRNLIQKDRTFAVLAYSNVQEREAQFGTTAEIYAYREEQDFGIEIVKVKAIGRQRFKVLELRTQSDGIQQAKVQILPECVLPSTMSAVQLESLNKCQIFPSKPVSREDQCSYKWWQKYQKRKFHCANLTSWPRWLYSLYDAETLMDRIKKQLREWDENLKDDSLPSNPIDFSYRVAACLPIDDVLRIQLLKIGSAIQRLRCELDIMNKCTSLCCKQCQETEITTKNEIFSLSLCGPMAAYVNPHGYVHETLTVYKACNLNLIGRPSTEHSWFPGYAWTVAQCKICASHIGWKFTATKKDMSPQKFWGLTRSALLPTIPDTEDEISPDKVILCL

> <PDB ID(s) of Target Chain>
4TZ4,5HXB,5V3O,6UML,6XK9,7LPS,7U8F,8CVP,8D7U,8D7V,8D7W,8D7X,8D7Y,8D7Z,8D80,8D81,8DEY,8OIZ,8OJH

> <UniProt (SwissProt) Recommended Name of Target Chain>
Protein cereblon

> <UniProt (SwissProt) Entry Name of Target Chain>
CRBN_HUMAN

> <UniProt (SwissProt) Primary ID of Target Chain>
Q96SW2

> <UniProt (SwissProt) Secondary ID(s) of Target Chain>
B2R6H4 C9IZA9 C9JAH6 Q6AI62 Q6NVZ0 Q9UHW4

> <UniProt (SwissProt) Alternative ID(s) of Target Chain>


> <UniProt (TrEMBL) Submitted Name of Target Chain>


> <UniProt (TrEMBL) Entry Name of Target Chain>


> <UniProt (TrEMBL) Primary ID of Target Chain>


> <UniProt (TrEMBL) Secondary ID(s) of Target Chain>


> <UniProt (TrEMBL) Alternative ID(s) of Target Chain>


$$$$
 
     RDKit          2D

 18 19  0  0  0  0  0  0  0  0999 V2000
   -3.2011    0.8213    0.0000 C   0  0  0  0  0  0  0  0  0  0  0  0
   -3.2011   -0.0036    0.0000 C   0  0  0  0  0  0  0  0  0  0  0  0
   -2.4878   -0.4100    0.0000 C   0  0  0  0  0  0  0  0  0  0  0  0
   -1.7806    0.0000    0.0000 C   0  0  0  0  0  0  0  0  0  0  0  0
   -1.7806    0.8216    0.0000 C   0  0  0  0  0  0  0  0  0  0  0  0
   -2.4895    1.2320    0.0000 C   0  0  0  0  0  0  0  0  0  0  0  0
   -1.0688   -0.4107    0.0000 C   0  0  0  0  0  0  0  0  0  0  0  0
   -0.3572    0.0000    0.0000 C   0  0  0  0  0  0  0  0  0  0  0  0
    0.3544   -0.4107    0.0000 N   0  0  0  0  0  0  0  0  0  0  0  0
    1.0661    0.0000    0.0000 C   0  0  0  0  0  0  0  0  0  0  0  0
    1.0661    0.8216    0.0000 C   0  0  0  0  0  0  0  0  0  0  0  0
    1.7778    1.2326    0.0000 C   0  0  0  0  0  0  0  0  0  0  0  0
    2.4895    0.8216    0.0000 C   0  0  0  0  0  0  0  0  0  0  0  0
    2.4895    0.0000    0.0000 N   0  0  0  0  0  0  0  0  0  0  0  0
    1.7778   -0.4107    0.0000 C   0  0  0  0  0  0  0  0  0  0  0  0
    1.7778   -1.2326    0.0000 O   0  0  0  0  0  0  0  0  0  0  0  0
    3.2011    1.2326    0.0000 O   0  0  0  0  0  0  0  0  0  0  0  0
   -0.3572    0.8216    0.0000 O   0  0  0  0  0  0  0  0  0  0  0  0
  1  2  1  0
  2  3  2  0
  3  4  1  0
  4  5  2  0
  5  6  1  0
  6  1  2  0
  4  7  1  0
  7  8  1  0
  8  9  1  0
  9 10  1  0
 11 10  1  0
 12 11  1  0
 13 12  1  0
 14 13  1  0
 15 14  1  0
 10 15  1  0
 15 16  2  0
 13 17  2  0
  8 18  2  0
M  END
> <From>
www.bindingDB.org

> <BindingDB Reactant_set_id>
51570914

> <Ligand InChI>
InChI=1S/C13H14N2O3/c16-11-7-6-10(13(18)15-11)14-12(17)8-9-4-2-1-3-5-9/h1-5,10H,6-8H2,(H,14,17)(H,15,16,18)

> <Ligand InChI Key>
OQGRFQCUGLKSAV-UHFFFAOYSA-N

> <BindingDB MonomerID>
50631797

> <BindingDB Ligand Name>
CHEMBL5399582

> <Target Name>
Protein cereblon

> <Target Source Organism According to Curator or DataSource>
Homo sapiens

> <Ki (nM)>


> <IC50 (nM)>
>50000

> <Kd (nM)>


> <EC50 (nM)>


> <kon (M-1-s-1)>


> <koff (s-1)>


> <pH>


> <Temp C>


> <Curation/DataSource>
ChEMBL

> <Article DOI>
10.1039/d3md00652b

> <BindingDB Entry DOI>
10.7270/Q2CV4P64

> <PMID>
38389883

> <PubChem AID>


> <Patent Number>


> <Authors>
Liu, Y; Nowak, RP; Che, J; Donovan, KA; Huerta, F; Liu, H; Metivier, RJ; Fischer, ES; Jones, LH

> <Date of publication>
2/21/2024

> <Date in BindingDB>
12/21/2024

> <Institution>
Dana-Farber Cancer Institute

> <Link to Ligand in BindingDB>
http://www.bindingdb.org/bind/chemsearch/marvin/MolStructure.jsp?monomerid=50631797

> <Link to Ligand-Target Pair in BindingDB>
http://www.bindingdb.org/jsp/dbsearch/PrimarySearch_ki.jsp?energyterm=kJ/mole&tag=pol&polymerid=50007050&target=Protein+cereblon&column=ki&startPg=0&Increment=50&submit=Search

> <Link to Ligand-Target Pair in BindingDB>
http://www.bindingdb.org/jsp/dbsearch/PrimarySearch_ki.jsp?energyterm=kJ/mole&tag=r21&monomerid=50631797&enzyme=Protein+cereblon&column=ki&startPg=0&Increment=50&submit=Search

> <Ligand HET ID in PDB>


> <PDB ID(s) for Ligand-Target Complex>


> <PubChem CID of Ligand>
157096

> <PubChem SID of Ligand>
505036131

> <ChEBI ID of Ligand>


> <ChEMBL ID of Ligand>


> <DrugBank ID of Ligand>


> <IUPHAR_GRAC ID of Ligand>


> <KEGG ID of Ligand>


> <ZINC ID of Ligand>


> <Number of Protein Chains in Target (bigger than 1 implies a multichain complex)>
1

> <BindingDB Target Chain Sequence>
MAGEGDQQDAAHNMGNHLPLLPAESEEEDEMEVEDQDSKEAKKPNIINFDTSLPTSHTYLGADMEEFHGRTLHDDDSCQVIPVLPQVMMILIPGQTLPLQLFHPQEVSMVRNLIQKDRTFAVLAYSNVQEREAQFGTTAEIYAYREEQDFGIEIVKVKAIGRQRFKVLELRTQSDGIQQAKVQILPECVLPSTMSAVQLESLNKCQIFPSKPVSREDQCSYKWWQKYQKRKFHCANLTSWPRWLYSLYDAETLMDRIKKQLREWDENLKDDSLPSNPIDFSYRVAACLPIDDVLRIQLLKIGSAIQRLRCELDIMNKCTSLCCKQCQETEITTKNEIFSLSLCGPMAAYVNPHGYVHETLTVYKACNLNLIGRPSTEHSWFPGYAWTVAQCKICASHIGWKFTATKKDMSPQKFWGLTRSALLPTIPDTEDEISPDKVILCL

> <PDB ID(s) of Target Chain>
8TNR,8TNQ,8TNP,8D81,8D80,8D7Z,8D7Y,8D7X,8D7W,8D7V,8D7U,8CVP,9DQD,8UH6,6BOY,6BNB,6BN9,6BN8,6BN7,6XK9,6UML,5V3O,5HXB,7U8F,8OJH,8OIZ,7LPS,4TZ4,9DJX,9DJT,8U17,8U16,8U15,8TZX,8DEY,9CUO,4M91

> <UniProt (SwissProt) Recommended Name of Target Chain>
Protein cereblon

> <UniProt (SwissProt) Entry Name of Target Chain>
CRBN_HUMAN

> <UniProt (SwissProt) Primary ID of Target Chain>
Q96SW2

> <UniProt (SwissProt) Secondary ID(s) of Target Chain>
B2R6H4 C9IZA9 C9JAH6 Q6AI62 Q6NVZ0 Q9UHW4

> <UniProt (SwissProt) Alternative ID(s) of Target Chain>


> <UniProt (TrEMBL) Submitted Name of Target Chain>


> <UniProt (TrEMBL) Entry Name of Target Chain>


> <UniProt (TrEMBL) Primary ID of Target Chain>


> <UniProt (TrEMBL) Secondary ID(s) of Target Chain>


> <UniProt (TrEMBL) Alternative ID(s) of Target Chain>


$$$$
 
     RDKit          2D

 27 28  0  0  0  0  0  0  0  0999 V2000
    0.7159    0.6200    0.0000 C   0  0  0  0  0  0  0  0  0  0  0  0
    0.0013    0.2077    0.0000 C   0  0  0  0  0  0  0  0  0  0  0  0
    0.0013   -0.6207    0.0000 C   0  0  0  0  0  0  0  0  0  0  0  0
    0.7178   -1.0288    0.0000 C   0  0  0  0  0  0  0  0  0  0  0  0
    1.4279   -0.6170    0.0000 C   0  0  0  0  0  0  0  0  0  0  0  0
    1.4279    0.2081    0.0000 C   0  0  0  0  0  0  0  0  0  0  0  0
    2.1425    0.6207    0.0000 C   0  0  0  0  0  0  0  0  0  0  0  0
    2.1425    1.4459    0.0000 O   0  0  0  0  0  0  0  0  0  0  0  0
    2.8571    0.2081    0.0000 N   0  0  0  0  0  0  0  0  0  0  0  0
    3.5718    0.6207    0.0000 C   0  0  0  0  0  0  0  0  0  0  0  0
    3.5717    1.4459    0.0000 C   0  0  0  0  0  0  0  0  0  0  0  0
    4.2864    1.8585    0.0000 C   0  0  0  0  0  0  0  0  0  0  0  0
    5.0010    1.4459    0.0000 C   0  0  0  0  0  0  0  0  0  0  0  0
    5.0010    0.6207    0.0000 N   0  0  0  0  0  0  0  0  0  0  0  0
    4.2864    0.2081    0.0000 C   0  0  0  0  0  0  0  0  0  0  0  0
    4.2864   -0.6170    0.0000 O   0  0  0  0  0  0  0  0  0  0  0  0
    5.7156    1.8585    0.0000 O   0  0  0  0  0  0  0  0  0  0  0  0
    2.1425   -1.0295    0.0000 F   0  0  0  0  0  0  0  0  0  0  0  0
   -0.7131   -1.0331    0.0000 N   0  0  0  0  0  0  0  0  0  0  0  0
   -1.4278   -0.6207    0.0000 C   0  0  0  0  0  0  0  0  0  0  0  0
   -2.1425   -1.0331    0.0000 C   0  0  0  0  0  0  0  0  0  0  0  0
   -2.8571   -0.6207    0.0000 N   0  0  0  0  0  0  0  0  0  0  0  0
   -2.1425   -1.8585    0.0000 O   0  0  0  0  0  0  0  0  0  0  0  0
   -3.5717   -1.0331    0.0000 C   0  0  0  0  0  0  0  0  0  0  0  0
   -4.2864   -0.6207    0.0000 C   0  0  0  0  0  0  0  0  0  0  0  0
   -5.0010   -1.0331    0.0000 C   0  0  0  0  0  0  0  0  0  0  0  0
   -5.7156   -0.6207    0.0000 C   0  0  0  0  0  0  0  0  0  0  0  0
  1  2  2  0
  2  3  1  0
  4  3  2  0
  5  4  1  0
  6  5  2  0
  1  6  1  0
  6  7  1  0
  7  8  2  0
  7  9  1  0
  9 10  1  0
 10 11  1  0
 11 12  1  0
 12 13  1  0
 13 14  1  0
 14 15  1  0
 10 15  1  0
 15 16  2  0
 13 17  2  0
  5 18  1  0
  3 19  1  0
 19 20  1  0
 20 21  1  0
 21 22  1  0
 21 23  2  0
 22 24  1  0
 24 25  1  0
 25 26  1  0
 26 27  1  0
M  END
> <From>
www.bindingDB.org

> <BindingDB Reactant_set_id>
51567923

> <Ligand InChI>
InChI=1S/C18H23FN4O4/c1-2-3-8-20-16(25)10-21-11-4-5-12(13(19)9-11)17(26)22-14-6-7-15(24)23-18(14)27/h4-5,9,14,21H,2-3,6-8,10H2,1H3,(H,20,25)(H,22,26)(H,23,24,27)

> <Ligand InChI Key>
DALJORPGDUPLPV-UHFFFAOYSA-N

> <BindingDB MonomerID>
50630603

> <BindingDB Ligand Name>
CHEMBL5430307

> <Target Name>
Protein cereblon

> <Target Source Organism According to Curator or DataSource>
Homo sapiens

> <Ki (nM)>


> <IC50 (nM)>
 55000

> <Kd (nM)>


> <EC50 (nM)>


> <kon (M-1-s-1)>


> <koff (s-1)>


> <pH>


> <Temp C>


> <Curation/DataSource>
ChEMBL

> <Article DOI>
10.1021/acs.jmedchem.3c00851

> <BindingDB Entry DOI>
10.7270/Q2PK0MM6

> <PMID>
37902300

> <PubChem AID>


> <Patent Number>


> <Authors>
Steinebach, C; Bricelj, A; Murgai, A; Sosič, I; Bischof, L; Ng, YLD; Heim, C; Maiwald, S; Proj, M; Voget, R; Feller, F; Košmrlj, J; Sapozhnikova, V; Schmidt, A; Zuleeg, MR; Lemnitzer, P; Mertins, P; Hansen, FK; Gütschow, M; Krönke, J; Hartmann, MD

> <Date of publication>
11/9/2023

> <Date in BindingDB>
12/20/2024

> <Institution>
University of Bonn

> <Link to Ligand in BindingDB>
http://www.bindingdb.org/bind/chemsearch/marvin/MolStructure.jsp?monomerid=50630603

> <Link to Ligand-Target Pair in BindingDB>
http://www.bindingdb.org/jsp/dbsearch/PrimarySearch_ki.jsp?energyterm=kJ/mole&tag=pol&polymerid=50007050&target=Protein+cereblon&column=ki&startPg=0&Increment=50&submit=Search

> <Link to Ligand-Target Pair in BindingDB>
http://www.bindingdb.org/jsp/dbsearch/PrimarySearch_ki.jsp?energyterm=kJ/mole&tag=r21&monomerid=50630603&enzyme=Protein+cereblon&column=ki&startPg=0&Increment=50&submit=Search

> <Ligand HET ID in PDB>


> <PDB ID(s) for Ligand-Target Complex>


> <PubChem CID of Ligand>
172467732

> <PubChem SID of Ligand>
505048574

> <ChEBI ID of Ligand>


> <ChEMBL ID of Ligand>


> <DrugBank ID of Ligand>


> <IUPHAR_GRAC ID of Ligand>


> <KEGG ID of Ligand>


> <ZINC ID of Ligand>


> <Number of Protein Chains in Target (bigger than 1 implies a multichain complex)>
1

> <BindingDB Target Chain Sequence>
MAGEGDQQDAAHNMGNHLPLLPAESEEEDEMEVEDQDSKEAKKPNIINFDTSLPTSHTYLGADMEEFHGRTLHDDDSCQVIPVLPQVMMILIPGQTLPLQLFHPQEVSMVRNLIQKDRTFAVLAYSNVQEREAQFGTTAEIYAYREEQDFGIEIVKVKAIGRQRFKVLELRTQSDGIQQAKVQILPECVLPSTMSAVQLESLNKCQIFPSKPVSREDQCSYKWWQKYQKRKFHCANLTSWPRWLYSLYDAETLMDRIKKQLREWDENLKDDSLPSNPIDFSYRVAACLPIDDVLRIQLLKIGSAIQRLRCELDIMNKCTSLCCKQCQETEITTKNEIFSLSLCGPMAAYVNPHGYVHETLTVYKACNLNLIGRPSTEHSWFPGYAWTVAQCKICASHIGWKFTATKKDMSPQKFWGLTRSALLPTIPDTEDEISPDKVILCL

> <PDB ID(s) of Target Chain>
8TNR,8TNQ,8TNP,8D81,8D80,8D7Z,8D7Y,8D7X,8D7W,8D7V,8D7U,8CVP,9DQD,8UH6,6BOY,6BNB,6BN9,6BN8,6BN7,6XK9,6UML,5V3O,5HXB,7U8F,8OJH,8OIZ,7LPS,4TZ4,9DJX,9DJT,8U17,8U16,8U15,8TZX,8DEY,9CUO,4M91

> <UniProt (SwissProt) Recommended Name of Target Chain>
Protein cereblon

> <UniProt (SwissProt) Entry Name of Target Chain>
CRBN_HUMAN

> <UniProt (SwissProt) Primary ID of Target Chain>
Q96SW2

> <UniProt (SwissProt) Secondary ID(s) of Target Chain>
B2R6H4 C9IZA9 C9JAH6 Q6AI62 Q6NVZ0 Q9UHW4

> <UniProt (SwissProt) Alternative ID(s) of Target Chain>


> <UniProt (TrEMBL) Submitted Name of Target Chain>


> <UniProt (TrEMBL) Entry Name of Target Chain>


> <UniProt (TrEMBL) Primary ID of Target Chain>


> <UniProt (TrEMBL) Secondary ID(s) of Target Chain>


> <UniProt (TrEMBL) Alternative ID(s) of Target Chain>


$$$$
 
     RDKit          2D

 19 20  0  0  0  0  0  0  0  0999 V2000
   -1.7852    0.2074    0.0000 C   0  0  0  0  0  0  0  0  0  0  0  0
   -2.4998   -0.2048    0.0000 C   0  0  0  0  0  0  0  0  0  0  0  0
   -2.4998   -1.0332    0.0000 C   0  0  0  0  0  0  0  0  0  0  0  0
   -1.7833   -1.4413    0.0000 C   0  0  0  0  0  0  0  0  0  0  0  0
   -1.0733   -1.0295    0.0000 C   0  0  0  0  0  0  0  0  0  0  0  0
   -1.0733   -0.2044    0.0000 C   0  0  0  0  0  0  0  0  0  0  0  0
   -0.3586    0.2081    0.0000 C   0  0  0  0  0  0  0  0  0  0  0  0
   -0.3586    1.0333    0.0000 O   0  0  0  0  0  0  0  0  0  0  0  0
    0.3559   -0.2044    0.0000 N   0  0  0  0  0  0  0  0  0  0  0  0
    1.0705    0.2081    0.0000 C   0  0  0  0  0  0  0  0  0  0  0  0
    1.0705    1.0333    0.0000 C   0  0  0  0  0  0  0  0  0  0  0  0
    1.7852    1.4459    0.0000 C   0  0  0  0  0  0  0  0  0  0  0  0
    2.4998    1.0332    0.0000 C   0  0  0  0  0  0  0  0  0  0  0  0
    2.4998    0.2081    0.0000 N   0  0  0  0  0  0  0  0  0  0  0  0
    1.7852   -0.2044    0.0000 C   0  0  0  0  0  0  0  0  0  0  0  0
    1.7852   -1.0295    0.0000 O   0  0  0  0  0  0  0  0  0  0  0  0
    3.2144    1.4459    0.0000 O   0  0  0  0  0  0  0  0  0  0  0  0
   -3.2144   -1.4459    0.0000 N   0  0  0  0  0  0  0  0  0  0  0  0
   -0.3586   -1.4422    0.0000 Cl  0  0  0  0  0  0  0  0  0  0  0  0
  1  2  2  0
  2  3  1  0
  4  3  2  0
  5  4  1  0
  6  5  2  0
  1  6  1  0
  6  7  1  0
  7  8  2  0
  7  9  1  0
  9 10  1  0
 10 11  1  0
 11 12  1  0
 12 13  1  0
 13 14  1  0
 14 15  1  0
 10 15  1  0
 15 16  2  0
 13 17  2  0
  3 18  1  0
  5 19  1  0
M  END
> <From>
www.bindingDB.org

> <BindingDB Reactant_set_id>
51567916

> <Ligand InChI>
InChI=1S/C12H12ClN3O3/c13-8-5-6(14)1-2-7(8)11(18)15-9-3-4-10(17)16-12(9)19/h1-2,5,9H,3-4,14H2,(H,15,18)(H,16,17,19)

> <Ligand InChI Key>
ODBDBMXVJIBLEY-UHFFFAOYSA-N

> <BindingDB MonomerID>
50630596

> <BindingDB Ligand Name>
CHEMBL5405702

> <Target Name>
Protein cereblon

> <Target Source Organism According to Curator or DataSource>
Homo sapiens

> <Ki (nM)>


> <IC50 (nM)>
 60000

> <Kd (nM)>


> <EC50 (nM)>


> <kon (M-1-s-1)>


> <koff (s-1)>


> <pH>


> <Temp C>


> <Curation/DataSource>
ChEMBL

> <Article DOI>
10.1021/acs.jmedchem.3c00851

> <BindingDB Entry DOI>
10.7270/Q2PK0MM6

> <PMID>
37902300

> <PubChem AID>


> <Patent Number>


> <Authors>
Steinebach, C; Bricelj, A; Murgai, A; Sosič, I; Bischof, L; Ng, YLD; Heim, C; Maiwald, S; Proj, M; Voget, R; Feller, F; Košmrlj, J; Sapozhnikova, V; Schmidt, A; Zuleeg, MR; Lemnitzer, P; Mertins, P; Hansen, FK; Gütschow, M; Krönke, J; Hartmann, MD

> <Date of publication>
11/9/2023

> <Date in BindingDB>
12/20/2024

> <Institution>
University of Bonn

> <Link to Ligand in BindingDB>
http://www.bindingdb.org/bind/chemsearch/marvin/MolStructure.jsp?monomerid=50630596

> <Link to Ligand-Target Pair in BindingDB>
http://www.bindingdb.org/jsp/dbsearch/PrimarySearch_ki.jsp?energyterm=kJ/mole&tag=pol&polymerid=50007050&target=Protein+cereblon&column=ki&startPg=0&Increment=50&submit=Search

> <Link to Ligand-Target Pair in BindingDB>
http://www.bindingdb.org/jsp/dbsearch/PrimarySearch_ki.jsp?energyterm=kJ/mole&tag=r21&monomerid=50630596&enzyme=Protein+cereblon&column=ki&startPg=0&Increment=50&submit=Search

> <Ligand HET ID in PDB>
W2F    

> <PDB ID(s) for Ligand-Target Complex>
8OU4

> <PubChem CID of Ligand>
65955448

> <PubChem SID of Ligand>
505048567

> <ChEBI ID of Ligand>


> <ChEMBL ID of Ligand>


> <DrugBank ID of Ligand>


> <IUPHAR_GRAC ID of Ligand>


> <KEGG ID of Ligand>


> <ZINC ID of Ligand>


> <Number of Protein Chains in Target (bigger than 1 implies a multichain complex)>
1

> <BindingDB Target Chain Sequence>
MAGEGDQQDAAHNMGNHLPLLPAESEEEDEMEVEDQDSKEAKKPNIINFDTSLPTSHTYLGADMEEFHGRTLHDDDSCQVIPVLPQVMMILIPGQTLPLQLFHPQEVSMVRNLIQKDRTFAVLAYSNVQEREAQFGTTAEIYAYREEQDFGIEIVKVKAIGRQRFKVLELRTQSDGIQQAKVQILPECVLPSTMSAVQLESLNKCQIFPSKPVSREDQCSYKWWQKYQKRKFHCANLTSWPRWLYSLYDAETLMDRIKKQLREWDENLKDDSLPSNPIDFSYRVAACLPIDDVLRIQLLKIGSAIQRLRCELDIMNKCTSLCCKQCQETEITTKNEIFSLSLCGPMAAYVNPHGYVHETLTVYKACNLNLIGRPSTEHSWFPGYAWTVAQCKICASHIGWKFTATKKDMSPQKFWGLTRSALLPTIPDTEDEISPDKVILCL

> <PDB ID(s) of Target Chain>
8TNR,8TNQ,8TNP,8D81,8D80,8D7Z,8D7Y,8D7X,8D7W,8D7V,8D7U,8CVP,9DQD,8UH6,6BOY,6BNB,6BN9,6BN8,6BN7,6XK9,6UML,5V3O,5HXB,7U8F,8OJH,8OIZ,7LPS,4TZ4,9DJX,9DJT,8U17,8U16,8U15,8TZX,8DEY,9CUO,4M91

> <UniProt (SwissProt) Recommended Name of Target Chain>
Protein cereblon

> <UniProt (SwissProt) Entry Name of Target Chain>
CRBN_HUMAN

> <UniProt (SwissProt) Primary ID of Target Chain>
Q96SW2

> <UniProt (SwissProt) Secondary ID(s) of Target Chain>
B2R6H4 C9IZA9 C9JAH6 Q6AI62 Q6NVZ0 Q9UHW4

> <UniProt (SwissProt) Alternative ID(s) of Target Chain>


> <UniProt (TrEMBL) Submitted Name of Target Chain>


> <UniProt (TrEMBL) Entry Name of Target Chain>


> <UniProt (TrEMBL) Primary ID of Target Chain>


> <UniProt (TrEMBL) Secondary ID(s) of Target Chain>


> <UniProt (TrEMBL) Alternative ID(s) of Target Chain>


$$$$
 
     RDKit          2D

 23 24  0  0  0  0  0  0  0  0999 V2000
   -1.0705    1.4452    0.0000 C   0  0  0  0  0  0  0  0  0  0  0  0
   -1.7851    1.0329    0.0000 C   0  0  0  0  0  0  0  0  0  0  0  0
   -1.7851    0.2044    0.0000 C   0  0  0  0  0  0  0  0  0  0  0  0
   -1.0688   -0.2036    0.0000 C   0  0  0  0  0  0  0  0  0  0  0  0
   -0.3586    0.2081    0.0000 C   0  0  0  0  0  0  0  0  0  0  0  0
   -0.3586    1.0333    0.0000 C   0  0  0  0  0  0  0  0  0  0  0  0
    0.3559    1.4459    0.0000 C   0  0  0  0  0  0  0  0  0  0  0  0
    0.3559    2.2711    0.0000 O   0  0  0  0  0  0  0  0  0  0  0  0
    1.0705    1.0333    0.0000 N   0  0  0  0  0  0  0  0  0  0  0  0
    1.7852    1.4459    0.0000 C   0  0  0  0  0  0  0  0  0  0  0  0
    1.7852    2.2711    0.0000 C   0  0  0  0  0  0  0  0  0  0  0  0
    2.4998    2.6837    0.0000 C   0  0  0  0  0  0  0  0  0  0  0  0
    3.2144    2.2710    0.0000 C   0  0  0  0  0  0  0  0  0  0  0  0
    3.2144    1.4459    0.0000 N   0  0  0  0  0  0  0  0  0  0  0  0
    2.4998    1.0333    0.0000 C   0  0  0  0  0  0  0  0  0  0  0  0
    2.4998    0.2081    0.0000 O   0  0  0  0  0  0  0  0  0  0  0  0
    3.9291    2.6837    0.0000 O   0  0  0  0  0  0  0  0  0  0  0  0
    0.3559   -0.2044    0.0000 F   0  0  0  0  0  0  0  0  0  0  0  0
   -2.4998   -0.2081    0.0000 N   0  0  0  0  0  0  0  0  0  0  0  0
   -2.4998   -1.0333    0.0000 C   0  0  0  0  0  0  0  0  0  0  0  0
   -3.2144   -1.4459    0.0000 C   0  0  0  0  0  0  0  0  0  0  0  0
   -3.2144   -2.2711    0.0000 C   0  0  0  0  0  0  0  0  0  0  0  0
   -3.9291   -2.6837    0.0000 C   0  0  0  0  0  0  0  0  0  0  0  0
  1  2  2  0
  2  3  1  0
  4  3  2  0
  5  4  1  0
  6  5  2  0
  1  6  1  0
  6  7  1  0
  7  8  2  0
  7  9  1  0
  9 10  1  0
 10 11  1  0
 11 12  1  0
 12 13  1  0
 13 14  1  0
 14 15  1  0
 10 15  1  0
 15 16  2  0
 13 17  2  0
  5 18  1  0
  3 19  1  0
 19 20  1  0
 20 21  1  0
 21 22  1  0
 22 23  1  0
M  END
> <From>
www.bindingDB.org

> <BindingDB Reactant_set_id>
51567922

> <Ligand InChI>
InChI=1S/C16H20FN3O3/c1-2-3-8-18-10-4-5-11(12(17)9-10)15(22)19-13-6-7-14(21)20-16(13)23/h4-5,9,13,18H,2-3,6-8H2,1H3,(H,19,22)(H,20,21,23)

> <Ligand InChI Key>
KGCOGSOWVBFTKN-UHFFFAOYSA-N

> <BindingDB MonomerID>
50630602

> <BindingDB Ligand Name>
CHEMBL5416921

> <Target Name>
Protein cereblon

> <Target Source Organism According to Curator or DataSource>
Homo sapiens

> <Ki (nM)>


> <IC50 (nM)>
 62000

> <Kd (nM)>


> <EC50 (nM)>


> <kon (M-1-s-1)>


> <koff (s-1)>


> <pH>


> <Temp C>


> <Curation/DataSource>
ChEMBL

> <Article DOI>
10.1021/acs.jmedchem.3c00851

> <BindingDB Entry DOI>
10.7270/Q2PK0MM6

> <PMID>
37902300

> <PubChem AID>


> <Patent Number>


> <Authors>
Steinebach, C; Bricelj, A; Murgai, A; Sosič, I; Bischof, L; Ng, YLD; Heim, C; Maiwald, S; Proj, M; Voget, R; Feller, F; Košmrlj, J; Sapozhnikova, V; Schmidt, A; Zuleeg, MR; Lemnitzer, P; Mertins, P; Hansen, FK; Gütschow, M; Krönke, J; Hartmann, MD

> <Date of publication>
11/9/2023

> <Date in BindingDB>
12/20/2024

> <Institution>
University of Bonn

> <Link to Ligand in BindingDB>
http://www.bindingdb.org/bind/chemsearch/marvin/MolStructure.jsp?monomerid=50630602

> <Link to Ligand-Target Pair in BindingDB>
http://www.bindingdb.org/jsp/dbsearch/PrimarySearch_ki.jsp?energyterm=kJ/mole&tag=pol&polymerid=50007050&target=Protein+cereblon&column=ki&startPg=0&Increment=50&submit=Search

> <Link to Ligand-Target Pair in BindingDB>
http://www.bindingdb.org/jsp/dbsearch/PrimarySearch_ki.jsp?energyterm=kJ/mole&tag=r21&monomerid=50630602&enzyme=Protein+cereblon&column=ki&startPg=0&Increment=50&submit=Search

> <Ligand HET ID in PDB>


> <PDB ID(s) for Ligand-Target Complex>


> <PubChem CID of Ligand>
172454748

> <PubChem SID of Ligand>
505048573

> <ChEBI ID of Ligand>


> <ChEMBL ID of Ligand>


> <DrugBank ID of Ligand>


> <IUPHAR_GRAC ID of Ligand>


> <KEGG ID of Ligand>


> <ZINC ID of Ligand>


> <Number of Protein Chains in Target (bigger than 1 implies a multichain complex)>
1

> <BindingDB Target Chain Sequence>
MAGEGDQQDAAHNMGNHLPLLPAESEEEDEMEVEDQDSKEAKKPNIINFDTSLPTSHTYLGADMEEFHGRTLHDDDSCQVIPVLPQVMMILIPGQTLPLQLFHPQEVSMVRNLIQKDRTFAVLAYSNVQEREAQFGTTAEIYAYREEQDFGIEIVKVKAIGRQRFKVLELRTQSDGIQQAKVQILPECVLPSTMSAVQLESLNKCQIFPSKPVSREDQCSYKWWQKYQKRKFHCANLTSWPRWLYSLYDAETLMDRIKKQLREWDENLKDDSLPSNPIDFSYRVAACLPIDDVLRIQLLKIGSAIQRLRCELDIMNKCTSLCCKQCQETEITTKNEIFSLSLCGPMAAYVNPHGYVHETLTVYKACNLNLIGRPSTEHSWFPGYAWTVAQCKICASHIGWKFTATKKDMSPQKFWGLTRSALLPTIPDTEDEISPDKVILCL

> <PDB ID(s) of Target Chain>
8TNR,8TNQ,8TNP,8D81,8D80,8D7Z,8D7Y,8D7X,8D7W,8D7V,8D7U,8CVP,9DQD,8UH6,6BOY,6BNB,6BN9,6BN8,6BN7,6XK9,6UML,5V3O,5HXB,7U8F,8OJH,8OIZ,7LPS,4TZ4,9DJX,9DJT,8U17,8U16,8U15,8TZX,8DEY,9CUO,4M91

> <UniProt (SwissProt) Recommended Name of Target Chain>
Protein cereblon

> <UniProt (SwissProt) Entry Name of Target Chain>
CRBN_HUMAN

> <UniProt (SwissProt) Primary ID of Target Chain>
Q96SW2

> <UniProt (SwissProt) Secondary ID(s) of Target Chain>
B2R6H4 C9IZA9 C9JAH6 Q6AI62 Q6NVZ0 Q9UHW4

> <UniProt (SwissProt) Alternative ID(s) of Target Chain>


> <UniProt (TrEMBL) Submitted Name of Target Chain>


> <UniProt (TrEMBL) Entry Name of Target Chain>


> <UniProt (TrEMBL) Primary ID of Target Chain>


> <UniProt (TrEMBL) Secondary ID(s) of Target Chain>


> <UniProt (TrEMBL) Alternative ID(s) of Target Chain>


$$$$
 
     RDKit          2D

 19 20  0  0  0  0  0  0  0  0999 V2000
   -2.4998   -0.2048    0.0000 C   0  0  0  0  0  0  0  0  0  0  0  0
   -1.7852    0.2074    0.0000 C   0  0  0  0  0  0  0  0  0  0  0  0
   -1.0733   -0.2044    0.0000 C   0  0  0  0  0  0  0  0  0  0  0  0
   -1.0733   -1.0296    0.0000 C   0  0  0  0  0  0  0  0  0  0  0  0
   -1.7834   -1.4414    0.0000 C   0  0  0  0  0  0  0  0  0  0  0  0
   -2.4998   -1.0333    0.0000 C   0  0  0  0  0  0  0  0  0  0  0  0
   -0.3587    0.2081    0.0000 C   0  0  0  0  0  0  0  0  0  0  0  0
   -0.3587    1.0333    0.0000 O   0  0  0  0  0  0  0  0  0  0  0  0
    0.3558   -0.2044    0.0000 N   0  0  0  0  0  0  0  0  0  0  0  0
    1.0705    0.2081    0.0000 C   0  0  0  0  0  0  0  0  0  0  0  0
    1.0705    1.0333    0.0000 C   0  0  0  0  0  0  0  0  0  0  0  0
    1.7851    1.4459    0.0000 C   0  0  0  0  0  0  0  0  0  0  0  0
    2.4998    1.0333    0.0000 C   0  0  0  0  0  0  0  0  0  0  0  0
    2.4998    0.2081    0.0000 N   0  0  0  0  0  0  0  0  0  0  0  0
    1.7851   -0.2044    0.0000 C   0  0  0  0  0  0  0  0  0  0  0  0
    1.7851   -1.0296    0.0000 O   0  0  0  0  0  0  0  0  0  0  0  0
    3.2144    1.4459    0.0000 O   0  0  0  0  0  0  0  0  0  0  0  0
   -0.3587   -1.4422    0.0000 F   0  0  0  0  0  0  0  0  0  0  0  0
   -3.2144   -1.4459    0.0000 N   0  0  0  0  0  0  0  0  0  0  0  0
  2  1  2  0
  3  2  1  0
  4  3  2  0
  5  4  1  0
  6  5  2  0
  1  6  1  0
  3  7  1  0
  7  8  2  0
  7  9  1  0
  9 10  1  0
 11 10  1  0
 12 11  1  0
 13 12  1  0
 14 13  1  0
 15 14  1  0
 10 15  1  0
 15 16  2  0
 13 17  2  0
  4 18  1  0
  6 19  1  0
M  END
> <From>
www.bindingDB.org

> <BindingDB Reactant_set_id>
51567913

> <Ligand InChI>
InChI=1S/C12H12FN3O3/c13-8-5-6(14)1-2-7(8)11(18)15-9-3-4-10(17)16-12(9)19/h1-2,5,9H,3-4,14H2,(H,15,18)(H,16,17,19)

> <Ligand InChI Key>
PDXLABFIWQGDLW-UHFFFAOYSA-N

> <BindingDB MonomerID>
50630593

> <BindingDB Ligand Name>
CHEMBL5410980

> <Target Name>
Protein cereblon

> <Target Source Organism According to Curator or DataSource>
Homo sapiens

> <Ki (nM)>


> <IC50 (nM)>
 63000

> <Kd (nM)>


> <EC50 (nM)>


> <kon (M-1-s-1)>


> <koff (s-1)>


> <pH>


> <Temp C>


> <Curation/DataSource>
ChEMBL

> <Article DOI>
10.1021/acs.jmedchem.3c00851

> <BindingDB Entry DOI>
10.7270/Q2PK0MM6

> <PMID>
37902300

> <PubChem AID>


> <Patent Number>


> <Authors>
Steinebach, C; Bricelj, A; Murgai, A; Sosič, I; Bischof, L; Ng, YLD; Heim, C; Maiwald, S; Proj, M; Voget, R; Feller, F; Košmrlj, J; Sapozhnikova, V; Schmidt, A; Zuleeg, MR; Lemnitzer, P; Mertins, P; Hansen, FK; Gütschow, M; Krönke, J; Hartmann, MD

> <Date of publication>
11/9/2023

> <Date in BindingDB>
12/20/2024

> <Institution>
University of Bonn

> <Link to Ligand in BindingDB>
http://www.bindingdb.org/bind/chemsearch/marvin/MolStructure.jsp?monomerid=50630593

> <Link to Ligand-Target Pair in BindingDB>
http://www.bindingdb.org/jsp/dbsearch/PrimarySearch_ki.jsp?energyterm=kJ/mole&tag=pol&polymerid=50007050&target=Protein+cereblon&column=ki&startPg=0&Increment=50&submit=Search

> <Link to Ligand-Target Pair in BindingDB>
http://www.bindingdb.org/jsp/dbsearch/PrimarySearch_ki.jsp?energyterm=kJ/mole&tag=r21&monomerid=50630593&enzyme=Protein+cereblon&column=ki&startPg=0&Increment=50&submit=Search

> <Ligand HET ID in PDB>
W1T    

> <PDB ID(s) for Ligand-Target Complex>
8OU3

> <PubChem CID of Ligand>
65956251

> <PubChem SID of Ligand>
505048564

> <ChEBI ID of Ligand>


> <ChEMBL ID of Ligand>


> <DrugBank ID of Ligand>


> <IUPHAR_GRAC ID of Ligand>


> <KEGG ID of Ligand>


> <ZINC ID of Ligand>


> <Number of Protein Chains in Target (bigger than 1 implies a multichain complex)>
1

> <BindingDB Target Chain Sequence>
MAGEGDQQDAAHNMGNHLPLLPAESEEEDEMEVEDQDSKEAKKPNIINFDTSLPTSHTYLGADMEEFHGRTLHDDDSCQVIPVLPQVMMILIPGQTLPLQLFHPQEVSMVRNLIQKDRTFAVLAYSNVQEREAQFGTTAEIYAYREEQDFGIEIVKVKAIGRQRFKVLELRTQSDGIQQAKVQILPECVLPSTMSAVQLESLNKCQIFPSKPVSREDQCSYKWWQKYQKRKFHCANLTSWPRWLYSLYDAETLMDRIKKQLREWDENLKDDSLPSNPIDFSYRVAACLPIDDVLRIQLLKIGSAIQRLRCELDIMNKCTSLCCKQCQETEITTKNEIFSLSLCGPMAAYVNPHGYVHETLTVYKACNLNLIGRPSTEHSWFPGYAWTVAQCKICASHIGWKFTATKKDMSPQKFWGLTRSALLPTIPDTEDEISPDKVILCL

> <PDB ID(s) of Target Chain>
8TNR,8TNQ,8TNP,8D81,8D80,8D7Z,8D7Y,8D7X,8D7W,8D7V,8D7U,8CVP,9DQD,8UH6,6BOY,6BNB,6BN9,6BN8,6BN7,6XK9,6UML,5V3O,5HXB,7U8F,8OJH,8OIZ,7LPS,4TZ4,9DJX,9DJT,8U17,8U16,8U15,8TZX,8DEY,9CUO,4M91

> <UniProt (SwissProt) Recommended Name of Target Chain>
Protein cereblon

> <UniProt (SwissProt) Entry Name of Target Chain>
CRBN_HUMAN

> <UniProt (SwissProt) Primary ID of Target Chain>
Q96SW2

> <UniProt (SwissProt) Secondary ID(s) of Target Chain>
B2R6H4 C9IZA9 C9JAH6 Q6AI62 Q6NVZ0 Q9UHW4

> <UniProt (SwissProt) Alternative ID(s) of Target Chain>


> <UniProt (TrEMBL) Submitted Name of Target Chain>


> <UniProt (TrEMBL) Entry Name of Target Chain>


> <UniProt (TrEMBL) Primary ID of Target Chain>


> <UniProt (TrEMBL) Secondary ID(s) of Target Chain>


> <UniProt (TrEMBL) Alternative ID(s) of Target Chain>


$$$$
 
     RDKit          2D

 21 22  0  0  0  0  0  0  0  0999 V2000
   -2.4998    0.2055    0.0000 C   0  0  0  0  0  0  0  0  0  0  0  0
   -1.7852    0.6178    0.0000 C   0  0  0  0  0  0  0  0  0  0  0  0
   -1.0733    0.2058    0.0000 C   0  0  0  0  0  0  0  0  0  0  0  0
   -1.0733   -0.6192    0.0000 C   0  0  0  0  0  0  0  0  0  0  0  0
   -1.7833   -1.0310    0.0000 C   0  0  0  0  0  0  0  0  0  0  0  0
   -2.4998   -0.6229    0.0000 C   0  0  0  0  0  0  0  0  0  0  0  0
   -0.3586    0.6185    0.0000 C   0  0  0  0  0  0  0  0  0  0  0  0
   -0.3586    1.4436    0.0000 O   0  0  0  0  0  0  0  0  0  0  0  0
    0.3559    0.2058    0.0000 N   0  0  0  0  0  0  0  0  0  0  0  0
    1.0705    0.6185    0.0000 C   0  0  0  0  0  0  0  0  0  0  0  0
    1.0705    1.4436    0.0000 C   0  0  0  0  0  0  0  0  0  0  0  0
    1.7852    1.8562    0.0000 C   0  0  0  0  0  0  0  0  0  0  0  0
    2.4998    1.4436    0.0000 C   0  0  0  0  0  0  0  0  0  0  0  0
    2.4998    0.6184    0.0000 N   0  0  0  0  0  0  0  0  0  0  0  0
    1.7852    0.2058    0.0000 C   0  0  0  0  0  0  0  0  0  0  0  0
    1.7852   -0.6192    0.0000 O   0  0  0  0  0  0  0  0  0  0  0  0
    3.2144    1.8562    0.0000 O   0  0  0  0  0  0  0  0  0  0  0  0
   -0.3586   -1.0318    0.0000 F   0  0  0  0  0  0  0  0  0  0  0  0
   -1.7833   -1.8562    0.0000 F   0  0  0  0  0  0  0  0  0  0  0  0
   -3.2144   -1.0355    0.0000 F   0  0  0  0  0  0  0  0  0  0  0  0
   -3.2144    0.6180    0.0000 F   0  0  0  0  0  0  0  0  0  0  0  0
  2  1  2  0
  3  2  1  0
  4  3  2  0
  5  4  1  0
  6  5  2  0
  1  6  1  0
  3  7  1  0
  7  8  2  0
  7  9  1  0
  9 10  1  0
 11 10  1  0
 12 11  1  0
 13 12  1  0
 14 13  1  0
 15 14  1  0
 10 15  1  0
 15 16  2  0
 13 17  2  0
  4 18  1  0
  5 19  1  0
  6 20  1  0
  1 21  1  0
M  END
> <From>
www.bindingDB.org

> <BindingDB Reactant_set_id>
51567909

> <Ligand InChI>
InChI=1S/C12H8F4N2O3/c13-5-3-4(8(14)10(16)9(5)15)11(20)17-6-1-2-7(19)18-12(6)21/h3,6H,1-2H2,(H,17,20)(H,18,19,21)

> <Ligand InChI Key>
HOAHVHODYFOOBF-UHFFFAOYSA-N

> <BindingDB MonomerID>
50630589

> <BindingDB Ligand Name>
CHEMBL5437759

> <Target Name>
Protein cereblon

> <Target Source Organism According to Curator or DataSource>
Homo sapiens

> <Ki (nM)>


> <IC50 (nM)>
 65000

> <Kd (nM)>


> <EC50 (nM)>


> <kon (M-1-s-1)>


> <koff (s-1)>


> <pH>


> <Temp C>


> <Curation/DataSource>
ChEMBL

> <Article DOI>
10.1021/acs.jmedchem.3c00851

> <BindingDB Entry DOI>
10.7270/Q2PK0MM6

> <PMID>
37902300

> <PubChem AID>


> <Patent Number>


> <Authors>
Steinebach, C; Bricelj, A; Murgai, A; Sosič, I; Bischof, L; Ng, YLD; Heim, C; Maiwald, S; Proj, M; Voget, R; Feller, F; Košmrlj, J; Sapozhnikova, V; Schmidt, A; Zuleeg, MR; Lemnitzer, P; Mertins, P; Hansen, FK; Gütschow, M; Krönke, J; Hartmann, MD

> <Date of publication>
11/9/2023

> <Date in BindingDB>
12/20/2024

> <Institution>
University of Bonn

> <Link to Ligand in BindingDB>
http://www.bindingdb.org/bind/chemsearch/marvin/MolStructure.jsp?monomerid=50630589

> <Link to Ligand-Target Pair in BindingDB>
http://www.bindingdb.org/jsp/dbsearch/PrimarySearch_ki.jsp?energyterm=kJ/mole&tag=pol&polymerid=50007050&target=Protein+cereblon&column=ki&startPg=0&Increment=50&submit=Search

> <Link to Ligand-Target Pair in BindingDB>
http://www.bindingdb.org/jsp/dbsearch/PrimarySearch_ki.jsp?energyterm=kJ/mole&tag=r21&monomerid=50630589&enzyme=Protein+cereblon&column=ki&startPg=0&Increment=50&submit=Search

> <Ligand HET ID in PDB>


> <PDB ID(s) for Ligand-Target Complex>


> <PubChem CID of Ligand>
65954686

> <PubChem SID of Ligand>
505048560

> <ChEBI ID of Ligand>


> <ChEMBL ID of Ligand>


> <DrugBank ID of Ligand>


> <IUPHAR_GRAC ID of Ligand>


> <KEGG ID of Ligand>


> <ZINC ID of Ligand>


> <Number of Protein Chains in Target (bigger than 1 implies a multichain complex)>
1

> <BindingDB Target Chain Sequence>
MAGEGDQQDAAHNMGNHLPLLPAESEEEDEMEVEDQDSKEAKKPNIINFDTSLPTSHTYLGADMEEFHGRTLHDDDSCQVIPVLPQVMMILIPGQTLPLQLFHPQEVSMVRNLIQKDRTFAVLAYSNVQEREAQFGTTAEIYAYREEQDFGIEIVKVKAIGRQRFKVLELRTQSDGIQQAKVQILPECVLPSTMSAVQLESLNKCQIFPSKPVSREDQCSYKWWQKYQKRKFHCANLTSWPRWLYSLYDAETLMDRIKKQLREWDENLKDDSLPSNPIDFSYRVAACLPIDDVLRIQLLKIGSAIQRLRCELDIMNKCTSLCCKQCQETEITTKNEIFSLSLCGPMAAYVNPHGYVHETLTVYKACNLNLIGRPSTEHSWFPGYAWTVAQCKICASHIGWKFTATKKDMSPQKFWGLTRSALLPTIPDTEDEISPDKVILCL

> <PDB ID(s) of Target Chain>
8TNR,8TNQ,8TNP,8D81,8D80,8D7Z,8D7Y,8D7X,8D7W,8D7V,8D7U,8CVP,9DQD,8UH6,6BOY,6BNB,6BN9,6BN8,6BN7,6XK9,6UML,5V3O,5HXB,7U8F,8OJH,8OIZ,7LPS,4TZ4,9DJX,9DJT,8U17,8U16,8U15,8TZX,8DEY,9CUO,4M91

> <UniProt (SwissProt) Recommended Name of Target Chain>
Protein cereblon

> <UniProt (SwissProt) Entry Name of Target Chain>
CRBN_HUMAN

> <UniProt (SwissProt) Primary ID of Target Chain>
Q96SW2

> <UniProt (SwissProt) Secondary ID(s) of Target Chain>
B2R6H4 C9IZA9 C9JAH6 Q6AI62 Q6NVZ0 Q9UHW4

> <UniProt (SwissProt) Alternative ID(s) of Target Chain>


> <UniProt (TrEMBL) Submitted Name of Target Chain>


> <UniProt (TrEMBL) Entry Name of Target Chain>


> <UniProt (TrEMBL) Primary ID of Target Chain>


> <UniProt (TrEMBL) Secondary ID(s) of Target Chain>


> <UniProt (TrEMBL) Alternative ID(s) of Target Chain>


$$$$
 
     RDKit          2D

 23 24  0  0  0  0  0  0  0  0999 V2000
   -1.0706    1.4452    0.0000 C   0  0  0  0  0  0  0  0  0  0  0  0
   -1.7852    1.0329    0.0000 C   0  0  0  0  0  0  0  0  0  0  0  0
   -1.7852    0.2044    0.0000 C   0  0  0  0  0  0  0  0  0  0  0  0
   -1.0688   -0.2036    0.0000 C   0  0  0  0  0  0  0  0  0  0  0  0
   -0.3585    0.2081    0.0000 C   0  0  0  0  0  0  0  0  0  0  0  0
   -0.3585    1.0333    0.0000 C   0  0  0  0  0  0  0  0  0  0  0  0
    0.3559    1.4459    0.0000 C   0  0  0  0  0  0  0  0  0  0  0  0
    0.3559    2.2711    0.0000 O   0  0  0  0  0  0  0  0  0  0  0  0
    1.0705    1.0333    0.0000 N   0  0  0  0  0  0  0  0  0  0  0  0
    1.7852    1.4459    0.0000 C   0  0  0  0  0  0  0  0  0  0  0  0
    1.7852    2.2711    0.0000 C   0  0  0  0  0  0  0  0  0  0  0  0
    2.4998    2.6837    0.0000 C   0  0  0  0  0  0  0  0  0  0  0  0
    3.2144    2.2711    0.0000 C   0  0  0  0  0  0  0  0  0  0  0  0
    3.2144    1.4459    0.0000 N   0  0  0  0  0  0  0  0  0  0  0  0
    2.4998    1.0333    0.0000 C   0  0  0  0  0  0  0  0  0  0  0  0
    2.4998    0.2081    0.0000 O   0  0  0  0  0  0  0  0  0  0  0  0
    3.9291    2.6837    0.0000 O   0  0  0  0  0  0  0  0  0  0  0  0
    0.3559   -0.2044    0.0000 F   0  0  0  0  0  0  0  0  0  0  0  0
   -2.4998   -0.2081    0.0000 O   0  0  0  0  0  0  0  0  0  0  0  0
   -2.4998   -1.0333    0.0000 C   0  0  0  0  0  0  0  0  0  0  0  0
   -3.2144   -1.4459    0.0000 C   0  0  0  0  0  0  0  0  0  0  0  0
   -3.2144   -2.2711    0.0000 C   0  0  0  0  0  0  0  0  0  0  0  0
   -3.9291   -2.6837    0.0000 C   0  0  0  0  0  0  0  0  0  0  0  0
  1  2  2  0
  2  3  1  0
  4  3  2  0
  5  4  1  0
  6  5  2  0
  1  6  1  0
  6  7  1  0
  7  8  2  0
  7  9  1  0
  9 10  1  0
 10 11  1  0
 11 12  1  0
 12 13  1  0
 13 14  1  0
 14 15  1  0
 10 15  1  0
 15 16  2  0
 13 17  2  0
  5 18  1  0
  3 19  1  0
 19 20  1  0
 20 21  1  0
 21 22  1  0
 22 23  1  0
M  END
> <From>
www.bindingDB.org

> <BindingDB Reactant_set_id>
51567924

> <Ligand InChI>
InChI=1S/C16H19FN2O4/c1-2-3-8-23-10-4-5-11(12(17)9-10)15(21)18-13-6-7-14(20)19-16(13)22/h4-5,9,13H,2-3,6-8H2,1H3,(H,18,21)(H,19,20,22)

> <Ligand InChI Key>
VWKWRZUXWYSGOU-UHFFFAOYSA-N

> <BindingDB MonomerID>
50630604

> <BindingDB Ligand Name>
CHEMBL5421440

> <Target Name>
Protein cereblon

> <Target Source Organism According to Curator or DataSource>
Homo sapiens

> <Ki (nM)>


> <IC50 (nM)>
 65000

> <Kd (nM)>


> <EC50 (nM)>


> <kon (M-1-s-1)>


> <koff (s-1)>


> <pH>


> <Temp C>


> <Curation/DataSource>
ChEMBL

> <Article DOI>
10.1021/acs.jmedchem.3c00851

> <BindingDB Entry DOI>
10.7270/Q2PK0MM6

> <PMID>
37902300

> <PubChem AID>


> <Patent Number>


> <Authors>
Steinebach, C; Bricelj, A; Murgai, A; Sosič, I; Bischof, L; Ng, YLD; Heim, C; Maiwald, S; Proj, M; Voget, R; Feller, F; Košmrlj, J; Sapozhnikova, V; Schmidt, A; Zuleeg, MR; Lemnitzer, P; Mertins, P; Hansen, FK; Gütschow, M; Krönke, J; Hartmann, MD

> <Date of publication>
11/9/2023

> <Date in BindingDB>
12/20/2024

> <Institution>
University of Bonn

> <Link to Ligand in BindingDB>
http://www.bindingdb.org/bind/chemsearch/marvin/MolStructure.jsp?monomerid=50630604

> <Link to Ligand-Target Pair in BindingDB>
http://www.bindingdb.org/jsp/dbsearch/PrimarySearch_ki.jsp?energyterm=kJ/mole&tag=pol&polymerid=50007050&target=Protein+cereblon&column=ki&startPg=0&Increment=50&submit=Search

> <Link to Ligand-Target Pair in BindingDB>
http://www.bindingdb.org/jsp/dbsearch/PrimarySearch_ki.jsp?energyterm=kJ/mole&tag=r21&monomerid=50630604&enzyme=Protein+cereblon&column=ki&startPg=0&Increment=50&submit=Search

> <Ligand HET ID in PDB>


> <PDB ID(s) for Ligand-Target Complex>


> <PubChem CID of Ligand>
172460911

> <PubChem SID of Ligand>
505048575

> <ChEBI ID of Ligand>


> <ChEMBL ID of Ligand>


> <DrugBank ID of Ligand>


> <IUPHAR_GRAC ID of Ligand>


> <KEGG ID of Ligand>


> <ZINC ID of Ligand>


> <Number of Protein Chains in Target (bigger than 1 implies a multichain complex)>
1

> <BindingDB Target Chain Sequence>
MAGEGDQQDAAHNMGNHLPLLPAESEEEDEMEVEDQDSKEAKKPNIINFDTSLPTSHTYLGADMEEFHGRTLHDDDSCQVIPVLPQVMMILIPGQTLPLQLFHPQEVSMVRNLIQKDRTFAVLAYSNVQEREAQFGTTAEIYAYREEQDFGIEIVKVKAIGRQRFKVLELRTQSDGIQQAKVQILPECVLPSTMSAVQLESLNKCQIFPSKPVSREDQCSYKWWQKYQKRKFHCANLTSWPRWLYSLYDAETLMDRIKKQLREWDENLKDDSLPSNPIDFSYRVAACLPIDDVLRIQLLKIGSAIQRLRCELDIMNKCTSLCCKQCQETEITTKNEIFSLSLCGPMAAYVNPHGYVHETLTVYKACNLNLIGRPSTEHSWFPGYAWTVAQCKICASHIGWKFTATKKDMSPQKFWGLTRSALLPTIPDTEDEISPDKVILCL

> <PDB ID(s) of Target Chain>
8TNR,8TNQ,8TNP,8D81,8D80,8D7Z,8D7Y,8D7X,8D7W,8D7V,8D7U,8CVP,9DQD,8UH6,6BOY,6BNB,6BN9,6BN8,6BN7,6XK9,6UML,5V3O,5HXB,7U8F,8OJH,8OIZ,7LPS,4TZ4,9DJX,9DJT,8U17,8U16,8U15,8TZX,8DEY,9CUO,4M91

> <UniProt (SwissProt) Recommended Name of Target Chain>
Protein cereblon

> <UniProt (SwissProt) Entry Name of Target Chain>
CRBN_HUMAN

> <UniProt (SwissProt) Primary ID of Target Chain>
Q96SW2

> <UniProt (SwissProt) Secondary ID(s) of Target Chain>
B2R6H4 C9IZA9 C9JAH6 Q6AI62 Q6NVZ0 Q9UHW4

> <UniProt (SwissProt) Alternative ID(s) of Target Chain>


> <UniProt (TrEMBL) Submitted Name of Target Chain>


> <UniProt (TrEMBL) Entry Name of Target Chain>


> <UniProt (TrEMBL) Primary ID of Target Chain>


> <UniProt (TrEMBL) Secondary ID(s) of Target Chain>


> <UniProt (TrEMBL) Alternative ID(s) of Target Chain>


$$$$
 
     RDKit          2D

  9  9  0  0  0  0  0  0  0  0999 V2000
   16.1664  -20.3803    0.0000 C   0  0  0  0  0  0  0  0  0  0  0  0
   16.1664  -21.1974    0.0000 C   0  0  0  0  0  0  0  0  0  0  0  0
   16.8716  -21.6019    0.0000 N   0  0  0  0  0  0  0  0  0  0  0  0
   17.5769  -21.1974    0.0000 C   0  0  0  0  0  0  0  0  0  0  0  0
   17.5769  -20.3803    0.0000 N   0  0  0  0  0  0  0  0  0  0  0  0
   16.8716  -19.9675    0.0000 C   0  0  0  0  0  0  0  0  0  0  0  0
   16.8716  -19.1503    0.0000 O   0  0  0  0  0  0  0  0  0  0  0  0
   18.2840  -21.6071    0.0000 O   0  0  0  0  0  0  0  0  0  0  0  0
   16.8716  -22.4191    0.0000 C   0  0  0  0  0  0  0  0  0  0  0  0
  1  2  2  0
  1  6  1  0
  2  3  1  0
  3  4  1  0
  4  5  1  0
  5  6  1  0
  6  7  2  0
  4  8  2  0
  3  9  1  0
M  END
> <From>
www.bindingDB.org

> <BindingDB Reactant_set_id>
51359719

> <Ligand InChI>
InChI=1S/C5H6N2O2/c1-7-3-2-4(8)6-5(7)9/h2-3H,1H3,(H,6,8,9)

> <Ligand InChI Key>
XBCXJKGHPABGSD-UHFFFAOYSA-N

> <BindingDB MonomerID>
50549810

> <BindingDB Ligand Name>
CHEMBL4797970

> <Target Name>
Protein cereblon

> <Target Source Organism According to Curator or DataSource>
Human

> <Ki (nM)>


> <IC50 (nM)>
 65700

> <Kd (nM)>


> <EC50 (nM)>


> <kon (M-1-s-1)>


> <koff (s-1)>


> <pH>


> <Temp C>


> <Curation/DataSource>
ChEMBL

> <Article DOI>
10.1021/acsmedchemlett.0c00440

> <BindingDB Entry DOI>
10.7270/Q2WM1J1B

> <PMID>
33488967

> <PubChem AID>


> <Patent Number>


> <Authors>
Maiwald, S; Heim, C; Hernandez Alvarez, B; Hartmann, MD

> <Date of publication>
1/14/2021

> <Date in BindingDB>
3/23/2022

> <Institution>
Max Planck Institute for Developmental Biology

> <Link to Ligand in BindingDB>
http://www.bindingdb.org/bind/chemsearch/marvin/MolStructure.jsp?monomerid=50549810

> <Link to Ligand-Target Pair in BindingDB>
http://www.bindingdb.org/jsp/dbsearch/PrimarySearch_ki.jsp?energyterm=kJ/mole&tag=pol&polymerid=50007050&target=Protein+cereblon&column=ki&startPg=0&Increment=50&submit=Search

> <Link to Ligand-Target Pair in BindingDB>
http://www.bindingdb.org/jsp/dbsearch/PrimarySearch_ki.jsp?energyterm=kJ/mole&tag=r21&monomerid=50549810&enzyme=Protein+cereblon&column=ki&startPg=0&Increment=50&submit=Search

> <Ligand HET ID in PDB>


> <PDB ID(s) for Ligand-Target Complex>


> <PubChem CID of Ligand>
12009

> <PubChem SID of Ligand>
461680150

> <ChEBI ID of Ligand>


> <ChEMBL ID of Ligand>


> <DrugBank ID of Ligand>


> <IUPHAR_GRAC ID of Ligand>


> <KEGG ID of Ligand>


> <ZINC ID of Ligand>


> <Number of Protein Chains in Target (bigger than 1 implies a multichain complex)>
1

> <BindingDB Target Chain Sequence>
MAGEGDQQDAAHNMGNHLPLLPAESEEEDEMEVEDQDSKEAKKPNIINFDTSLPTSHTYLGADMEEFHGRTLHDDDSCQVIPVLPQVMMILIPGQTLPLQLFHPQEVSMVRNLIQKDRTFAVLAYSNVQEREAQFGTTAEIYAYREEQDFGIEIVKVKAIGRQRFKVLELRTQSDGIQQAKVQILPECVLPSTMSAVQLESLNKCQIFPSKPVSREDQCSYKWWQKYQKRKFHCANLTSWPRWLYSLYDAETLMDRIKKQLREWDENLKDDSLPSNPIDFSYRVAACLPIDDVLRIQLLKIGSAIQRLRCELDIMNKCTSLCCKQCQETEITTKNEIFSLSLCGPMAAYVNPHGYVHETLTVYKACNLNLIGRPSTEHSWFPGYAWTVAQCKICASHIGWKFTATKKDMSPQKFWGLTRSALLPTIPDTEDEISPDKVILCL

> <PDB ID(s) of Target Chain>
4TZ4,5HXB,5V3O,6UML,6XK9,7LPS,7U8F,8CVP,8D7U,8D7V,8D7W,8D7X,8D7Y,8D7Z,8D80,8D81,8DEY,8OIZ,8OJH

> <UniProt (SwissProt) Recommended Name of Target Chain>
Protein cereblon

> <UniProt (SwissProt) Entry Name of Target Chain>
CRBN_HUMAN

> <UniProt (SwissProt) Primary ID of Target Chain>
Q96SW2

> <UniProt (SwissProt) Secondary ID(s) of Target Chain>
B2R6H4 C9IZA9 C9JAH6 Q6AI62 Q6NVZ0 Q9UHW4

> <UniProt (SwissProt) Alternative ID(s) of Target Chain>


> <UniProt (TrEMBL) Submitted Name of Target Chain>


> <UniProt (TrEMBL) Entry Name of Target Chain>


> <UniProt (TrEMBL) Primary ID of Target Chain>


> <UniProt (TrEMBL) Secondary ID(s) of Target Chain>


> <UniProt (TrEMBL) Alternative ID(s) of Target Chain>


$$$$
 
     RDKit          2D

 18 19  0  0  0  0  0  0  0  0999 V2000
   -2.1425    0.2052    0.0000 C   0  0  0  0  0  0  0  0  0  0  0  0
   -2.8571   -0.2070    0.0000 C   0  0  0  0  0  0  0  0  0  0  0  0
   -2.8571   -1.0355    0.0000 C   0  0  0  0  0  0  0  0  0  0  0  0
   -2.1407   -1.4436    0.0000 C   0  0  0  0  0  0  0  0  0  0  0  0
   -1.4306   -1.0318    0.0000 C   0  0  0  0  0  0  0  0  0  0  0  0
   -1.4306   -0.2067    0.0000 C   0  0  0  0  0  0  0  0  0  0  0  0
   -0.7160    0.2059    0.0000 C   0  0  0  0  0  0  0  0  0  0  0  0
   -0.7160    1.0310    0.0000 O   0  0  0  0  0  0  0  0  0  0  0  0
   -0.0013   -0.2067    0.0000 N   0  0  0  0  0  0  0  0  0  0  0  0
    0.7132    0.2059    0.0000 C   0  0  0  0  0  0  0  0  0  0  0  0
    0.7132    1.0310    0.0000 C   0  0  0  0  0  0  0  0  0  0  0  0
    1.4278    1.4436    0.0000 C   0  0  0  0  0  0  0  0  0  0  0  0
    2.1424    1.0310    0.0000 C   0  0  0  0  0  0  0  0  0  0  0  0
    2.1425    0.2058    0.0000 N   0  0  0  0  0  0  0  0  0  0  0  0
    1.4278   -0.2067    0.0000 C   0  0  0  0  0  0  0  0  0  0  0  0
    1.4278   -1.0318    0.0000 O   0  0  0  0  0  0  0  0  0  0  0  0
    2.8571    1.4436    0.0000 O   0  0  0  0  0  0  0  0  0  0  0  0
   -2.1425    1.0303    0.0000 N   0  0  0  0  0  0  0  0  0  0  0  0
  1  2  2  0
  2  3  1  0
  4  3  2  0
  5  4  1  0
  6  5  2  0
  1  6  1  0
  6  7  1  0
  7  8  2  0
  7  9  1  0
  9 10  1  0
 10 11  1  0
 11 12  1  0
 12 13  1  0
 13 14  1  0
 14 15  1  0
 10 15  1  0
 15 16  2  0
 13 17  2  0
  1 18  1  0
M  END
> <From>
www.bindingDB.org

> <BindingDB Reactant_set_id>
51567914

> <Ligand InChI>
InChI=1S/C12H13N3O3/c13-8-4-2-1-3-7(8)11(17)14-9-5-6-10(16)15-12(9)18/h1-4,9H,5-6,13H2,(H,14,17)(H,15,16,18)

> <Ligand InChI Key>
BXYYCADYTWTGMG-UHFFFAOYSA-N

> <BindingDB MonomerID>
50630594

> <BindingDB Ligand Name>
CHEMBL5399110

> <Target Name>
Protein cereblon

> <Target Source Organism According to Curator or DataSource>
Homo sapiens

> <Ki (nM)>


> <IC50 (nM)>
 74000

> <Kd (nM)>


> <EC50 (nM)>


> <kon (M-1-s-1)>


> <koff (s-1)>


> <pH>


> <Temp C>


> <Curation/DataSource>
ChEMBL

> <Article DOI>
10.1021/acs.jmedchem.3c00851

> <BindingDB Entry DOI>
10.7270/Q2PK0MM6

> <PMID>
37902300

> <PubChem AID>


> <Patent Number>


> <Authors>
Steinebach, C; Bricelj, A; Murgai, A; Sosič, I; Bischof, L; Ng, YLD; Heim, C; Maiwald, S; Proj, M; Voget, R; Feller, F; Košmrlj, J; Sapozhnikova, V; Schmidt, A; Zuleeg, MR; Lemnitzer, P; Mertins, P; Hansen, FK; Gütschow, M; Krönke, J; Hartmann, MD

> <Date of publication>
11/9/2023

> <Date in BindingDB>
12/20/2024

> <Institution>
University of Bonn

> <Link to Ligand in BindingDB>
http://www.bindingdb.org/bind/chemsearch/marvin/MolStructure.jsp?monomerid=50630594

> <Link to Ligand-Target Pair in BindingDB>
http://www.bindingdb.org/jsp/dbsearch/PrimarySearch_ki.jsp?energyterm=kJ/mole&tag=pol&polymerid=50007050&target=Protein+cereblon&column=ki&startPg=0&Increment=50&submit=Search

> <Link to Ligand-Target Pair in BindingDB>
http://www.bindingdb.org/jsp/dbsearch/PrimarySearch_ki.jsp?energyterm=kJ/mole&tag=r21&monomerid=50630594&enzyme=Protein+cereblon&column=ki&startPg=0&Increment=50&submit=Search

> <Ligand HET ID in PDB>


> <PDB ID(s) for Ligand-Target Complex>


> <PubChem CID of Ligand>
21592724

> <PubChem SID of Ligand>
505048565

> <ChEBI ID of Ligand>


> <ChEMBL ID of Ligand>


> <DrugBank ID of Ligand>


> <IUPHAR_GRAC ID of Ligand>


> <KEGG ID of Ligand>


> <ZINC ID of Ligand>


> <Number of Protein Chains in Target (bigger than 1 implies a multichain complex)>
1

> <BindingDB Target Chain Sequence>
MAGEGDQQDAAHNMGNHLPLLPAESEEEDEMEVEDQDSKEAKKPNIINFDTSLPTSHTYLGADMEEFHGRTLHDDDSCQVIPVLPQVMMILIPGQTLPLQLFHPQEVSMVRNLIQKDRTFAVLAYSNVQEREAQFGTTAEIYAYREEQDFGIEIVKVKAIGRQRFKVLELRTQSDGIQQAKVQILPECVLPSTMSAVQLESLNKCQIFPSKPVSREDQCSYKWWQKYQKRKFHCANLTSWPRWLYSLYDAETLMDRIKKQLREWDENLKDDSLPSNPIDFSYRVAACLPIDDVLRIQLLKIGSAIQRLRCELDIMNKCTSLCCKQCQETEITTKNEIFSLSLCGPMAAYVNPHGYVHETLTVYKACNLNLIGRPSTEHSWFPGYAWTVAQCKICASHIGWKFTATKKDMSPQKFWGLTRSALLPTIPDTEDEISPDKVILCL

> <PDB ID(s) of Target Chain>
8TNR,8TNQ,8TNP,8D81,8D80,8D7Z,8D7Y,8D7X,8D7W,8D7V,8D7U,8CVP,9DQD,8UH6,6BOY,6BNB,6BN9,6BN8,6BN7,6XK9,6UML,5V3O,5HXB,7U8F,8OJH,8OIZ,7LPS,4TZ4,9DJX,9DJT,8U17,8U16,8U15,8TZX,8DEY,9CUO,4M91

> <UniProt (SwissProt) Recommended Name of Target Chain>
Protein cereblon

> <UniProt (SwissProt) Entry Name of Target Chain>
CRBN_HUMAN

> <UniProt (SwissProt) Primary ID of Target Chain>
Q96SW2

> <UniProt (SwissProt) Secondary ID(s) of Target Chain>
B2R6H4 C9IZA9 C9JAH6 Q6AI62 Q6NVZ0 Q9UHW4

> <UniProt (SwissProt) Alternative ID(s) of Target Chain>


> <UniProt (TrEMBL) Submitted Name of Target Chain>


> <UniProt (TrEMBL) Entry Name of Target Chain>


> <UniProt (TrEMBL) Primary ID of Target Chain>


> <UniProt (TrEMBL) Secondary ID(s) of Target Chain>


> <UniProt (TrEMBL) Alternative ID(s) of Target Chain>


$$$$
 
     RDKit          2D

 26 27  0  0  0  0  0  0  0  0999 V2000
   -1.0706    1.4452    0.0000 C   0  0  0  0  0  0  0  0  0  0  0  0
   -1.7852    1.0330    0.0000 C   0  0  0  0  0  0  0  0  0  0  0  0
   -1.7852    0.2044    0.0000 C   0  0  0  0  0  0  0  0  0  0  0  0
   -1.0688   -0.2036    0.0000 C   0  0  0  0  0  0  0  0  0  0  0  0
   -0.3587    0.2081    0.0000 C   0  0  0  0  0  0  0  0  0  0  0  0
   -0.3587    1.0333    0.0000 C   0  0  0  0  0  0  0  0  0  0  0  0
    0.3559    1.4459    0.0000 C   0  0  0  0  0  0  0  0  0  0  0  0
    0.3559    2.2712    0.0000 O   0  0  0  0  0  0  0  0  0  0  0  0
    1.0706    1.0333    0.0000 N   0  0  0  0  0  0  0  0  0  0  0  0
    1.7852    1.4459    0.0000 C   0  0  0  0  0  0  0  0  0  0  0  0
    1.7852    2.2712    0.0000 C   0  0  0  0  0  0  0  0  0  0  0  0
    2.4998    2.6838    0.0000 C   0  0  0  0  0  0  0  0  0  0  0  0
    3.2145    2.2712    0.0000 C   0  0  0  0  0  0  0  0  0  0  0  0
    3.2146    1.4459    0.0000 N   0  0  0  0  0  0  0  0  0  0  0  0
    2.4998    1.0333    0.0000 C   0  0  0  0  0  0  0  0  0  0  0  0
    2.4998    0.2081    0.0000 O   0  0  0  0  0  0  0  0  0  0  0  0
    3.9292    2.6838    0.0000 O   0  0  0  0  0  0  0  0  0  0  0  0
    0.3559   -0.2044    0.0000 F   0  0  0  0  0  0  0  0  0  0  0  0
   -2.4998   -0.2081    0.0000 N   0  0  0  0  0  0  0  0  0  0  0  0
   -2.4998   -1.0333    0.0000 C   0  0  0  0  0  0  0  0  0  0  0  0
   -3.2146   -1.4459    0.0000 C   0  0  0  0  0  0  0  0  0  0  0  0
   -3.2146   -2.2712    0.0000 C   0  0  0  0  0  0  0  0  0  0  0  0
   -3.9292   -2.6838    0.0000 C   0  0  0  0  0  0  0  0  0  0  0  0
   -1.0688   -1.0289    0.0000 O   0  0  0  0  0  0  0  0  0  0  0  0
   -0.3542   -1.4414    0.0000 C   0  0  0  0  0  0  0  0  0  0  0  0
   -2.4998    1.4456    0.0000 F   0  0  0  0  0  0  0  0  0  0  0  0
  1  2  2  0
  2  3  1  0
  4  3  2  0
  5  4  1  0
  6  5  2  0
  1  6  1  0
  6  7  1  0
  7  8  2  0
  7  9  1  0
  9 10  1  0
 10 11  1  0
 11 12  1  0
 12 13  1  0
 13 14  1  0
 14 15  1  0
 10 15  1  0
 15 16  2  0
 13 17  2  0
  5 18  1  0
  3 19  1  0
 19 20  1  0
 20 21  1  0
 21 22  1  0
 22 23  1  0
  4 24  1  0
 24 25  1  0
  2 26  1  0
M  END
> <From>
www.bindingDB.org

> <BindingDB Reactant_set_id>
51567925

> <Ligand InChI>
InChI=1S/C17H21F2N3O4/c1-3-4-7-20-14-10(18)8-9(13(19)15(14)26-2)16(24)21-11-5-6-12(23)22-17(11)25/h8,11,20H,3-7H2,1-2H3,(H,21,24)(H,22,23,25)

> <Ligand InChI Key>
IONAEGMCSLASDU-UHFFFAOYSA-N

> <BindingDB MonomerID>
50630605

> <BindingDB Ligand Name>
CHEMBL5435181

> <Target Name>
Protein cereblon

> <Target Source Organism According to Curator or DataSource>
Homo sapiens

> <Ki (nM)>


> <IC50 (nM)>
 75000

> <Kd (nM)>


> <EC50 (nM)>


> <kon (M-1-s-1)>


> <koff (s-1)>


> <pH>


> <Temp C>


> <Curation/DataSource>
ChEMBL

> <Article DOI>
10.1021/acs.jmedchem.3c00851

> <BindingDB Entry DOI>
10.7270/Q2PK0MM6

> <PMID>
37902300

> <PubChem AID>


> <Patent Number>


> <Authors>
Steinebach, C; Bricelj, A; Murgai, A; Sosič, I; Bischof, L; Ng, YLD; Heim, C; Maiwald, S; Proj, M; Voget, R; Feller, F; Košmrlj, J; Sapozhnikova, V; Schmidt, A; Zuleeg, MR; Lemnitzer, P; Mertins, P; Hansen, FK; Gütschow, M; Krönke, J; Hartmann, MD

> <Date of publication>
11/9/2023

> <Date in BindingDB>
12/20/2024

> <Institution>
University of Bonn

> <Link to Ligand in BindingDB>
http://www.bindingdb.org/bind/chemsearch/marvin/MolStructure.jsp?monomerid=50630605

> <Link to Ligand-Target Pair in BindingDB>
http://www.bindingdb.org/jsp/dbsearch/PrimarySearch_ki.jsp?energyterm=kJ/mole&tag=pol&polymerid=50007050&target=Protein+cereblon&column=ki&startPg=0&Increment=50&submit=Search

> <Link to Ligand-Target Pair in BindingDB>
http://www.bindingdb.org/jsp/dbsearch/PrimarySearch_ki.jsp?energyterm=kJ/mole&tag=r21&monomerid=50630605&enzyme=Protein+cereblon&column=ki&startPg=0&Increment=50&submit=Search

> <Ligand HET ID in PDB>


> <PDB ID(s) for Ligand-Target Complex>


> <PubChem CID of Ligand>
172463862

> <PubChem SID of Ligand>
505048576

> <ChEBI ID of Ligand>


> <ChEMBL ID of Ligand>


> <DrugBank ID of Ligand>


> <IUPHAR_GRAC ID of Ligand>


> <KEGG ID of Ligand>


> <ZINC ID of Ligand>


> <Number of Protein Chains in Target (bigger than 1 implies a multichain complex)>
1

> <BindingDB Target Chain Sequence>
MAGEGDQQDAAHNMGNHLPLLPAESEEEDEMEVEDQDSKEAKKPNIINFDTSLPTSHTYLGADMEEFHGRTLHDDDSCQVIPVLPQVMMILIPGQTLPLQLFHPQEVSMVRNLIQKDRTFAVLAYSNVQEREAQFGTTAEIYAYREEQDFGIEIVKVKAIGRQRFKVLELRTQSDGIQQAKVQILPECVLPSTMSAVQLESLNKCQIFPSKPVSREDQCSYKWWQKYQKRKFHCANLTSWPRWLYSLYDAETLMDRIKKQLREWDENLKDDSLPSNPIDFSYRVAACLPIDDVLRIQLLKIGSAIQRLRCELDIMNKCTSLCCKQCQETEITTKNEIFSLSLCGPMAAYVNPHGYVHETLTVYKACNLNLIGRPSTEHSWFPGYAWTVAQCKICASHIGWKFTATKKDMSPQKFWGLTRSALLPTIPDTEDEISPDKVILCL

> <PDB ID(s) of Target Chain>
8TNR,8TNQ,8TNP,8D81,8D80,8D7Z,8D7Y,8D7X,8D7W,8D7V,8D7U,8CVP,9DQD,8UH6,6BOY,6BNB,6BN9,6BN8,6BN7,6XK9,6UML,5V3O,5HXB,7U8F,8OJH,8OIZ,7LPS,4TZ4,9DJX,9DJT,8U17,8U16,8U15,8TZX,8DEY,9CUO,4M91

> <UniProt (SwissProt) Recommended Name of Target Chain>
Protein cereblon

> <UniProt (SwissProt) Entry Name of Target Chain>
CRBN_HUMAN

> <UniProt (SwissProt) Primary ID of Target Chain>
Q96SW2

> <UniProt (SwissProt) Secondary ID(s) of Target Chain>
B2R6H4 C9IZA9 C9JAH6 Q6AI62 Q6NVZ0 Q9UHW4

> <UniProt (SwissProt) Alternative ID(s) of Target Chain>


> <UniProt (TrEMBL) Submitted Name of Target Chain>


> <UniProt (TrEMBL) Entry Name of Target Chain>


> <UniProt (TrEMBL) Primary ID of Target Chain>


> <UniProt (TrEMBL) Secondary ID(s) of Target Chain>


> <UniProt (TrEMBL) Alternative ID(s) of Target Chain>


$$$$
 
     RDKit          2D

  9  9  0  0  0  0  0  0  0  0999 V2000
   26.4968   -2.5836    0.0000 C   0  0  0  0  0  0  0  0  0  0  0  0
   26.4968   -3.4008    0.0000 C   0  0  0  0  0  0  0  0  0  0  0  0
   27.2021   -3.8053    0.0000 N   0  0  0  0  0  0  0  0  0  0  0  0
   27.9074   -3.4008    0.0000 C   0  0  0  0  0  0  0  0  0  0  0  0
   27.9074   -2.5836    0.0000 N   0  0  0  0  0  0  0  0  0  0  0  0
   27.2021   -2.1709    0.0000 C   0  0  0  0  0  0  0  0  0  0  0  0
   27.2021   -1.3537    0.0000 O   0  0  0  0  0  0  0  0  0  0  0  0
   28.6145   -3.8105    0.0000 O   0  0  0  0  0  0  0  0  0  0  0  0
   27.2021   -4.6225    0.0000 N   0  0  0  0  0  0  0  0  0  0  0  0
  1  2  2  0
  1  6  1  0
  2  3  1  0
  3  4  1  0
  4  5  1  0
  5  6  1  0
  6  7  2  0
  4  8  2  0
  3  9  1  0
M  END
> <From>
www.bindingDB.org

> <BindingDB Reactant_set_id>
51359721

> <Ligand InChI>
InChI=1S/C4H5N3O2/c5-7-2-1-3(8)6-4(7)9/h1-2H,5H2,(H,6,8,9)

> <Ligand InChI Key>
IILMINFWXULDNN-UHFFFAOYSA-N

> <BindingDB MonomerID>
50549811

> <BindingDB Ligand Name>
CHEMBL4759876

> <Target Name>
Protein cereblon

> <Target Source Organism According to Curator or DataSource>
Human

> <Ki (nM)>


> <IC50 (nM)>
 84800

> <Kd (nM)>


> <EC50 (nM)>


> <kon (M-1-s-1)>


> <koff (s-1)>


> <pH>


> <Temp C>


> <Curation/DataSource>
ChEMBL

> <Article DOI>
10.1021/acsmedchemlett.0c00440

> <BindingDB Entry DOI>
10.7270/Q2WM1J1B

> <PMID>
33488967

> <PubChem AID>


> <Patent Number>


> <Authors>
Maiwald, S; Heim, C; Hernandez Alvarez, B; Hartmann, MD

> <Date of publication>
1/14/2021

> <Date in BindingDB>
3/23/2022

> <Institution>
Max Planck Institute for Developmental Biology

> <Link to Ligand in BindingDB>
http://www.bindingdb.org/bind/chemsearch/marvin/MolStructure.jsp?monomerid=50549811

> <Link to Ligand-Target Pair in BindingDB>
http://www.bindingdb.org/jsp/dbsearch/PrimarySearch_ki.jsp?energyterm=kJ/mole&tag=pol&polymerid=50007050&target=Protein+cereblon&column=ki&startPg=0&Increment=50&submit=Search

> <Link to Ligand-Target Pair in BindingDB>
http://www.bindingdb.org/jsp/dbsearch/PrimarySearch_ki.jsp?energyterm=kJ/mole&tag=r21&monomerid=50549811&enzyme=Protein+cereblon&column=ki&startPg=0&Increment=50&submit=Search

> <Ligand HET ID in PDB>


> <PDB ID(s) for Ligand-Target Complex>


> <PubChem CID of Ligand>
5743371

> <PubChem SID of Ligand>
461680151

> <ChEBI ID of Ligand>


> <ChEMBL ID of Ligand>


> <DrugBank ID of Ligand>


> <IUPHAR_GRAC ID of Ligand>


> <KEGG ID of Ligand>


> <ZINC ID of Ligand>


> <Number of Protein Chains in Target (bigger than 1 implies a multichain complex)>
1

> <BindingDB Target Chain Sequence>
MAGEGDQQDAAHNMGNHLPLLPAESEEEDEMEVEDQDSKEAKKPNIINFDTSLPTSHTYLGADMEEFHGRTLHDDDSCQVIPVLPQVMMILIPGQTLPLQLFHPQEVSMVRNLIQKDRTFAVLAYSNVQEREAQFGTTAEIYAYREEQDFGIEIVKVKAIGRQRFKVLELRTQSDGIQQAKVQILPECVLPSTMSAVQLESLNKCQIFPSKPVSREDQCSYKWWQKYQKRKFHCANLTSWPRWLYSLYDAETLMDRIKKQLREWDENLKDDSLPSNPIDFSYRVAACLPIDDVLRIQLLKIGSAIQRLRCELDIMNKCTSLCCKQCQETEITTKNEIFSLSLCGPMAAYVNPHGYVHETLTVYKACNLNLIGRPSTEHSWFPGYAWTVAQCKICASHIGWKFTATKKDMSPQKFWGLTRSALLPTIPDTEDEISPDKVILCL

> <PDB ID(s) of Target Chain>
4TZ4,5HXB,5V3O,6UML,6XK9,7LPS,7U8F,8CVP,8D7U,8D7V,8D7W,8D7X,8D7Y,8D7Z,8D80,8D81,8DEY,8OIZ,8OJH

> <UniProt (SwissProt) Recommended Name of Target Chain>
Protein cereblon

> <UniProt (SwissProt) Entry Name of Target Chain>
CRBN_HUMAN

> <UniProt (SwissProt) Primary ID of Target Chain>
Q96SW2

> <UniProt (SwissProt) Secondary ID(s) of Target Chain>
B2R6H4 C9IZA9 C9JAH6 Q6AI62 Q6NVZ0 Q9UHW4

> <UniProt (SwissProt) Alternative ID(s) of Target Chain>


> <UniProt (TrEMBL) Submitted Name of Target Chain>


> <UniProt (TrEMBL) Entry Name of Target Chain>


> <UniProt (TrEMBL) Primary ID of Target Chain>


> <UniProt (TrEMBL) Secondary ID(s) of Target Chain>


> <UniProt (TrEMBL) Alternative ID(s) of Target Chain>


$$$$
 
     RDKit          2D

 18 19  0  0  0  0  0  0  0  0999 V2000
   -2.4998   -0.2048    0.0000 C   0  0  0  0  0  0  0  0  0  0  0  0
   -1.7852    0.2074    0.0000 C   0  0  0  0  0  0  0  0  0  0  0  0
   -1.0732   -0.2044    0.0000 C   0  0  0  0  0  0  0  0  0  0  0  0
   -1.0732   -1.0296    0.0000 C   0  0  0  0  0  0  0  0  0  0  0  0
   -1.7833   -1.4414    0.0000 C   0  0  0  0  0  0  0  0  0  0  0  0
   -2.4998   -1.0333    0.0000 C   0  0  0  0  0  0  0  0  0  0  0  0
   -0.3585    0.2081    0.0000 C   0  0  0  0  0  0  0  0  0  0  0  0
   -0.3585    1.0333    0.0000 O   0  0  0  0  0  0  0  0  0  0  0  0
    0.3559   -0.2044    0.0000 N   0  0  0  0  0  0  0  0  0  0  0  0
    1.0706    0.2081    0.0000 C   0  0  0  0  0  0  0  0  0  0  0  0
    1.0705    1.0333    0.0000 C   0  0  0  0  0  0  0  0  0  0  0  0
    1.7852    1.4459    0.0000 C   0  0  0  0  0  0  0  0  0  0  0  0
    2.4998    1.0333    0.0000 C   0  0  0  0  0  0  0  0  0  0  0  0
    2.4998    0.2081    0.0000 N   0  0  0  0  0  0  0  0  0  0  0  0
    1.7852   -0.2044    0.0000 C   0  0  0  0  0  0  0  0  0  0  0  0
    1.7852   -1.0296    0.0000 O   0  0  0  0  0  0  0  0  0  0  0  0
    3.2144    1.4459    0.0000 O   0  0  0  0  0  0  0  0  0  0  0  0
   -3.2144   -1.4459    0.0000 N   0  0  0  0  0  0  0  0  0  0  0  0
  2  1  2  0
  3  2  1  0
  4  3  2  0
  5  4  1  0
  6  5  2  0
  1  6  1  0
  3  7  1  0
  7  8  2  0
  7  9  1  0
  9 10  1  0
 11 10  1  0
 12 11  1  0
 13 12  1  0
 14 13  1  0
 15 14  1  0
 10 15  1  0
 15 16  2  0
 13 17  2  0
  6 18  1  0
M  END
> <From>
www.bindingDB.org

> <BindingDB Reactant_set_id>
51567912

> <Ligand InChI>
InChI=1S/C12H13N3O3/c13-8-3-1-7(2-4-8)11(17)14-9-5-6-10(16)15-12(9)18/h1-4,9H,5-6,13H2,(H,14,17)(H,15,16,18)

> <Ligand InChI Key>
JBOKBLSWHXNCMS-UHFFFAOYSA-N

> <BindingDB MonomerID>
50630592

> <BindingDB Ligand Name>
CHEMBL5424655

> <Target Name>
Protein cereblon

> <Target Source Organism According to Curator or DataSource>
Homo sapiens

> <Ki (nM)>


> <IC50 (nM)>
 86000

> <Kd (nM)>


> <EC50 (nM)>


> <kon (M-1-s-1)>


> <koff (s-1)>


> <pH>


> <Temp C>


> <Curation/DataSource>
ChEMBL

> <Article DOI>
10.1021/acs.jmedchem.3c00851

> <BindingDB Entry DOI>
10.7270/Q2PK0MM6

> <PMID>
37902300

> <PubChem AID>


> <Patent Number>


> <Authors>
Steinebach, C; Bricelj, A; Murgai, A; Sosič, I; Bischof, L; Ng, YLD; Heim, C; Maiwald, S; Proj, M; Voget, R; Feller, F; Košmrlj, J; Sapozhnikova, V; Schmidt, A; Zuleeg, MR; Lemnitzer, P; Mertins, P; Hansen, FK; Gütschow, M; Krönke, J; Hartmann, MD

> <Date of publication>
11/9/2023

> <Date in BindingDB>
12/20/2024

> <Institution>
University of Bonn

> <Link to Ligand in BindingDB>
http://www.bindingdb.org/bind/chemsearch/marvin/MolStructure.jsp?monomerid=50630592

> <Link to Ligand-Target Pair in BindingDB>
http://www.bindingdb.org/jsp/dbsearch/PrimarySearch_ki.jsp?energyterm=kJ/mole&tag=pol&polymerid=50007050&target=Protein+cereblon&column=ki&startPg=0&Increment=50&submit=Search

> <Link to Ligand-Target Pair in BindingDB>
http://www.bindingdb.org/jsp/dbsearch/PrimarySearch_ki.jsp?energyterm=kJ/mole&tag=r21&monomerid=50630592&enzyme=Protein+cereblon&column=ki&startPg=0&Increment=50&submit=Search

> <Ligand HET ID in PDB>


> <PDB ID(s) for Ligand-Target Complex>


> <PubChem CID of Ligand>
65956249

> <PubChem SID of Ligand>
505048563

> <ChEBI ID of Ligand>


> <ChEMBL ID of Ligand>


> <DrugBank ID of Ligand>


> <IUPHAR_GRAC ID of Ligand>


> <KEGG ID of Ligand>


> <ZINC ID of Ligand>


> <Number of Protein Chains in Target (bigger than 1 implies a multichain complex)>
1

> <BindingDB Target Chain Sequence>
MAGEGDQQDAAHNMGNHLPLLPAESEEEDEMEVEDQDSKEAKKPNIINFDTSLPTSHTYLGADMEEFHGRTLHDDDSCQVIPVLPQVMMILIPGQTLPLQLFHPQEVSMVRNLIQKDRTFAVLAYSNVQEREAQFGTTAEIYAYREEQDFGIEIVKVKAIGRQRFKVLELRTQSDGIQQAKVQILPECVLPSTMSAVQLESLNKCQIFPSKPVSREDQCSYKWWQKYQKRKFHCANLTSWPRWLYSLYDAETLMDRIKKQLREWDENLKDDSLPSNPIDFSYRVAACLPIDDVLRIQLLKIGSAIQRLRCELDIMNKCTSLCCKQCQETEITTKNEIFSLSLCGPMAAYVNPHGYVHETLTVYKACNLNLIGRPSTEHSWFPGYAWTVAQCKICASHIGWKFTATKKDMSPQKFWGLTRSALLPTIPDTEDEISPDKVILCL

> <PDB ID(s) of Target Chain>
8TNR,8TNQ,8TNP,8D81,8D80,8D7Z,8D7Y,8D7X,8D7W,8D7V,8D7U,8CVP,9DQD,8UH6,6BOY,6BNB,6BN9,6BN8,6BN7,6XK9,6UML,5V3O,5HXB,7U8F,8OJH,8OIZ,7LPS,4TZ4,9DJX,9DJT,8U17,8U16,8U15,8TZX,8DEY,9CUO,4M91

> <UniProt (SwissProt) Recommended Name of Target Chain>
Protein cereblon

> <UniProt (SwissProt) Entry Name of Target Chain>
CRBN_HUMAN

> <UniProt (SwissProt) Primary ID of Target Chain>
Q96SW2

> <UniProt (SwissProt) Secondary ID(s) of Target Chain>
B2R6H4 C9IZA9 C9JAH6 Q6AI62 Q6NVZ0 Q9UHW4

> <UniProt (SwissProt) Alternative ID(s) of Target Chain>


> <UniProt (TrEMBL) Submitted Name of Target Chain>


> <UniProt (TrEMBL) Entry Name of Target Chain>


> <UniProt (TrEMBL) Primary ID of Target Chain>


> <UniProt (TrEMBL) Secondary ID(s) of Target Chain>


> <UniProt (TrEMBL) Alternative ID(s) of Target Chain>


$$$$
 
     RDKit          2D

 22 23  0  0  0  0  0  0  0  0999 V2000
   -1.7852    0.6182    0.0000 C   0  0  0  0  0  0  0  0  0  0  0  0
   -2.4998    0.2059    0.0000 C   0  0  0  0  0  0  0  0  0  0  0  0
   -2.4998   -0.6225    0.0000 C   0  0  0  0  0  0  0  0  0  0  0  0
   -1.7834   -1.0306    0.0000 C   0  0  0  0  0  0  0  0  0  0  0  0
   -1.0733   -0.6188    0.0000 C   0  0  0  0  0  0  0  0  0  0  0  0
   -1.0733    0.2063    0.0000 C   0  0  0  0  0  0  0  0  0  0  0  0
   -0.3587    0.6189    0.0000 C   0  0  0  0  0  0  0  0  0  0  0  0
   -0.3587    1.4440    0.0000 O   0  0  0  0  0  0  0  0  0  0  0  0
    0.3558    0.2063    0.0000 N   0  0  0  0  0  0  0  0  0  0  0  0
    1.0705    0.6189    0.0000 C   0  0  0  0  0  0  0  0  0  0  0  0
    1.0705    1.4440    0.0000 C   0  0  0  0  0  0  0  0  0  0  0  0
    1.7851    1.8566    0.0000 C   0  0  0  0  0  0  0  0  0  0  0  0
    2.4998    1.4440    0.0000 C   0  0  0  0  0  0  0  0  0  0  0  0
    2.4998    0.6189    0.0000 N   0  0  0  0  0  0  0  0  0  0  0  0
    1.7852    0.2063    0.0000 C   0  0  0  0  0  0  0  0  0  0  0  0
    1.7852   -0.6188    0.0000 O   0  0  0  0  0  0  0  0  0  0  0  0
    3.2144    1.8566    0.0000 O   0  0  0  0  0  0  0  0  0  0  0  0
   -0.3587   -1.0314    0.0000 C   0  0  0  0  0  0  0  0  0  0  0  0
   -3.2144   -1.0351    0.0000 N   0  0  0  0  0  0  0  0  0  0  0  0
    0.3558   -0.6188    0.0000 F   0  0  0  0  0  0  0  0  0  0  0  0
   -0.3587   -1.8566    0.0000 F   0  0  0  0  0  0  0  0  0  0  0  0
    0.3558   -1.4440    0.0000 F   0  0  0  0  0  0  0  0  0  0  0  0
  1  2  2  0
  2  3  1  0
  4  3  2  0
  5  4  1  0
  6  5  2  0
  1  6  1  0
  6  7  1  0
  7  8  2  0
  7  9  1  0
  9 10  1  0
 10 11  1  0
 11 12  1  0
 12 13  1  0
 13 14  1  0
 14 15  1  0
 10 15  1  0
 15 16  2  0
 13 17  2  0
  5 18  1  0
  3 19  1  0
 18 20  1  0
 18 21  1  0
 18 22  1  0
M  END
> <From>
www.bindingDB.org

> <BindingDB Reactant_set_id>
51567917

> <Ligand InChI>
InChI=1S/C13H12F3N3O3/c14-13(15,16)8-5-6(17)1-2-7(8)11(21)18-9-3-4-10(20)19-12(9)22/h1-2,5,9H,3-4,17H2,(H,18,21)(H,19,20,22)

> <Ligand InChI Key>
HPKPRXOHNCNKLQ-UHFFFAOYSA-N

> <BindingDB MonomerID>
50630597

> <BindingDB Ligand Name>
CHEMBL5404650

> <Target Name>
Protein cereblon

> <Target Source Organism According to Curator or DataSource>
Homo sapiens

> <Ki (nM)>


> <IC50 (nM)>
 87000

> <Kd (nM)>


> <EC50 (nM)>


> <kon (M-1-s-1)>


> <koff (s-1)>


> <pH>


> <Temp C>


> <Curation/DataSource>
ChEMBL

> <Article DOI>
10.1021/acs.jmedchem.3c00851

> <BindingDB Entry DOI>
10.7270/Q2PK0MM6

> <PMID>
37902300

> <PubChem AID>


> <Patent Number>


> <Authors>
Steinebach, C; Bricelj, A; Murgai, A; Sosič, I; Bischof, L; Ng, YLD; Heim, C; Maiwald, S; Proj, M; Voget, R; Feller, F; Košmrlj, J; Sapozhnikova, V; Schmidt, A; Zuleeg, MR; Lemnitzer, P; Mertins, P; Hansen, FK; Gütschow, M; Krönke, J; Hartmann, MD

> <Date of publication>
11/9/2023

> <Date in BindingDB>
12/20/2024

> <Institution>
University of Bonn

> <Link to Ligand in BindingDB>
http://www.bindingdb.org/bind/chemsearch/marvin/MolStructure.jsp?monomerid=50630597

> <Link to Ligand-Target Pair in BindingDB>
http://www.bindingdb.org/jsp/dbsearch/PrimarySearch_ki.jsp?energyterm=kJ/mole&tag=pol&polymerid=50007050&target=Protein+cereblon&column=ki&startPg=0&Increment=50&submit=Search

> <Link to Ligand-Target Pair in BindingDB>
http://www.bindingdb.org/jsp/dbsearch/PrimarySearch_ki.jsp?energyterm=kJ/mole&tag=r21&monomerid=50630597&enzyme=Protein+cereblon&column=ki&startPg=0&Increment=50&submit=Search

> <Ligand HET ID in PDB>
W1X    

> <PDB ID(s) for Ligand-Target Complex>
8OU5

> <PubChem CID of Ligand>
172443703

> <PubChem SID of Ligand>
505048568

> <ChEBI ID of Ligand>


> <ChEMBL ID of Ligand>


> <DrugBank ID of Ligand>


> <IUPHAR_GRAC ID of Ligand>


> <KEGG ID of Ligand>


> <ZINC ID of Ligand>


> <Number of Protein Chains in Target (bigger than 1 implies a multichain complex)>
1

> <BindingDB Target Chain Sequence>
MAGEGDQQDAAHNMGNHLPLLPAESEEEDEMEVEDQDSKEAKKPNIINFDTSLPTSHTYLGADMEEFHGRTLHDDDSCQVIPVLPQVMMILIPGQTLPLQLFHPQEVSMVRNLIQKDRTFAVLAYSNVQEREAQFGTTAEIYAYREEQDFGIEIVKVKAIGRQRFKVLELRTQSDGIQQAKVQILPECVLPSTMSAVQLESLNKCQIFPSKPVSREDQCSYKWWQKYQKRKFHCANLTSWPRWLYSLYDAETLMDRIKKQLREWDENLKDDSLPSNPIDFSYRVAACLPIDDVLRIQLLKIGSAIQRLRCELDIMNKCTSLCCKQCQETEITTKNEIFSLSLCGPMAAYVNPHGYVHETLTVYKACNLNLIGRPSTEHSWFPGYAWTVAQCKICASHIGWKFTATKKDMSPQKFWGLTRSALLPTIPDTEDEISPDKVILCL

> <PDB ID(s) of Target Chain>
8TNR,8TNQ,8TNP,8D81,8D80,8D7Z,8D7Y,8D7X,8D7W,8D7V,8D7U,8CVP,9DQD,8UH6,6BOY,6BNB,6BN9,6BN8,6BN7,6XK9,6UML,5V3O,5HXB,7U8F,8OJH,8OIZ,7LPS,4TZ4,9DJX,9DJT,8U17,8U16,8U15,8TZX,8DEY,9CUO,4M91

> <UniProt (SwissProt) Recommended Name of Target Chain>
Protein cereblon

> <UniProt (SwissProt) Entry Name of Target Chain>
CRBN_HUMAN

> <UniProt (SwissProt) Primary ID of Target Chain>
Q96SW2

> <UniProt (SwissProt) Secondary ID(s) of Target Chain>
B2R6H4 C9IZA9 C9JAH6 Q6AI62 Q6NVZ0 Q9UHW4

> <UniProt (SwissProt) Alternative ID(s) of Target Chain>


> <UniProt (TrEMBL) Submitted Name of Target Chain>


> <UniProt (TrEMBL) Entry Name of Target Chain>


> <UniProt (TrEMBL) Primary ID of Target Chain>


> <UniProt (TrEMBL) Secondary ID(s) of Target Chain>


> <UniProt (TrEMBL) Alternative ID(s) of Target Chain>


$$$$
 
     RDKit          2D

 22 23  0  0  0  0  0  0  0  0999 V2000
   -1.7852    0.8241    0.0000 C   0  0  0  0  0  0  0  0  0  0  0  0
   -2.4998    0.4118    0.0000 C   0  0  0  0  0  0  0  0  0  0  0  0
   -2.4998   -0.4166    0.0000 C   0  0  0  0  0  0  0  0  0  0  0  0
   -1.7833   -0.8247    0.0000 C   0  0  0  0  0  0  0  0  0  0  0  0
   -1.0733   -0.4129    0.0000 C   0  0  0  0  0  0  0  0  0  0  0  0
   -1.0733    0.4122    0.0000 C   0  0  0  0  0  0  0  0  0  0  0  0
   -0.3585    0.8248    0.0000 C   0  0  0  0  0  0  0  0  0  0  0  0
   -0.3585    1.6500    0.0000 O   0  0  0  0  0  0  0  0  0  0  0  0
    0.3559    0.4122    0.0000 N   0  0  0  0  0  0  0  0  0  0  0  0
    1.0705    0.8248    0.0000 C   0  0  0  0  0  0  0  0  0  0  0  0
    1.0705    1.6499    0.0000 C   0  0  0  0  0  0  0  0  0  0  0  0
    1.7852    2.0625    0.0000 C   0  0  0  0  0  0  0  0  0  0  0  0
    2.4998    1.6499    0.0000 C   0  0  0  0  0  0  0  0  0  0  0  0
    2.4998    0.8248    0.0000 N   0  0  0  0  0  0  0  0  0  0  0  0
    1.7852    0.4122    0.0000 C   0  0  0  0  0  0  0  0  0  0  0  0
    1.7852   -0.4129    0.0000 O   0  0  0  0  0  0  0  0  0  0  0  0
    3.2144    2.0625    0.0000 O   0  0  0  0  0  0  0  0  0  0  0  0
   -0.3585   -0.8255    0.0000 F   0  0  0  0  0  0  0  0  0  0  0  0
   -3.2144   -0.8292    0.0000 N   0  0  0  0  0  0  0  0  0  0  0  0
   -1.7833   -1.6499    0.0000 O   0  0  0  0  0  0  0  0  0  0  0  0
   -1.0688   -2.0625    0.0000 C   0  0  0  0  0  0  0  0  0  0  0  0
   -3.2144    0.8243    0.0000 F   0  0  0  0  0  0  0  0  0  0  0  0
  1  2  2  0
  2  3  1  0
  4  3  2  0
  5  4  1  0
  6  5  2  0
  1  6  1  0
  6  7  1  0
  7  8  2  0
  7  9  1  0
  9 10  1  0
 10 11  1  0
 11 12  1  0
 12 13  1  0
 13 14  1  0
 14 15  1  0
 10 15  1  0
 15 16  2  0
 13 17  2  0
  5 18  1  0
  3 19  1  0
  4 20  1  0
 20 21  1  0
  2 22  1  0
M  END
> <From>
www.bindingDB.org

> <BindingDB Reactant_set_id>
51567921

> <Ligand InChI>
InChI=1S/C13H13F2N3O4/c1-22-11-9(15)5(4-6(14)10(11)16)12(20)17-7-2-3-8(19)18-13(7)21/h4,7H,2-3,16H2,1H3,(H,17,20)(H,18,19,21)

> <Ligand InChI Key>
AJJIOMGESOLWQL-UHFFFAOYSA-N

> <BindingDB MonomerID>
50630601

> <BindingDB Ligand Name>
CHEMBL5403248

> <Target Name>
Protein cereblon

> <Target Source Organism According to Curator or DataSource>
Homo sapiens

> <Ki (nM)>


> <IC50 (nM)>
 90000

> <Kd (nM)>


> <EC50 (nM)>


> <kon (M-1-s-1)>


> <koff (s-1)>


> <pH>


> <Temp C>


> <Curation/DataSource>
ChEMBL

> <Article DOI>
10.1021/acs.jmedchem.3c00851

> <BindingDB Entry DOI>
10.7270/Q2PK0MM6

> <PMID>
37902300

> <PubChem AID>


> <Patent Number>


> <Authors>
Steinebach, C; Bricelj, A; Murgai, A; Sosič, I; Bischof, L; Ng, YLD; Heim, C; Maiwald, S; Proj, M; Voget, R; Feller, F; Košmrlj, J; Sapozhnikova, V; Schmidt, A; Zuleeg, MR; Lemnitzer, P; Mertins, P; Hansen, FK; Gütschow, M; Krönke, J; Hartmann, MD

> <Date of publication>
11/9/2023

> <Date in BindingDB>
12/20/2024

> <Institution>
University of Bonn

> <Link to Ligand in BindingDB>
http://www.bindingdb.org/bind/chemsearch/marvin/MolStructure.jsp?monomerid=50630601

> <Link to Ligand-Target Pair in BindingDB>
http://www.bindingdb.org/jsp/dbsearch/PrimarySearch_ki.jsp?energyterm=kJ/mole&tag=pol&polymerid=50007050&target=Protein+cereblon&column=ki&startPg=0&Increment=50&submit=Search

> <Link to Ligand-Target Pair in BindingDB>
http://www.bindingdb.org/jsp/dbsearch/PrimarySearch_ki.jsp?energyterm=kJ/mole&tag=r21&monomerid=50630601&enzyme=Protein+cereblon&column=ki&startPg=0&Increment=50&submit=Search

> <Ligand HET ID in PDB>
W0Z    

> <PDB ID(s) for Ligand-Target Complex>
8OUA

> <PubChem CID of Ligand>
172445578

> <PubChem SID of Ligand>
505048572

> <ChEBI ID of Ligand>


> <ChEMBL ID of Ligand>


> <DrugBank ID of Ligand>


> <IUPHAR_GRAC ID of Ligand>


> <KEGG ID of Ligand>


> <ZINC ID of Ligand>


> <Number of Protein Chains in Target (bigger than 1 implies a multichain complex)>
1

> <BindingDB Target Chain Sequence>
MAGEGDQQDAAHNMGNHLPLLPAESEEEDEMEVEDQDSKEAKKPNIINFDTSLPTSHTYLGADMEEFHGRTLHDDDSCQVIPVLPQVMMILIPGQTLPLQLFHPQEVSMVRNLIQKDRTFAVLAYSNVQEREAQFGTTAEIYAYREEQDFGIEIVKVKAIGRQRFKVLELRTQSDGIQQAKVQILPECVLPSTMSAVQLESLNKCQIFPSKPVSREDQCSYKWWQKYQKRKFHCANLTSWPRWLYSLYDAETLMDRIKKQLREWDENLKDDSLPSNPIDFSYRVAACLPIDDVLRIQLLKIGSAIQRLRCELDIMNKCTSLCCKQCQETEITTKNEIFSLSLCGPMAAYVNPHGYVHETLTVYKACNLNLIGRPSTEHSWFPGYAWTVAQCKICASHIGWKFTATKKDMSPQKFWGLTRSALLPTIPDTEDEISPDKVILCL

> <PDB ID(s) of Target Chain>
8TNR,8TNQ,8TNP,8D81,8D80,8D7Z,8D7Y,8D7X,8D7W,8D7V,8D7U,8CVP,9DQD,8UH6,6BOY,6BNB,6BN9,6BN8,6BN7,6XK9,6UML,5V3O,5HXB,7U8F,8OJH,8OIZ,7LPS,4TZ4,9DJX,9DJT,8U17,8U16,8U15,8TZX,8DEY,9CUO,4M91

> <UniProt (SwissProt) Recommended Name of Target Chain>
Protein cereblon

> <UniProt (SwissProt) Entry Name of Target Chain>
CRBN_HUMAN

> <UniProt (SwissProt) Primary ID of Target Chain>
Q96SW2

> <UniProt (SwissProt) Secondary ID(s) of Target Chain>
B2R6H4 C9IZA9 C9JAH6 Q6AI62 Q6NVZ0 Q9UHW4

> <UniProt (SwissProt) Alternative ID(s) of Target Chain>


> <UniProt (TrEMBL) Submitted Name of Target Chain>


> <UniProt (TrEMBL) Entry Name of Target Chain>


> <UniProt (TrEMBL) Primary ID of Target Chain>


> <UniProt (TrEMBL) Secondary ID(s) of Target Chain>


> <UniProt (TrEMBL) Alternative ID(s) of Target Chain>


$$$$
 
     RDKit          2D

 19 20  0  0  0  0  0  0  0  0999 V2000
   -2.8571    0.2055    0.0000 C   0  0  0  0  0  0  0  0  0  0  0  0
   -2.1425    0.6178    0.0000 C   0  0  0  0  0  0  0  0  0  0  0  0
   -1.4306    0.2058    0.0000 C   0  0  0  0  0  0  0  0  0  0  0  0
   -1.4306   -0.6192    0.0000 C   0  0  0  0  0  0  0  0  0  0  0  0
   -2.1407   -1.0310    0.0000 C   0  0  0  0  0  0  0  0  0  0  0  0
   -2.8571   -0.6229    0.0000 C   0  0  0  0  0  0  0  0  0  0  0  0
   -0.7160    0.6185    0.0000 C   0  0  0  0  0  0  0  0  0  0  0  0
   -0.7160    1.4436    0.0000 O   0  0  0  0  0  0  0  0  0  0  0  0
   -0.0013    0.2058    0.0000 N   0  0  0  0  0  0  0  0  0  0  0  0
    0.7132    0.6185    0.0000 C   0  0  0  0  0  0  0  0  0  0  0  0
    0.7132    1.4436    0.0000 C   0  0  0  0  0  0  0  0  0  0  0  0
    1.4278    1.8562    0.0000 C   0  0  0  0  0  0  0  0  0  0  0  0
    2.1424    1.4436    0.0000 C   0  0  0  0  0  0  0  0  0  0  0  0
    2.1425    0.6184    0.0000 N   0  0  0  0  0  0  0  0  0  0  0  0
    1.4278    0.2058    0.0000 C   0  0  0  0  0  0  0  0  0  0  0  0
    1.4278   -0.6192    0.0000 O   0  0  0  0  0  0  0  0  0  0  0  0
    2.8571    1.8562    0.0000 O   0  0  0  0  0  0  0  0  0  0  0  0
   -0.7160   -1.0318    0.0000 F   0  0  0  0  0  0  0  0  0  0  0  0
   -2.1407   -1.8562    0.0000 N   0  0  0  0  0  0  0  0  0  0  0  0
  2  1  2  0
  3  2  1  0
  4  3  2  0
  5  4  1  0
  6  5  2  0
  1  6  1  0
  3  7  1  0
  7  8  2  0
  7  9  1  0
  9 10  1  0
 11 10  1  0
 12 11  1  0
 13 12  1  0
 14 13  1  0
 15 14  1  0
 10 15  1  0
 15 16  2  0
 13 17  2  0
  4 18  1  0
  5 19  1  0
M  END
> <From>
www.bindingDB.org

> <BindingDB Reactant_set_id>
51567911

> <Ligand InChI>
InChI=1S/C12H12FN3O3/c13-10-6(2-1-3-7(10)14)11(18)15-8-4-5-9(17)16-12(8)19/h1-3,8H,4-5,14H2,(H,15,18)(H,16,17,19)

> <Ligand InChI Key>
JXKRMKVDNCFRFC-UHFFFAOYSA-N

> <BindingDB MonomerID>
50630591

> <BindingDB Ligand Name>
CHEMBL5411174

> <Target Name>
Protein cereblon

> <Target Source Organism According to Curator or DataSource>
Homo sapiens

> <Ki (nM)>


> <IC50 (nM)>
 93000

> <Kd (nM)>


> <EC50 (nM)>


> <kon (M-1-s-1)>


> <koff (s-1)>


> <pH>


> <Temp C>


> <Curation/DataSource>
ChEMBL

> <Article DOI>
10.1021/acs.jmedchem.3c00851

> <BindingDB Entry DOI>
10.7270/Q2PK0MM6

> <PMID>
37902300

> <PubChem AID>


> <Patent Number>


> <Authors>
Steinebach, C; Bricelj, A; Murgai, A; Sosič, I; Bischof, L; Ng, YLD; Heim, C; Maiwald, S; Proj, M; Voget, R; Feller, F; Košmrlj, J; Sapozhnikova, V; Schmidt, A; Zuleeg, MR; Lemnitzer, P; Mertins, P; Hansen, FK; Gütschow, M; Krönke, J; Hartmann, MD

> <Date of publication>
11/9/2023

> <Date in BindingDB>
12/20/2024

> <Institution>
University of Bonn

> <Link to Ligand in BindingDB>
http://www.bindingdb.org/bind/chemsearch/marvin/MolStructure.jsp?monomerid=50630591

> <Link to Ligand-Target Pair in BindingDB>
http://www.bindingdb.org/jsp/dbsearch/PrimarySearch_ki.jsp?energyterm=kJ/mole&tag=pol&polymerid=50007050&target=Protein+cereblon&column=ki&startPg=0&Increment=50&submit=Search

> <Link to Ligand-Target Pair in BindingDB>
http://www.bindingdb.org/jsp/dbsearch/PrimarySearch_ki.jsp?energyterm=kJ/mole&tag=r21&monomerid=50630591&enzyme=Protein+cereblon&column=ki&startPg=0&Increment=50&submit=Search

> <Ligand HET ID in PDB>


> <PDB ID(s) for Ligand-Target Complex>


> <PubChem CID of Ligand>
172450529

> <PubChem SID of Ligand>
505048562

> <ChEBI ID of Ligand>


> <ChEMBL ID of Ligand>


> <DrugBank ID of Ligand>


> <IUPHAR_GRAC ID of Ligand>


> <KEGG ID of Ligand>


> <ZINC ID of Ligand>


> <Number of Protein Chains in Target (bigger than 1 implies a multichain complex)>
1

> <BindingDB Target Chain Sequence>
MAGEGDQQDAAHNMGNHLPLLPAESEEEDEMEVEDQDSKEAKKPNIINFDTSLPTSHTYLGADMEEFHGRTLHDDDSCQVIPVLPQVMMILIPGQTLPLQLFHPQEVSMVRNLIQKDRTFAVLAYSNVQEREAQFGTTAEIYAYREEQDFGIEIVKVKAIGRQRFKVLELRTQSDGIQQAKVQILPECVLPSTMSAVQLESLNKCQIFPSKPVSREDQCSYKWWQKYQKRKFHCANLTSWPRWLYSLYDAETLMDRIKKQLREWDENLKDDSLPSNPIDFSYRVAACLPIDDVLRIQLLKIGSAIQRLRCELDIMNKCTSLCCKQCQETEITTKNEIFSLSLCGPMAAYVNPHGYVHETLTVYKACNLNLIGRPSTEHSWFPGYAWTVAQCKICASHIGWKFTATKKDMSPQKFWGLTRSALLPTIPDTEDEISPDKVILCL

> <PDB ID(s) of Target Chain>
8TNR,8TNQ,8TNP,8D81,8D80,8D7Z,8D7Y,8D7X,8D7W,8D7V,8D7U,8CVP,9DQD,8UH6,6BOY,6BNB,6BN9,6BN8,6BN7,6XK9,6UML,5V3O,5HXB,7U8F,8OJH,8OIZ,7LPS,4TZ4,9DJX,9DJT,8U17,8U16,8U15,8TZX,8DEY,9CUO,4M91

> <UniProt (SwissProt) Recommended Name of Target Chain>
Protein cereblon

> <UniProt (SwissProt) Entry Name of Target Chain>
CRBN_HUMAN

> <UniProt (SwissProt) Primary ID of Target Chain>
Q96SW2

> <UniProt (SwissProt) Secondary ID(s) of Target Chain>
B2R6H4 C9IZA9 C9JAH6 Q6AI62 Q6NVZ0 Q9UHW4

> <UniProt (SwissProt) Alternative ID(s) of Target Chain>


> <UniProt (TrEMBL) Submitted Name of Target Chain>


> <UniProt (TrEMBL) Entry Name of Target Chain>


> <UniProt (TrEMBL) Primary ID of Target Chain>


> <UniProt (TrEMBL) Secondary ID(s) of Target Chain>


> <UniProt (TrEMBL) Alternative ID(s) of Target Chain>


$$$$
 
     RDKit          2D

 16 17  0  0  0  0  0  0  0  0999 V2000
    4.3182   -3.7506    0.0000 C   0  0  0  0  0  0  0  0  0  0  0  0
    4.9734   -4.2389    0.0000 N   0  0  0  0  0  0  0  0  0  0  0  0
    5.6415   -3.7682    0.0000 C   0  0  0  0  0  0  0  0  0  0  0  0
    5.3981   -2.9854    0.0000 C   0  0  0  0  0  0  0  0  0  0  0  0
    4.5818   -2.9783    0.0000 C   0  0  0  0  0  0  0  0  0  0  0  0
    3.5376   -3.9926    0.0000 O   0  0  0  0  0  0  0  0  0  0  0  0
    6.4152   -4.0313    0.0000 C   0  0  0  0  0  0  0  0  0  0  0  0
    6.5742   -4.8328    0.0000 O   0  0  0  0  0  0  0  0  0  0  0  0
    7.0299   -3.4928    0.0000 N   0  0  0  0  0  0  0  0  0  0  0  0
    7.8036   -3.7558    0.0000 C   0  0  0  0  0  0  0  0  0  0  0  0
    7.9626   -4.5574    0.0000 C   0  0  0  0  0  0  0  0  0  0  0  0
    7.3424   -5.0964    0.0000 C   0  0  0  0  0  0  0  0  0  0  0  0
    7.4989   -5.8948    0.0000 C   0  0  0  0  0  0  0  0  0  0  0  0
    8.2715   -6.1620    0.0000 C   0  0  0  0  0  0  0  0  0  0  0  0
    8.8882   -5.6244    0.0000 C   0  0  0  0  0  0  0  0  0  0  0  0
    8.7322   -4.8195    0.0000 C   0  0  0  0  0  0  0  0  0  0  0  0
  1  2  1  0
  2  3  1  0
  3  4  1  0
  4  5  1  0
  5  1  1  0
  1  6  2  0
  3  7  1  1
  7  8  2  0
  7  9  1  0
  9 10  1  0
 10 11  1  0
 11 12  2  0
 11 16  1  0
 12 13  1  0
 13 14  2  0
 14 15  1  0
 15 16  2  0
M  END
> <From>
www.bindingDB.org

> <BindingDB Reactant_set_id>
51570915

> <Ligand InChI>
InChI=1S/C12H14N2O2/c15-11-7-6-10(14-11)12(16)13-8-9-4-2-1-3-5-9/h1-5,10H,6-8H2,(H,13,16)(H,14,15)/t10-/m0/s1

> <Ligand InChI Key>
MDCKMKIRZIXFCH-JTQLQIEISA-N

> <BindingDB MonomerID>
50631798

> <BindingDB Ligand Name>
CHEMBL4633140

> <Target Name>
Protein cereblon

> <Target Source Organism According to Curator or DataSource>
Homo sapiens

> <Ki (nM)>


> <IC50 (nM)>
>100000

> <Kd (nM)>


> <EC50 (nM)>


> <kon (M-1-s-1)>


> <koff (s-1)>


> <pH>


> <Temp C>


> <Curation/DataSource>
ChEMBL

> <Article DOI>
10.1039/d3md00652b

> <BindingDB Entry DOI>
10.7270/Q2CV4P64

> <PMID>
38389883

> <PubChem AID>


> <Patent Number>


> <Authors>
Liu, Y; Nowak, RP; Che, J; Donovan, KA; Huerta, F; Liu, H; Metivier, RJ; Fischer, ES; Jones, LH

> <Date of publication>
2/21/2024

> <Date in BindingDB>
12/21/2024

> <Institution>
Dana-Farber Cancer Institute

> <Link to Ligand in BindingDB>
http://www.bindingdb.org/bind/chemsearch/marvin/MolStructure.jsp?monomerid=50631798

> <Link to Ligand-Target Pair in BindingDB>
http://www.bindingdb.org/jsp/dbsearch/PrimarySearch_ki.jsp?energyterm=kJ/mole&tag=pol&polymerid=50007050&target=Protein+cereblon&column=ki&startPg=0&Increment=50&submit=Search

> <Link to Ligand-Target Pair in BindingDB>
http://www.bindingdb.org/jsp/dbsearch/PrimarySearch_ki.jsp?energyterm=kJ/mole&tag=r21&monomerid=50631798&enzyme=Protein+cereblon&column=ki&startPg=0&Increment=50&submit=Search

> <Ligand HET ID in PDB>


> <PDB ID(s) for Ligand-Target Complex>


> <PubChem CID of Ligand>
137348

> <PubChem SID of Ligand>
505036132

> <ChEBI ID of Ligand>


> <ChEMBL ID of Ligand>


> <DrugBank ID of Ligand>


> <IUPHAR_GRAC ID of Ligand>


> <KEGG ID of Ligand>


> <ZINC ID of Ligand>


> <Number of Protein Chains in Target (bigger than 1 implies a multichain complex)>
1

> <BindingDB Target Chain Sequence>
MAGEGDQQDAAHNMGNHLPLLPAESEEEDEMEVEDQDSKEAKKPNIINFDTSLPTSHTYLGADMEEFHGRTLHDDDSCQVIPVLPQVMMILIPGQTLPLQLFHPQEVSMVRNLIQKDRTFAVLAYSNVQEREAQFGTTAEIYAYREEQDFGIEIVKVKAIGRQRFKVLELRTQSDGIQQAKVQILPECVLPSTMSAVQLESLNKCQIFPSKPVSREDQCSYKWWQKYQKRKFHCANLTSWPRWLYSLYDAETLMDRIKKQLREWDENLKDDSLPSNPIDFSYRVAACLPIDDVLRIQLLKIGSAIQRLRCELDIMNKCTSLCCKQCQETEITTKNEIFSLSLCGPMAAYVNPHGYVHETLTVYKACNLNLIGRPSTEHSWFPGYAWTVAQCKICASHIGWKFTATKKDMSPQKFWGLTRSALLPTIPDTEDEISPDKVILCL

> <PDB ID(s) of Target Chain>
8TNR,8TNQ,8TNP,8D81,8D80,8D7Z,8D7Y,8D7X,8D7W,8D7V,8D7U,8CVP,9DQD,8UH6,6BOY,6BNB,6BN9,6BN8,6BN7,6XK9,6UML,5V3O,5HXB,7U8F,8OJH,8OIZ,7LPS,4TZ4,9DJX,9DJT,8U17,8U16,8U15,8TZX,8DEY,9CUO,4M91

> <UniProt (SwissProt) Recommended Name of Target Chain>
Protein cereblon

> <UniProt (SwissProt) Entry Name of Target Chain>
CRBN_HUMAN

> <UniProt (SwissProt) Primary ID of Target Chain>
Q96SW2

> <UniProt (SwissProt) Secondary ID(s) of Target Chain>
B2R6H4 C9IZA9 C9JAH6 Q6AI62 Q6NVZ0 Q9UHW4

> <UniProt (SwissProt) Alternative ID(s) of Target Chain>


> <UniProt (TrEMBL) Submitted Name of Target Chain>


> <UniProt (TrEMBL) Entry Name of Target Chain>


> <UniProt (TrEMBL) Primary ID of Target Chain>


> <UniProt (TrEMBL) Secondary ID(s) of Target Chain>


> <UniProt (TrEMBL) Alternative ID(s) of Target Chain>


$$$$
 
     RDKit          2D

 16 17  0  0  0  0  0  0  0  0999 V2000
    0.3625   -1.2371    0.0000 O   0  0  0  0  0  0  0  0  0  0  0  0
    0.3625   -0.4121    0.0000 C   0  0  0  0  0  0  0  0  0  0  0  0
    1.0770    0.0003    0.0000 C   0  0  0  0  0  0  0  0  0  0  0  0
    1.8303   -0.3350    0.0000 N   0  0  0  0  0  0  0  0  0  0  0  0
    2.3821    0.2777    0.0000 C   0  0  0  0  0  0  0  0  0  0  0  0
    3.2071    0.2777    0.0000 O   0  0  0  0  0  0  0  0  0  0  0  0
    1.9698    0.9919    0.0000 C   0  0  0  0  0  0  0  0  0  0  0  0
    1.1631    0.8204    0.0000 C   0  0  0  0  0  0  0  0  0  0  0  0
   -0.3520    0.0003    0.0000 N   0  0  0  0  0  0  0  0  0  0  0  0
   -1.0664   -0.4121    0.0000 C   0  0  0  0  0  0  0  0  0  0  0  0
   -1.7810    0.0003    0.0000 C   0  0  0  0  0  0  0  0  0  0  0  0
   -2.4909   -0.4113    0.0000 C   0  0  0  0  0  0  0  0  0  0  0  0
   -3.2071   -0.0033    0.0000 C   0  0  0  0  0  0  0  0  0  0  0  0
   -3.2071    0.8249    0.0000 C   0  0  0  0  0  0  0  0  0  0  0  0
   -2.4927    1.2371    0.0000 C   0  0  0  0  0  0  0  0  0  0  0  0
   -1.7810    0.8253    0.0000 C   0  0  0  0  0  0  0  0  0  0  0  0
  2  1  2  0
  3  2  1  1
  4  3  1  0
  5  4  1  0
  5  6  2  0
  7  5  1  0
  8  7  1  0
  8  3  1  0
  9  2  1  0
 10  9  1  0
 11 10  1  0
 12 11  1  0
 13 12  2  0
 14 13  1  0
 15 14  2  0
 16 15  1  0
 11 16  2  0
M  END
> <From>
www.bindingDB.org

> <BindingDB Reactant_set_id>
51570916

> <Ligand InChI>
InChI=1S/C12H14N2O2/c15-11-7-6-10(14-11)12(16)13-8-9-4-2-1-3-5-9/h1-5,10H,6-8H2,(H,13,16)(H,14,15)/t10-/m1/s1

> <Ligand InChI Key>
MDCKMKIRZIXFCH-SNVBAGLBSA-N

> <BindingDB MonomerID>
50631799

> <BindingDB Ligand Name>
CHEMBL5410477

> <Target Name>
Protein cereblon

> <Target Source Organism According to Curator or DataSource>
Homo sapiens

> <Ki (nM)>


> <IC50 (nM)>
>100000

> <Kd (nM)>


> <EC50 (nM)>


> <kon (M-1-s-1)>


> <koff (s-1)>


> <pH>


> <Temp C>


> <Curation/DataSource>
ChEMBL

> <Article DOI>
10.1039/d3md00652b

> <BindingDB Entry DOI>
10.7270/Q2CV4P64

> <PMID>
38389883

> <PubChem AID>


> <Patent Number>


> <Authors>
Liu, Y; Nowak, RP; Che, J; Donovan, KA; Huerta, F; Liu, H; Metivier, RJ; Fischer, ES; Jones, LH

> <Date of publication>
2/21/2024

> <Date in BindingDB>
12/21/2024

> <Institution>
Dana-Farber Cancer Institute

> <Link to Ligand in BindingDB>
http://www.bindingdb.org/bind/chemsearch/marvin/MolStructure.jsp?monomerid=50631799

> <Link to Ligand-Target Pair in BindingDB>
http://www.bindingdb.org/jsp/dbsearch/PrimarySearch_ki.jsp?energyterm=kJ/mole&tag=pol&polymerid=50007050&target=Protein+cereblon&column=ki&startPg=0&Increment=50&submit=Search

> <Link to Ligand-Target Pair in BindingDB>
http://www.bindingdb.org/jsp/dbsearch/PrimarySearch_ki.jsp?energyterm=kJ/mole&tag=r21&monomerid=50631799&enzyme=Protein+cereblon&column=ki&startPg=0&Increment=50&submit=Search

> <Ligand HET ID in PDB>


> <PDB ID(s) for Ligand-Target Complex>


> <PubChem CID of Ligand>
7034154

> <PubChem SID of Ligand>
505036133

> <ChEBI ID of Ligand>


> <ChEMBL ID of Ligand>


> <DrugBank ID of Ligand>


> <IUPHAR_GRAC ID of Ligand>


> <KEGG ID of Ligand>


> <ZINC ID of Ligand>


> <Number of Protein Chains in Target (bigger than 1 implies a multichain complex)>
1

> <BindingDB Target Chain Sequence>
MAGEGDQQDAAHNMGNHLPLLPAESEEEDEMEVEDQDSKEAKKPNIINFDTSLPTSHTYLGADMEEFHGRTLHDDDSCQVIPVLPQVMMILIPGQTLPLQLFHPQEVSMVRNLIQKDRTFAVLAYSNVQEREAQFGTTAEIYAYREEQDFGIEIVKVKAIGRQRFKVLELRTQSDGIQQAKVQILPECVLPSTMSAVQLESLNKCQIFPSKPVSREDQCSYKWWQKYQKRKFHCANLTSWPRWLYSLYDAETLMDRIKKQLREWDENLKDDSLPSNPIDFSYRVAACLPIDDVLRIQLLKIGSAIQRLRCELDIMNKCTSLCCKQCQETEITTKNEIFSLSLCGPMAAYVNPHGYVHETLTVYKACNLNLIGRPSTEHSWFPGYAWTVAQCKICASHIGWKFTATKKDMSPQKFWGLTRSALLPTIPDTEDEISPDKVILCL

> <PDB ID(s) of Target Chain>
8TNR,8TNQ,8TNP,8D81,8D80,8D7Z,8D7Y,8D7X,8D7W,8D7V,8D7U,8CVP,9DQD,8UH6,6BOY,6BNB,6BN9,6BN8,6BN7,6XK9,6UML,5V3O,5HXB,7U8F,8OJH,8OIZ,7LPS,4TZ4,9DJX,9DJT,8U17,8U16,8U15,8TZX,8DEY,9CUO,4M91

> <UniProt (SwissProt) Recommended Name of Target Chain>
Protein cereblon

> <UniProt (SwissProt) Entry Name of Target Chain>
CRBN_HUMAN

> <UniProt (SwissProt) Primary ID of Target Chain>
Q96SW2

> <UniProt (SwissProt) Secondary ID(s) of Target Chain>
B2R6H4 C9IZA9 C9JAH6 Q6AI62 Q6NVZ0 Q9UHW4

> <UniProt (SwissProt) Alternative ID(s) of Target Chain>


> <UniProt (TrEMBL) Submitted Name of Target Chain>


> <UniProt (TrEMBL) Entry Name of Target Chain>


> <UniProt (TrEMBL) Primary ID of Target Chain>


> <UniProt (TrEMBL) Secondary ID(s) of Target Chain>


> <UniProt (TrEMBL) Alternative ID(s) of Target Chain>


$$$$
 
     RDKit          2D

 20 21  0  0  0  0  0  0  0  0999 V2000
    1.1322   -1.2352    0.0000 O   0  0  0  0  0  0  0  0  0  0  0  0
    1.1322   -0.4102    0.0000 C   0  0  0  0  0  0  0  0  0  0  0  0
    1.8466    0.0021    0.0000 C   0  0  0  0  0  0  0  0  0  0  0  0
    2.5998   -0.3331    0.0000 N   0  0  0  0  0  0  0  0  0  0  0  0
    3.1517    0.2796    0.0000 C   0  0  0  0  0  0  0  0  0  0  0  0
    3.9766    0.2796    0.0000 O   0  0  0  0  0  0  0  0  0  0  0  0
    2.7393    0.9936    0.0000 C   0  0  0  0  0  0  0  0  0  0  0  0
    1.9328    0.8222    0.0000 C   0  0  0  0  0  0  0  0  0  0  0  0
    0.4177    0.0021    0.0000 N   0  0  0  0  0  0  0  0  0  0  0  0
   -0.2966   -0.4102    0.0000 C   0  0  0  0  0  0  0  0  0  0  0  0
   -1.0111    0.0021    0.0000 C   0  0  0  0  0  0  0  0  0  0  0  0
   -1.7210   -0.4094    0.0000 C   0  0  0  0  0  0  0  0  0  0  0  0
   -2.4371   -0.0015    0.0000 C   0  0  0  0  0  0  0  0  0  0  0  0
   -2.4371    0.8267    0.0000 C   0  0  0  0  0  0  0  0  0  0  0  0
   -1.7227    1.2389    0.0000 C   0  0  0  0  0  0  0  0  0  0  0  0
   -1.0111    0.8271    0.0000 C   0  0  0  0  0  0  0  0  0  0  0  0
   -3.1516   -0.4139    0.0000 S   0  0  0  0  0  0  0  0  0  0  0  0
   -3.1516   -1.2389    0.0000 F   0  0  0  0  0  0  0  0  0  0  0  0
   -3.5648    0.3017    0.0000 O   0  0  0  0  0  0  0  0  0  0  0  0
   -3.9766   -0.4139    0.0000 O   0  0  0  0  0  0  0  0  0  0  0  0
  2  1  2  0
  3  2  1  6
  4  3  1  0
  5  4  1  0
  5  6  2  0
  7  5  1  0
  8  7  1  0
  8  3  1  0
  9  2  1  0
 10  9  1  0
 11 10  1  0
 12 11  1  0
 13 12  2  0
 14 13  1  0
 15 14  2  0
 16 15  1  0
 11 16  2  0
 13 17  1  0
 17 18  1  0
 17 19  2  0
 17 20  2  0
M  END
> <From>
www.bindingDB.org

> <BindingDB Reactant_set_id>
51570920

> <Ligand InChI>
InChI=1S/C12H13FN2O4S/c13-20(18,19)9-3-1-2-8(6-9)7-14-12(17)10-4-5-11(16)15-10/h1-3,6,10H,4-5,7H2,(H,14,17)(H,15,16)/t10-/m0/s1

> <Ligand InChI Key>
CJYCQQJXIMHETF-JTQLQIEISA-N

> <BindingDB MonomerID>
50631803

> <BindingDB Ligand Name>
CHEMBL5422831

> <Target Name>
Protein cereblon

> <Target Source Organism According to Curator or DataSource>
Homo sapiens

> <Ki (nM)>


> <IC50 (nM)>
>100000

> <Kd (nM)>


> <EC50 (nM)>


> <kon (M-1-s-1)>


> <koff (s-1)>


> <pH>


> <Temp C>


> <Curation/DataSource>
ChEMBL

> <Article DOI>
10.1039/d3md00652b

> <BindingDB Entry DOI>
10.7270/Q2CV4P64

> <PMID>
38389883

> <PubChem AID>


> <Patent Number>


> <Authors>
Liu, Y; Nowak, RP; Che, J; Donovan, KA; Huerta, F; Liu, H; Metivier, RJ; Fischer, ES; Jones, LH

> <Date of publication>
2/21/2024

> <Date in BindingDB>
12/21/2024

> <Institution>
Dana-Farber Cancer Institute

> <Link to Ligand in BindingDB>
http://www.bindingdb.org/bind/chemsearch/marvin/MolStructure.jsp?monomerid=50631803

> <Link to Ligand-Target Pair in BindingDB>
http://www.bindingdb.org/jsp/dbsearch/PrimarySearch_ki.jsp?energyterm=kJ/mole&tag=pol&polymerid=50007050&target=Protein+cereblon&column=ki&startPg=0&Increment=50&submit=Search

> <Link to Ligand-Target Pair in BindingDB>
http://www.bindingdb.org/jsp/dbsearch/PrimarySearch_ki.jsp?energyterm=kJ/mole&tag=r21&monomerid=50631803&enzyme=Protein+cereblon&column=ki&startPg=0&Increment=50&submit=Search

> <Ligand HET ID in PDB>


> <PDB ID(s) for Ligand-Target Complex>


> <PubChem CID of Ligand>
172457867

> <PubChem SID of Ligand>
505036137

> <ChEBI ID of Ligand>


> <ChEMBL ID of Ligand>


> <DrugBank ID of Ligand>


> <IUPHAR_GRAC ID of Ligand>


> <KEGG ID of Ligand>


> <ZINC ID of Ligand>


> <Number of Protein Chains in Target (bigger than 1 implies a multichain complex)>
1

> <BindingDB Target Chain Sequence>
MAGEGDQQDAAHNMGNHLPLLPAESEEEDEMEVEDQDSKEAKKPNIINFDTSLPTSHTYLGADMEEFHGRTLHDDDSCQVIPVLPQVMMILIPGQTLPLQLFHPQEVSMVRNLIQKDRTFAVLAYSNVQEREAQFGTTAEIYAYREEQDFGIEIVKVKAIGRQRFKVLELRTQSDGIQQAKVQILPECVLPSTMSAVQLESLNKCQIFPSKPVSREDQCSYKWWQKYQKRKFHCANLTSWPRWLYSLYDAETLMDRIKKQLREWDENLKDDSLPSNPIDFSYRVAACLPIDDVLRIQLLKIGSAIQRLRCELDIMNKCTSLCCKQCQETEITTKNEIFSLSLCGPMAAYVNPHGYVHETLTVYKACNLNLIGRPSTEHSWFPGYAWTVAQCKICASHIGWKFTATKKDMSPQKFWGLTRSALLPTIPDTEDEISPDKVILCL

> <PDB ID(s) of Target Chain>
8TNR,8TNQ,8TNP,8D81,8D80,8D7Z,8D7Y,8D7X,8D7W,8D7V,8D7U,8CVP,9DQD,8UH6,6BOY,6BNB,6BN9,6BN8,6BN7,6XK9,6UML,5V3O,5HXB,7U8F,8OJH,8OIZ,7LPS,4TZ4,9DJX,9DJT,8U17,8U16,8U15,8TZX,8DEY,9CUO,4M91

> <UniProt (SwissProt) Recommended Name of Target Chain>
Protein cereblon

> <UniProt (SwissProt) Entry Name of Target Chain>
CRBN_HUMAN

> <UniProt (SwissProt) Primary ID of Target Chain>
Q96SW2

> <UniProt (SwissProt) Secondary ID(s) of Target Chain>
B2R6H4 C9IZA9 C9JAH6 Q6AI62 Q6NVZ0 Q9UHW4

> <UniProt (SwissProt) Alternative ID(s) of Target Chain>


> <UniProt (TrEMBL) Submitted Name of Target Chain>


> <UniProt (TrEMBL) Entry Name of Target Chain>


> <UniProt (TrEMBL) Primary ID of Target Chain>


> <UniProt (TrEMBL) Secondary ID(s) of Target Chain>


> <UniProt (TrEMBL) Alternative ID(s) of Target Chain>


$$$$
 
     RDKit          2D

 20 21  0  0  0  0  0  0  0  0999 V2000
    1.1322   -1.2353    0.0000 O   0  0  0  0  0  0  0  0  0  0  0  0
    1.1322   -0.4103    0.0000 C   0  0  0  0  0  0  0  0  0  0  0  0
    1.8468    0.0021    0.0000 C   0  0  0  0  0  0  0  0  0  0  0  0
    2.6001   -0.3332    0.0000 N   0  0  0  0  0  0  0  0  0  0  0  0
    3.1519    0.2796    0.0000 C   0  0  0  0  0  0  0  0  0  0  0  0
    3.9769    0.2796    0.0000 O   0  0  0  0  0  0  0  0  0  0  0  0
    2.7396    0.9937    0.0000 C   0  0  0  0  0  0  0  0  0  0  0  0
    1.9329    0.8222    0.0000 C   0  0  0  0  0  0  0  0  0  0  0  0
    0.4177    0.0021    0.0000 N   0  0  0  0  0  0  0  0  0  0  0  0
   -0.2966   -0.4103    0.0000 C   0  0  0  0  0  0  0  0  0  0  0  0
   -1.0112    0.0021    0.0000 C   0  0  0  0  0  0  0  0  0  0  0  0
   -1.7211   -0.4094    0.0000 C   0  0  0  0  0  0  0  0  0  0  0  0
   -2.4373   -0.0015    0.0000 C   0  0  0  0  0  0  0  0  0  0  0  0
   -3.1519   -0.4140    0.0000 S   0  0  0  0  0  0  0  0  0  0  0  0
   -3.9769   -0.4140    0.0000 O   0  0  0  0  0  0  0  0  0  0  0  0
   -3.5651    0.3018    0.0000 O   0  0  0  0  0  0  0  0  0  0  0  0
   -3.1519   -1.2390    0.0000 F   0  0  0  0  0  0  0  0  0  0  0  0
   -2.4373    0.8268    0.0000 C   0  0  0  0  0  0  0  0  0  0  0  0
   -1.7229    1.2390    0.0000 C   0  0  0  0  0  0  0  0  0  0  0  0
   -1.0112    0.8272    0.0000 C   0  0  0  0  0  0  0  0  0  0  0  0
  2  1  2  0
  3  2  1  1
  4  3  1  0
  5  4  1  0
  5  6  2  0
  7  5  1  0
  8  7  1  0
  8  3  1  0
  9  2  1  0
 10  9  1  0
 11 10  1  0
 12 11  1  0
 13 12  2  0
 13 14  1  0
 14 15  2  0
 14 16  2  0
 14 17  1  0
 18 13  1  0
 19 18  2  0
 20 19  1  0
 11 20  2  0
M  END
> <From>
www.bindingDB.org

> <BindingDB Reactant_set_id>
51570921

> <Ligand InChI>
InChI=1S/C12H13FN2O4S/c13-20(18,19)9-3-1-2-8(6-9)7-14-12(17)10-4-5-11(16)15-10/h1-3,6,10H,4-5,7H2,(H,14,17)(H,15,16)/t10-/m1/s1

> <Ligand InChI Key>
CJYCQQJXIMHETF-SNVBAGLBSA-N

> <BindingDB MonomerID>
50631804

> <BindingDB Ligand Name>
CHEMBL5419662

> <Target Name>
Protein cereblon

> <Target Source Organism According to Curator or DataSource>
Homo sapiens

> <Ki (nM)>


> <IC50 (nM)>
>100000

> <Kd (nM)>


> <EC50 (nM)>


> <kon (M-1-s-1)>


> <koff (s-1)>


> <pH>


> <Temp C>


> <Curation/DataSource>
ChEMBL

> <Article DOI>
10.1039/d3md00652b

> <BindingDB Entry DOI>
10.7270/Q2CV4P64

> <PMID>
38389883

> <PubChem AID>


> <Patent Number>


> <Authors>
Liu, Y; Nowak, RP; Che, J; Donovan, KA; Huerta, F; Liu, H; Metivier, RJ; Fischer, ES; Jones, LH

> <Date of publication>
2/21/2024

> <Date in BindingDB>
12/21/2024

> <Institution>
Dana-Farber Cancer Institute

> <Link to Ligand in BindingDB>
http://www.bindingdb.org/bind/chemsearch/marvin/MolStructure.jsp?monomerid=50631804

> <Link to Ligand-Target Pair in BindingDB>
http://www.bindingdb.org/jsp/dbsearch/PrimarySearch_ki.jsp?energyterm=kJ/mole&tag=pol&polymerid=50007050&target=Protein+cereblon&column=ki&startPg=0&Increment=50&submit=Search

> <Link to Ligand-Target Pair in BindingDB>
http://www.bindingdb.org/jsp/dbsearch/PrimarySearch_ki.jsp?energyterm=kJ/mole&tag=r21&monomerid=50631804&enzyme=Protein+cereblon&column=ki&startPg=0&Increment=50&submit=Search

> <Ligand HET ID in PDB>


> <PDB ID(s) for Ligand-Target Complex>


> <PubChem CID of Ligand>
172457325

> <PubChem SID of Ligand>
505036138

> <ChEBI ID of Ligand>


> <ChEMBL ID of Ligand>


> <DrugBank ID of Ligand>


> <IUPHAR_GRAC ID of Ligand>


> <KEGG ID of Ligand>


> <ZINC ID of Ligand>


> <Number of Protein Chains in Target (bigger than 1 implies a multichain complex)>
1

> <BindingDB Target Chain Sequence>
MAGEGDQQDAAHNMGNHLPLLPAESEEEDEMEVEDQDSKEAKKPNIINFDTSLPTSHTYLGADMEEFHGRTLHDDDSCQVIPVLPQVMMILIPGQTLPLQLFHPQEVSMVRNLIQKDRTFAVLAYSNVQEREAQFGTTAEIYAYREEQDFGIEIVKVKAIGRQRFKVLELRTQSDGIQQAKVQILPECVLPSTMSAVQLESLNKCQIFPSKPVSREDQCSYKWWQKYQKRKFHCANLTSWPRWLYSLYDAETLMDRIKKQLREWDENLKDDSLPSNPIDFSYRVAACLPIDDVLRIQLLKIGSAIQRLRCELDIMNKCTSLCCKQCQETEITTKNEIFSLSLCGPMAAYVNPHGYVHETLTVYKACNLNLIGRPSTEHSWFPGYAWTVAQCKICASHIGWKFTATKKDMSPQKFWGLTRSALLPTIPDTEDEISPDKVILCL

> <PDB ID(s) of Target Chain>
8TNR,8TNQ,8TNP,8D81,8D80,8D7Z,8D7Y,8D7X,8D7W,8D7V,8D7U,8CVP,9DQD,8UH6,6BOY,6BNB,6BN9,6BN8,6BN7,6XK9,6UML,5V3O,5HXB,7U8F,8OJH,8OIZ,7LPS,4TZ4,9DJX,9DJT,8U17,8U16,8U15,8TZX,8DEY,9CUO,4M91

> <UniProt (SwissProt) Recommended Name of Target Chain>
Protein cereblon

> <UniProt (SwissProt) Entry Name of Target Chain>
CRBN_HUMAN

> <UniProt (SwissProt) Primary ID of Target Chain>
Q96SW2

> <UniProt (SwissProt) Secondary ID(s) of Target Chain>
B2R6H4 C9IZA9 C9JAH6 Q6AI62 Q6NVZ0 Q9UHW4

> <UniProt (SwissProt) Alternative ID(s) of Target Chain>


> <UniProt (TrEMBL) Submitted Name of Target Chain>


> <UniProt (TrEMBL) Entry Name of Target Chain>


> <UniProt (TrEMBL) Primary ID of Target Chain>


> <UniProt (TrEMBL) Secondary ID(s) of Target Chain>


> <UniProt (TrEMBL) Alternative ID(s) of Target Chain>


$$$$
 
     RDKit          2D

 20 21  0  0  0  0  0  0  0  0999 V2000
    1.0770   -1.5952    0.0000 O   0  0  0  0  0  0  0  0  0  0  0  0
    1.0770   -0.7702    0.0000 C   0  0  0  0  0  0  0  0  0  0  0  0
    1.7914   -0.3577    0.0000 C   0  0  0  0  0  0  0  0  0  0  0  0
    2.5448   -0.6931    0.0000 N   0  0  0  0  0  0  0  0  0  0  0  0
    3.0966   -0.0803    0.0000 C   0  0  0  0  0  0  0  0  0  0  0  0
    3.9217   -0.0803    0.0000 O   0  0  0  0  0  0  0  0  0  0  0  0
    2.6843    0.6338    0.0000 C   0  0  0  0  0  0  0  0  0  0  0  0
    1.8776    0.4623    0.0000 C   0  0  0  0  0  0  0  0  0  0  0  0
    0.3625   -0.3577    0.0000 N   0  0  0  0  0  0  0  0  0  0  0  0
   -0.3520   -0.7702    0.0000 C   0  0  0  0  0  0  0  0  0  0  0  0
   -1.0664   -0.3577    0.0000 C   0  0  0  0  0  0  0  0  0  0  0  0
   -1.7764   -0.7694    0.0000 C   0  0  0  0  0  0  0  0  0  0  0  0
   -2.4927   -0.3613    0.0000 C   0  0  0  0  0  0  0  0  0  0  0  0
   -2.4927    0.4668    0.0000 C   0  0  0  0  0  0  0  0  0  0  0  0
   -1.7782    0.8791    0.0000 C   0  0  0  0  0  0  0  0  0  0  0  0
   -1.0664    0.4673    0.0000 C   0  0  0  0  0  0  0  0  0  0  0  0
   -3.2071    0.8794    0.0000 S   0  0  0  0  0  0  0  0  0  0  0  0
   -3.9217    0.4668    0.0000 F   0  0  0  0  0  0  0  0  0  0  0  0
   -2.7939    1.5952    0.0000 O   0  0  0  0  0  0  0  0  0  0  0  0
   -3.6197    1.5952    0.0000 O   0  0  0  0  0  0  0  0  0  0  0  0
  2  1  2  0
  3  2  1  6
  4  3  1  0
  5  4  1  0
  5  6  2  0
  7  5  1  0
  8  7  1  0
  8  3  1  0
  9  2  1  0
 10  9  1  0
 11 10  1  0
 12 11  1  0
 13 12  2  0
 14 13  1  0
 15 14  2  0
 16 15  1  0
 11 16  2  0
 14 17  1  0
 17 18  1  0
 17 19  2  0
 17 20  2  0
M  END
> <From>
www.bindingDB.org

> <BindingDB Reactant_set_id>
51570925

> <Ligand InChI>
InChI=1S/C12H13FN2O4S/c13-20(18,19)9-3-1-8(2-4-9)7-14-12(17)10-5-6-11(16)15-10/h1-4,10H,5-7H2,(H,14,17)(H,15,16)/t10-/m0/s1

> <Ligand InChI Key>
HNGGNEIRFTXTHE-JTQLQIEISA-N

> <BindingDB MonomerID>
50631808

> <BindingDB Ligand Name>
CHEMBL5425952

> <Target Name>
Protein cereblon

> <Target Source Organism According to Curator or DataSource>
Homo sapiens

> <Ki (nM)>


> <IC50 (nM)>
>100000

> <Kd (nM)>


> <EC50 (nM)>


> <kon (M-1-s-1)>


> <koff (s-1)>


> <pH>


> <Temp C>


> <Curation/DataSource>
ChEMBL

> <Article DOI>
10.1039/d3md00652b

> <BindingDB Entry DOI>
10.7270/Q2CV4P64

> <PMID>
38389883

> <PubChem AID>


> <Patent Number>


> <Authors>
Liu, Y; Nowak, RP; Che, J; Donovan, KA; Huerta, F; Liu, H; Metivier, RJ; Fischer, ES; Jones, LH

> <Date of publication>
2/21/2024

> <Date in BindingDB>
12/21/2024

> <Institution>
Dana-Farber Cancer Institute

> <Link to Ligand in BindingDB>
http://www.bindingdb.org/bind/chemsearch/marvin/MolStructure.jsp?monomerid=50631808

> <Link to Ligand-Target Pair in BindingDB>
http://www.bindingdb.org/jsp/dbsearch/PrimarySearch_ki.jsp?energyterm=kJ/mole&tag=pol&polymerid=50007050&target=Protein+cereblon&column=ki&startPg=0&Increment=50&submit=Search

> <Link to Ligand-Target Pair in BindingDB>
http://www.bindingdb.org/jsp/dbsearch/PrimarySearch_ki.jsp?energyterm=kJ/mole&tag=r21&monomerid=50631808&enzyme=Protein+cereblon&column=ki&startPg=0&Increment=50&submit=Search

> <Ligand HET ID in PDB>


> <PDB ID(s) for Ligand-Target Complex>


> <PubChem CID of Ligand>
172459458

> <PubChem SID of Ligand>
505036142

> <ChEBI ID of Ligand>


> <ChEMBL ID of Ligand>


> <DrugBank ID of Ligand>


> <IUPHAR_GRAC ID of Ligand>


> <KEGG ID of Ligand>


> <ZINC ID of Ligand>


> <Number of Protein Chains in Target (bigger than 1 implies a multichain complex)>
1

> <BindingDB Target Chain Sequence>
MAGEGDQQDAAHNMGNHLPLLPAESEEEDEMEVEDQDSKEAKKPNIINFDTSLPTSHTYLGADMEEFHGRTLHDDDSCQVIPVLPQVMMILIPGQTLPLQLFHPQEVSMVRNLIQKDRTFAVLAYSNVQEREAQFGTTAEIYAYREEQDFGIEIVKVKAIGRQRFKVLELRTQSDGIQQAKVQILPECVLPSTMSAVQLESLNKCQIFPSKPVSREDQCSYKWWQKYQKRKFHCANLTSWPRWLYSLYDAETLMDRIKKQLREWDENLKDDSLPSNPIDFSYRVAACLPIDDVLRIQLLKIGSAIQRLRCELDIMNKCTSLCCKQCQETEITTKNEIFSLSLCGPMAAYVNPHGYVHETLTVYKACNLNLIGRPSTEHSWFPGYAWTVAQCKICASHIGWKFTATKKDMSPQKFWGLTRSALLPTIPDTEDEISPDKVILCL

> <PDB ID(s) of Target Chain>
8TNR,8TNQ,8TNP,8D81,8D80,8D7Z,8D7Y,8D7X,8D7W,8D7V,8D7U,8CVP,9DQD,8UH6,6BOY,6BNB,6BN9,6BN8,6BN7,6XK9,6UML,5V3O,5HXB,7U8F,8OJH,8OIZ,7LPS,4TZ4,9DJX,9DJT,8U17,8U16,8U15,8TZX,8DEY,9CUO,4M91

> <UniProt (SwissProt) Recommended Name of Target Chain>
Protein cereblon

> <UniProt (SwissProt) Entry Name of Target Chain>
CRBN_HUMAN

> <UniProt (SwissProt) Primary ID of Target Chain>
Q96SW2

> <UniProt (SwissProt) Secondary ID(s) of Target Chain>
B2R6H4 C9IZA9 C9JAH6 Q6AI62 Q6NVZ0 Q9UHW4

> <UniProt (SwissProt) Alternative ID(s) of Target Chain>


> <UniProt (TrEMBL) Submitted Name of Target Chain>


> <UniProt (TrEMBL) Entry Name of Target Chain>


> <UniProt (TrEMBL) Primary ID of Target Chain>


> <UniProt (TrEMBL) Secondary ID(s) of Target Chain>


> <UniProt (TrEMBL) Alternative ID(s) of Target Chain>


$$$$
 
     RDKit          2D

 20 21  0  0  0  0  0  0  0  0999 V2000
    1.0770   -1.5952    0.0000 O   0  0  0  0  0  0  0  0  0  0  0  0
    1.0770   -0.7702    0.0000 C   0  0  0  0  0  0  0  0  0  0  0  0
    1.7914   -0.3577    0.0000 C   0  0  0  0  0  0  0  0  0  0  0  0
    2.5448   -0.6931    0.0000 N   0  0  0  0  0  0  0  0  0  0  0  0
    3.0966   -0.0803    0.0000 C   0  0  0  0  0  0  0  0  0  0  0  0
    3.9217   -0.0803    0.0000 O   0  0  0  0  0  0  0  0  0  0  0  0
    2.6843    0.6338    0.0000 C   0  0  0  0  0  0  0  0  0  0  0  0
    1.8776    0.4623    0.0000 C   0  0  0  0  0  0  0  0  0  0  0  0
    0.3625   -0.3577    0.0000 N   0  0  0  0  0  0  0  0  0  0  0  0
   -0.3520   -0.7702    0.0000 C   0  0  0  0  0  0  0  0  0  0  0  0
   -1.0664   -0.3577    0.0000 C   0  0  0  0  0  0  0  0  0  0  0  0
   -1.7764   -0.7694    0.0000 C   0  0  0  0  0  0  0  0  0  0  0  0
   -2.4927   -0.3614    0.0000 C   0  0  0  0  0  0  0  0  0  0  0  0
   -2.4927    0.4668    0.0000 C   0  0  0  0  0  0  0  0  0  0  0  0
   -1.7782    0.8791    0.0000 C   0  0  0  0  0  0  0  0  0  0  0  0
   -1.0664    0.4673    0.0000 C   0  0  0  0  0  0  0  0  0  0  0  0
   -3.2071    0.8794    0.0000 S   0  0  0  0  0  0  0  0  0  0  0  0
   -3.9217    0.4668    0.0000 F   0  0  0  0  0  0  0  0  0  0  0  0
   -2.7939    1.5952    0.0000 O   0  0  0  0  0  0  0  0  0  0  0  0
   -3.6189    1.5952    0.0000 O   0  0  0  0  0  0  0  0  0  0  0  0
  2  1  2  0
  3  2  1  1
  4  3  1  0
  5  4  1  0
  5  6  2  0
  7  5  1  0
  8  7  1  0
  8  3  1  0
  9  2  1  0
 10  9  1  0
 11 10  1  0
 12 11  1  0
 13 12  2  0
 14 13  1  0
 15 14  2  0
 16 15  1  0
 11 16  2  0
 14 17  1  0
 17 18  1  0
 17 19  2  0
 17 20  2  0
M  END
> <From>
www.bindingDB.org

> <BindingDB Reactant_set_id>
51570926

> <Ligand InChI>
InChI=1S/C12H13FN2O4S/c13-20(18,19)9-3-1-8(2-4-9)7-14-12(17)10-5-6-11(16)15-10/h1-4,10H,5-7H2,(H,14,17)(H,15,16)/t10-/m1/s1

> <Ligand InChI Key>
HNGGNEIRFTXTHE-SNVBAGLBSA-N

> <BindingDB MonomerID>
50631809

> <BindingDB Ligand Name>
CHEMBL5406424

> <Target Name>
Protein cereblon

> <Target Source Organism According to Curator or DataSource>
Homo sapiens

> <Ki (nM)>


> <IC50 (nM)>
>100000

> <Kd (nM)>


> <EC50 (nM)>


> <kon (M-1-s-1)>


> <koff (s-1)>


> <pH>


> <Temp C>


> <Curation/DataSource>
ChEMBL

> <Article DOI>
10.1039/d3md00652b

> <BindingDB Entry DOI>
10.7270/Q2CV4P64

> <PMID>
38389883

> <PubChem AID>


> <Patent Number>


> <Authors>
Liu, Y; Nowak, RP; Che, J; Donovan, KA; Huerta, F; Liu, H; Metivier, RJ; Fischer, ES; Jones, LH

> <Date of publication>
2/21/2024

> <Date in BindingDB>
12/21/2024

> <Institution>
Dana-Farber Cancer Institute

> <Link to Ligand in BindingDB>
http://www.bindingdb.org/bind/chemsearch/marvin/MolStructure.jsp?monomerid=50631809

> <Link to Ligand-Target Pair in BindingDB>
http://www.bindingdb.org/jsp/dbsearch/PrimarySearch_ki.jsp?energyterm=kJ/mole&tag=pol&polymerid=50007050&target=Protein+cereblon&column=ki&startPg=0&Increment=50&submit=Search

> <Link to Ligand-Target Pair in BindingDB>
http://www.bindingdb.org/jsp/dbsearch/PrimarySearch_ki.jsp?energyterm=kJ/mole&tag=r21&monomerid=50631809&enzyme=Protein+cereblon&column=ki&startPg=0&Increment=50&submit=Search

> <Ligand HET ID in PDB>


> <PDB ID(s) for Ligand-Target Complex>


> <PubChem CID of Ligand>
172452420

> <PubChem SID of Ligand>
505036143

> <ChEBI ID of Ligand>


> <ChEMBL ID of Ligand>


> <DrugBank ID of Ligand>


> <IUPHAR_GRAC ID of Ligand>


> <KEGG ID of Ligand>


> <ZINC ID of Ligand>


> <Number of Protein Chains in Target (bigger than 1 implies a multichain complex)>
1

> <BindingDB Target Chain Sequence>
MAGEGDQQDAAHNMGNHLPLLPAESEEEDEMEVEDQDSKEAKKPNIINFDTSLPTSHTYLGADMEEFHGRTLHDDDSCQVIPVLPQVMMILIPGQTLPLQLFHPQEVSMVRNLIQKDRTFAVLAYSNVQEREAQFGTTAEIYAYREEQDFGIEIVKVKAIGRQRFKVLELRTQSDGIQQAKVQILPECVLPSTMSAVQLESLNKCQIFPSKPVSREDQCSYKWWQKYQKRKFHCANLTSWPRWLYSLYDAETLMDRIKKQLREWDENLKDDSLPSNPIDFSYRVAACLPIDDVLRIQLLKIGSAIQRLRCELDIMNKCTSLCCKQCQETEITTKNEIFSLSLCGPMAAYVNPHGYVHETLTVYKACNLNLIGRPSTEHSWFPGYAWTVAQCKICASHIGWKFTATKKDMSPQKFWGLTRSALLPTIPDTEDEISPDKVILCL

> <PDB ID(s) of Target Chain>
8TNR,8TNQ,8TNP,8D81,8D80,8D7Z,8D7Y,8D7X,8D7W,8D7V,8D7U,8CVP,9DQD,8UH6,6BOY,6BNB,6BN9,6BN8,6BN7,6XK9,6UML,5V3O,5HXB,7U8F,8OJH,8OIZ,7LPS,4TZ4,9DJX,9DJT,8U17,8U16,8U15,8TZX,8DEY,9CUO,4M91

> <UniProt (SwissProt) Recommended Name of Target Chain>
Protein cereblon

> <UniProt (SwissProt) Entry Name of Target Chain>
CRBN_HUMAN

> <UniProt (SwissProt) Primary ID of Target Chain>
Q96SW2

> <UniProt (SwissProt) Secondary ID(s) of Target Chain>
B2R6H4 C9IZA9 C9JAH6 Q6AI62 Q6NVZ0 Q9UHW4

> <UniProt (SwissProt) Alternative ID(s) of Target Chain>


> <UniProt (TrEMBL) Submitted Name of Target Chain>


> <UniProt (TrEMBL) Entry Name of Target Chain>


> <UniProt (TrEMBL) Primary ID of Target Chain>


> <UniProt (TrEMBL) Secondary ID(s) of Target Chain>


> <UniProt (TrEMBL) Alternative ID(s) of Target Chain>


$$$$
 
     RDKit          2D

 18 19  0  0  0  0  0  0  0  0999 V2000
   -2.8571    0.2055    0.0000 C   0  0  0  0  0  0  0  0  0  0  0  0
   -2.1425    0.6178    0.0000 C   0  0  0  0  0  0  0  0  0  0  0  0
   -1.4306    0.2058    0.0000 C   0  0  0  0  0  0  0  0  0  0  0  0
   -1.4306   -0.6192    0.0000 C   0  0  0  0  0  0  0  0  0  0  0  0
   -2.1407   -1.0310    0.0000 C   0  0  0  0  0  0  0  0  0  0  0  0
   -2.8571   -0.6229    0.0000 C   0  0  0  0  0  0  0  0  0  0  0  0
   -0.7160    0.6185    0.0000 C   0  0  0  0  0  0  0  0  0  0  0  0
   -0.7160    1.4436    0.0000 O   0  0  0  0  0  0  0  0  0  0  0  0
   -0.0013    0.2058    0.0000 N   0  0  0  0  0  0  0  0  0  0  0  0
    0.7132    0.6185    0.0000 C   0  0  0  0  0  0  0  0  0  0  0  0
    0.7132    1.4436    0.0000 C   0  0  0  0  0  0  0  0  0  0  0  0
    1.4278    1.8562    0.0000 C   0  0  0  0  0  0  0  0  0  0  0  0
    2.1425    1.4436    0.0000 C   0  0  0  0  0  0  0  0  0  0  0  0
    2.1425    0.6184    0.0000 N   0  0  0  0  0  0  0  0  0  0  0  0
    1.4279    0.2058    0.0000 C   0  0  0  0  0  0  0  0  0  0  0  0
    1.4279   -0.6192    0.0000 O   0  0  0  0  0  0  0  0  0  0  0  0
    2.8571    1.8562    0.0000 O   0  0  0  0  0  0  0  0  0  0  0  0
   -2.1407   -1.8562    0.0000 N   0  0  0  0  0  0  0  0  0  0  0  0
  2  1  2  0
  3  2  1  0
  4  3  2  0
  5  4  1  0
  1  6  1  0
  6  5  2  0
  3  7  1  0
  7  8  2  0
  7  9  1  0
  9 10  1  0
 11 10  1  0
 12 11  1  0
 13 12  1  0
 14 13  1  0
 15 14  1  0
 10 15  1  0
 15 16  2  0
 13 17  2  0
  5 18  1  0
M  END
> <From>
www.bindingDB.org

> <BindingDB Reactant_set_id>
51567910

> <Ligand InChI>
InChI=1S/C12H13N3O3/c13-8-3-1-2-7(6-8)11(17)14-9-4-5-10(16)15-12(9)18/h1-3,6,9H,4-5,13H2,(H,14,17)(H,15,16,18)

> <Ligand InChI Key>
XOLLDBOOXRTMRB-UHFFFAOYSA-N

> <BindingDB MonomerID>
50630590

> <BindingDB Ligand Name>
CHEMBL5398662

> <Target Name>
Protein cereblon

> <Target Source Organism According to Curator or DataSource>
Homo sapiens

> <Ki (nM)>


> <IC50 (nM)>
 107000

> <Kd (nM)>


> <EC50 (nM)>


> <kon (M-1-s-1)>


> <koff (s-1)>


> <pH>


> <Temp C>


> <Curation/DataSource>
ChEMBL

> <Article DOI>
10.1021/acs.jmedchem.3c00851

> <BindingDB Entry DOI>
10.7270/Q2PK0MM6

> <PMID>
37902300

> <PubChem AID>


> <Patent Number>


> <Authors>
Steinebach, C; Bricelj, A; Murgai, A; Sosič, I; Bischof, L; Ng, YLD; Heim, C; Maiwald, S; Proj, M; Voget, R; Feller, F; Košmrlj, J; Sapozhnikova, V; Schmidt, A; Zuleeg, MR; Lemnitzer, P; Mertins, P; Hansen, FK; Gütschow, M; Krönke, J; Hartmann, MD

> <Date of publication>
11/9/2023

> <Date in BindingDB>
12/20/2024

> <Institution>
University of Bonn

> <Link to Ligand in BindingDB>
http://www.bindingdb.org/bind/chemsearch/marvin/MolStructure.jsp?monomerid=50630590

> <Link to Ligand-Target Pair in BindingDB>
http://www.bindingdb.org/jsp/dbsearch/PrimarySearch_ki.jsp?energyterm=kJ/mole&tag=pol&polymerid=50007050&target=Protein+cereblon&column=ki&startPg=0&Increment=50&submit=Search

> <Link to Ligand-Target Pair in BindingDB>
http://www.bindingdb.org/jsp/dbsearch/PrimarySearch_ki.jsp?energyterm=kJ/mole&tag=r21&monomerid=50630590&enzyme=Protein+cereblon&column=ki&startPg=0&Increment=50&submit=Search

> <Ligand HET ID in PDB>


> <PDB ID(s) for Ligand-Target Complex>


> <PubChem CID of Ligand>
65956451

> <PubChem SID of Ligand>
505048561

> <ChEBI ID of Ligand>


> <ChEMBL ID of Ligand>


> <DrugBank ID of Ligand>


> <IUPHAR_GRAC ID of Ligand>


> <KEGG ID of Ligand>


> <ZINC ID of Ligand>


> <Number of Protein Chains in Target (bigger than 1 implies a multichain complex)>
1

> <BindingDB Target Chain Sequence>
MAGEGDQQDAAHNMGNHLPLLPAESEEEDEMEVEDQDSKEAKKPNIINFDTSLPTSHTYLGADMEEFHGRTLHDDDSCQVIPVLPQVMMILIPGQTLPLQLFHPQEVSMVRNLIQKDRTFAVLAYSNVQEREAQFGTTAEIYAYREEQDFGIEIVKVKAIGRQRFKVLELRTQSDGIQQAKVQILPECVLPSTMSAVQLESLNKCQIFPSKPVSREDQCSYKWWQKYQKRKFHCANLTSWPRWLYSLYDAETLMDRIKKQLREWDENLKDDSLPSNPIDFSYRVAACLPIDDVLRIQLLKIGSAIQRLRCELDIMNKCTSLCCKQCQETEITTKNEIFSLSLCGPMAAYVNPHGYVHETLTVYKACNLNLIGRPSTEHSWFPGYAWTVAQCKICASHIGWKFTATKKDMSPQKFWGLTRSALLPTIPDTEDEISPDKVILCL

> <PDB ID(s) of Target Chain>
8TNR,8TNQ,8TNP,8D81,8D80,8D7Z,8D7Y,8D7X,8D7W,8D7V,8D7U,8CVP,9DQD,8UH6,6BOY,6BNB,6BN9,6BN8,6BN7,6XK9,6UML,5V3O,5HXB,7U8F,8OJH,8OIZ,7LPS,4TZ4,9DJX,9DJT,8U17,8U16,8U15,8TZX,8DEY,9CUO,4M91

> <UniProt (SwissProt) Recommended Name of Target Chain>
Protein cereblon

> <UniProt (SwissProt) Entry Name of Target Chain>
CRBN_HUMAN

> <UniProt (SwissProt) Primary ID of Target Chain>
Q96SW2

> <UniProt (SwissProt) Secondary ID(s) of Target Chain>
B2R6H4 C9IZA9 C9JAH6 Q6AI62 Q6NVZ0 Q9UHW4

> <UniProt (SwissProt) Alternative ID(s) of Target Chain>


> <UniProt (TrEMBL) Submitted Name of Target Chain>


> <UniProt (TrEMBL) Entry Name of Target Chain>


> <UniProt (TrEMBL) Primary ID of Target Chain>


> <UniProt (TrEMBL) Secondary ID(s) of Target Chain>


> <UniProt (TrEMBL) Alternative ID(s) of Target Chain>


$$$$
 
     RDKit          2D

 19 20  0  0  0  0  0  0  0  0999 V2000
   -2.1425    0.2055    0.0000 C   0  0  0  0  0  0  0  0  0  0  0  0
   -2.8571   -0.2067    0.0000 C   0  0  0  0  0  0  0  0  0  0  0  0
   -2.8571   -1.0351    0.0000 C   0  0  0  0  0  0  0  0  0  0  0  0
   -2.1407   -1.4432    0.0000 C   0  0  0  0  0  0  0  0  0  0  0  0
   -1.4306   -1.0314    0.0000 C   0  0  0  0  0  0  0  0  0  0  0  0
   -1.4306   -0.2062    0.0000 C   0  0  0  0  0  0  0  0  0  0  0  0
   -0.7160    0.2062    0.0000 C   0  0  0  0  0  0  0  0  0  0  0  0
   -0.7160    1.0315    0.0000 O   0  0  0  0  0  0  0  0  0  0  0  0
   -0.0013   -0.2062    0.0000 N   0  0  0  0  0  0  0  0  0  0  0  0
    0.7132    0.2062    0.0000 C   0  0  0  0  0  0  0  0  0  0  0  0
    0.7132    1.0315    0.0000 C   0  0  0  0  0  0  0  0  0  0  0  0
    1.4278    1.4440    0.0000 C   0  0  0  0  0  0  0  0  0  0  0  0
    2.1425    1.0314    0.0000 C   0  0  0  0  0  0  0  0  0  0  0  0
    2.1425    0.2062    0.0000 N   0  0  0  0  0  0  0  0  0  0  0  0
    1.4278   -0.2062    0.0000 C   0  0  0  0  0  0  0  0  0  0  0  0
    1.4278   -1.0314    0.0000 O   0  0  0  0  0  0  0  0  0  0  0  0
    2.8571    1.4440    0.0000 O   0  0  0  0  0  0  0  0  0  0  0  0
   -0.7160   -1.4440    0.0000 F   0  0  0  0  0  0  0  0  0  0  0  0
   -2.1425    1.0308    0.0000 N   0  0  0  0  0  0  0  0  0  0  0  0
  1  2  2  0
  2  3  1  0
  4  3  2  0
  5  4  1  0
  6  5  2  0
  1  6  1  0
  6  7  1  0
  7  8  2  0
  7  9  1  0
  9 10  1  0
 10 11  1  0
 11 12  1  0
 12 13  1  0
 13 14  1  0
 14 15  1  0
 10 15  1  0
 15 16  2  0
 13 17  2  0
  5 18  1  0
  1 19  1  0
M  END
> <From>
www.bindingDB.org

> <BindingDB Reactant_set_id>
51567915

> <Ligand InChI>
InChI=1S/C12H12FN3O3/c13-6-2-1-3-7(14)10(6)12(19)15-8-4-5-9(17)16-11(8)18/h1-3,8H,4-5,14H2,(H,15,19)(H,16,17,18)

> <Ligand InChI Key>
CFBNFISJFWXHOO-UHFFFAOYSA-N

> <BindingDB MonomerID>
50630595

> <BindingDB Ligand Name>
CHEMBL5439012

> <Target Name>
Protein cereblon

> <Target Source Organism According to Curator or DataSource>
Homo sapiens

> <Ki (nM)>


> <IC50 (nM)>
 114000

> <Kd (nM)>


> <EC50 (nM)>


> <kon (M-1-s-1)>


> <koff (s-1)>


> <pH>


> <Temp C>


> <Curation/DataSource>
ChEMBL

> <Article DOI>
10.1021/acs.jmedchem.3c00851

> <BindingDB Entry DOI>
10.7270/Q2PK0MM6

> <PMID>
37902300

> <PubChem AID>


> <Patent Number>


> <Authors>
Steinebach, C; Bricelj, A; Murgai, A; Sosič, I; Bischof, L; Ng, YLD; Heim, C; Maiwald, S; Proj, M; Voget, R; Feller, F; Košmrlj, J; Sapozhnikova, V; Schmidt, A; Zuleeg, MR; Lemnitzer, P; Mertins, P; Hansen, FK; Gütschow, M; Krönke, J; Hartmann, MD

> <Date of publication>
11/9/2023

> <Date in BindingDB>
12/20/2024

> <Institution>
University of Bonn

> <Link to Ligand in BindingDB>
http://www.bindingdb.org/bind/chemsearch/marvin/MolStructure.jsp?monomerid=50630595

> <Link to Ligand-Target Pair in BindingDB>
http://www.bindingdb.org/jsp/dbsearch/PrimarySearch_ki.jsp?energyterm=kJ/mole&tag=pol&polymerid=50007050&target=Protein+cereblon&column=ki&startPg=0&Increment=50&submit=Search

> <Link to Ligand-Target Pair in BindingDB>
http://www.bindingdb.org/jsp/dbsearch/PrimarySearch_ki.jsp?energyterm=kJ/mole&tag=r21&monomerid=50630595&enzyme=Protein+cereblon&column=ki&startPg=0&Increment=50&submit=Search

> <Ligand HET ID in PDB>


> <PDB ID(s) for Ligand-Target Complex>


> <PubChem CID of Ligand>
142748641

> <PubChem SID of Ligand>
505048566

> <ChEBI ID of Ligand>


> <ChEMBL ID of Ligand>


> <DrugBank ID of Ligand>


> <IUPHAR_GRAC ID of Ligand>


> <KEGG ID of Ligand>


> <ZINC ID of Ligand>


> <Number of Protein Chains in Target (bigger than 1 implies a multichain complex)>
1

> <BindingDB Target Chain Sequence>
MAGEGDQQDAAHNMGNHLPLLPAESEEEDEMEVEDQDSKEAKKPNIINFDTSLPTSHTYLGADMEEFHGRTLHDDDSCQVIPVLPQVMMILIPGQTLPLQLFHPQEVSMVRNLIQKDRTFAVLAYSNVQEREAQFGTTAEIYAYREEQDFGIEIVKVKAIGRQRFKVLELRTQSDGIQQAKVQILPECVLPSTMSAVQLESLNKCQIFPSKPVSREDQCSYKWWQKYQKRKFHCANLTSWPRWLYSLYDAETLMDRIKKQLREWDENLKDDSLPSNPIDFSYRVAACLPIDDVLRIQLLKIGSAIQRLRCELDIMNKCTSLCCKQCQETEITTKNEIFSLSLCGPMAAYVNPHGYVHETLTVYKACNLNLIGRPSTEHSWFPGYAWTVAQCKICASHIGWKFTATKKDMSPQKFWGLTRSALLPTIPDTEDEISPDKVILCL

> <PDB ID(s) of Target Chain>
8TNR,8TNQ,8TNP,8D81,8D80,8D7Z,8D7Y,8D7X,8D7W,8D7V,8D7U,8CVP,9DQD,8UH6,6BOY,6BNB,6BN9,6BN8,6BN7,6XK9,6UML,5V3O,5HXB,7U8F,8OJH,8OIZ,7LPS,4TZ4,9DJX,9DJT,8U17,8U16,8U15,8TZX,8DEY,9CUO,4M91

> <UniProt (SwissProt) Recommended Name of Target Chain>
Protein cereblon

> <UniProt (SwissProt) Entry Name of Target Chain>
CRBN_HUMAN

> <UniProt (SwissProt) Primary ID of Target Chain>
Q96SW2

> <UniProt (SwissProt) Secondary ID(s) of Target Chain>
B2R6H4 C9IZA9 C9JAH6 Q6AI62 Q6NVZ0 Q9UHW4

> <UniProt (SwissProt) Alternative ID(s) of Target Chain>


> <UniProt (TrEMBL) Submitted Name of Target Chain>


> <UniProt (TrEMBL) Entry Name of Target Chain>


> <UniProt (TrEMBL) Primary ID of Target Chain>


> <UniProt (TrEMBL) Secondary ID(s) of Target Chain>


> <UniProt (TrEMBL) Alternative ID(s) of Target Chain>


$$$$

  Mrv0541 12132312292D          

 17 18  0  0  0  0            999 V2000
    0.0000   -1.6500    0.0000 O   0  0  0  0  0  0  0  0  0  0  0  0
    0.0000   -2.4750    0.0000 C   0  0  0  0  0  0  0  0  0  0  0  0
    0.7145   -2.8875    0.0000 N   0  0  0  0  0  0  0  0  0  0  0  0
    0.7145   -3.7125    0.0000 C   0  0  0  0  0  0  0  0  0  0  0  0
    0.0000   -4.1250    0.0000 C   0  0  0  0  0  0  0  0  0  0  0  0
   -0.7145   -3.7125    0.0000 C   0  0  0  0  0  0  0  0  0  0  0  0
   -0.7145   -2.8875    0.0000 C   0  0  0  0  0  0  0  0  0  0  0  0
   -1.4290   -2.4750    0.0000 N   0  0  0  0  0  0  0  0  0  0  0  0
   -1.4290   -1.6500    0.0000 C   0  0  0  0  0  0  0  0  0  0  0  0
   -2.1434   -1.2375    0.0000 C   0  0  0  0  0  0  0  0  0  0  0  0
   -2.8579   -1.6500    0.0000 C   0  0  0  0  0  0  0  0  0  0  0  0
   -3.5724   -1.2375    0.0000 C   0  0  0  0  0  0  0  0  0  0  0  0
   -3.5724   -0.4125    0.0000 C   0  0  0  0  0  0  0  0  0  0  0  0
   -2.8579    0.0000    0.0000 C   0  0  0  0  0  0  0  0  0  0  0  0
   -2.1434   -0.4125    0.0000 C   0  0  0  0  0  0  0  0  0  0  0  0
   -0.7145   -1.2375    0.0000 O   0  0  0  0  0  0  0  0  0  0  0  0
    1.4290   -4.1250    0.0000 O   0  0  0  0  0  0  0  0  0  0  0  0
  1  2  2  0  0  0  0
  2  3  1  0  0  0  0
  3  4  1  0  0  0  0
  4  5  1  0  0  0  0
  5  6  1  0  0  0  0
  6  7  1  0  0  0  0
  2  7  1  0  0  0  0
  7  8  1  0  0  0  0
  8  9  1  0  0  0  0
  9 10  1  0  0  0  0
 10 11  4  0  0  0  0
 11 12  4  0  0  0  0
 12 13  4  0  0  0  0
 13 14  4  0  0  0  0
 14 15  4  0  0  0  0
 10 15  4  0  0  0  0
  9 16  2  0  0  0  0
  4 17  2  0  0  0  0
M  END
> <From>
www.bindingDB.org

> <BindingDB Reactant_set_id>
51567908

> <Ligand InChI>
InChI=1S/C12H12N2O3/c15-10-7-6-9(12(17)14-10)13-11(16)8-4-2-1-3-5-8/h1-5,9H,6-7H2,(H,13,16)(H,14,15,17)

> <Ligand InChI Key>
QDCDITVKCKBZTO-UHFFFAOYSA-N

> <BindingDB MonomerID>
631083

> <BindingDB Ligand Name>
N-(2,6-dioxo-3-piperidyl)benzamide::US11802131, Example 10

> <Target Name>
Protein cereblon

> <Target Source Organism According to Curator or DataSource>
Homo sapiens

> <Ki (nM)>


> <IC50 (nM)>
 127000

> <Kd (nM)>


> <EC50 (nM)>


> <kon (M-1-s-1)>


> <koff (s-1)>


> <pH>


> <Temp C>


> <Curation/DataSource>
ChEMBL

> <Article DOI>
10.1021/acs.jmedchem.3c00851

> <BindingDB Entry DOI>
10.7270/Q2PK0MM6

> <PMID>
37902300

> <PubChem AID>


> <Patent Number>


> <Authors>
n/a

> <Date of publication>
11/9/2023

> <Date in BindingDB>
12/20/2024

> <Institution>
n/a

> <Link to Ligand in BindingDB>
http://www.bindingdb.org/bind/chemsearch/marvin/MolStructure.jsp?monomerid=631083

> <Link to Ligand-Target Pair in BindingDB>
http://www.bindingdb.org/jsp/dbsearch/PrimarySearch_ki.jsp?energyterm=kJ/mole&tag=pol&polymerid=50007050&target=Protein+cereblon&column=ki&startPg=0&Increment=50&submit=Search

> <Link to Ligand-Target Pair in BindingDB>
http://www.bindingdb.org/jsp/dbsearch/PrimarySearch_ki.jsp?energyterm=kJ/mole&tag=r21&monomerid=631083&enzyme=Protein+cereblon&column=ki&startPg=0&Increment=50&submit=Search

> <Ligand HET ID in PDB>


> <PDB ID(s) for Ligand-Target Complex>


> <PubChem CID of Ligand>
341427

> <PubChem SID of Ligand>
485658579

> <ChEBI ID of Ligand>


> <ChEMBL ID of Ligand>


> <DrugBank ID of Ligand>


> <IUPHAR_GRAC ID of Ligand>


> <KEGG ID of Ligand>


> <ZINC ID of Ligand>


> <Number of Protein Chains in Target (bigger than 1 implies a multichain complex)>
1

> <BindingDB Target Chain Sequence>
MAGEGDQQDAAHNMGNHLPLLPAESEEEDEMEVEDQDSKEAKKPNIINFDTSLPTSHTYLGADMEEFHGRTLHDDDSCQVIPVLPQVMMILIPGQTLPLQLFHPQEVSMVRNLIQKDRTFAVLAYSNVQEREAQFGTTAEIYAYREEQDFGIEIVKVKAIGRQRFKVLELRTQSDGIQQAKVQILPECVLPSTMSAVQLESLNKCQIFPSKPVSREDQCSYKWWQKYQKRKFHCANLTSWPRWLYSLYDAETLMDRIKKQLREWDENLKDDSLPSNPIDFSYRVAACLPIDDVLRIQLLKIGSAIQRLRCELDIMNKCTSLCCKQCQETEITTKNEIFSLSLCGPMAAYVNPHGYVHETLTVYKACNLNLIGRPSTEHSWFPGYAWTVAQCKICASHIGWKFTATKKDMSPQKFWGLTRSALLPTIPDTEDEISPDKVILCL

> <PDB ID(s) of Target Chain>
8TNR,8TNQ,8TNP,8D81,8D80,8D7Z,8D7Y,8D7X,8D7W,8D7V,8D7U,8CVP,9DQD,8UH6,6BOY,6BNB,6BN9,6BN8,6BN7,6XK9,6UML,5V3O,5HXB,7U8F,8OJH,8OIZ,7LPS,4TZ4,9DJX,9DJT,8U17,8U16,8U15,8TZX,8DEY,9CUO,4M91

> <UniProt (SwissProt) Recommended Name of Target Chain>
Protein cereblon

> <UniProt (SwissProt) Entry Name of Target Chain>
CRBN_HUMAN

> <UniProt (SwissProt) Primary ID of Target Chain>
Q96SW2

> <UniProt (SwissProt) Secondary ID(s) of Target Chain>
B2R6H4 C9IZA9 C9JAH6 Q6AI62 Q6NVZ0 Q9UHW4

> <UniProt (SwissProt) Alternative ID(s) of Target Chain>


> <UniProt (TrEMBL) Submitted Name of Target Chain>


> <UniProt (TrEMBL) Entry Name of Target Chain>


> <UniProt (TrEMBL) Primary ID of Target Chain>


> <UniProt (TrEMBL) Secondary ID(s) of Target Chain>


> <UniProt (TrEMBL) Alternative ID(s) of Target Chain>


$$$$
 
     RDKit          2D

 20 21  0  0  0  0  0  0  0  0999 V2000
   -1.4907    0.5668    0.0000 C   0  0  0  0  0  0  0  0  0  0  0  0
   -0.7763    0.9793    0.0000 C   0  0  0  0  0  0  0  0  0  0  0  0
   -0.7763    1.8042    0.0000 O   0  0  0  0  0  0  0  0  0  0  0  0
   -0.0618    0.5668    0.0000 N   0  0  0  0  0  0  0  0  0  0  0  0
    0.6525    0.9793    0.0000 C   0  0  0  0  0  0  0  0  0  0  0  0
    0.6525    1.8042    0.0000 C   0  0  0  0  0  0  0  0  0  0  0  0
    1.3669    2.2167    0.0000 C   0  0  0  0  0  0  0  0  0  0  0  0
    2.0813    1.8042    0.0000 C   0  0  0  0  0  0  0  0  0  0  0  0
    2.0814    0.9792    0.0000 N   0  0  0  0  0  0  0  0  0  0  0  0
    1.3669    0.5668    0.0000 C   0  0  0  0  0  0  0  0  0  0  0  0
    1.3669   -0.2581    0.0000 O   0  0  0  0  0  0  0  0  0  0  0  0
    2.7958    2.2167    0.0000 O   0  0  0  0  0  0  0  0  0  0  0  0
   -1.5769   -0.2531    0.0000 C   0  0  0  0  0  0  0  0  0  0  0  0
   -2.3834   -0.4246    0.0000 S   0  0  0  0  0  0  0  0  0  0  0  0
   -2.7958    0.2893    0.0000 C   0  0  0  0  0  0  0  0  0  0  0  0
   -2.2439    0.9021    0.0000 C   0  0  0  0  0  0  0  0  0  0  0  0
   -0.9936   -0.8365    0.0000 N   0  0  0  0  0  0  0  0  0  0  0  0
   -1.2070   -1.6333    0.0000 C   0  0  0  0  0  0  0  0  0  0  0  0
   -0.6237   -2.2167    0.0000 C   0  0  0  0  0  0  0  0  0  0  0  0
   -2.0038   -1.8468    0.0000 O   0  0  0  0  0  0  0  0  0  0  0  0
  1  2  1  0
  2  3  2  0
  2  4  1  0
  4  5  1  0
  6  5  1  0
  7  6  1  0
  8  7  1  0
  9  8  1  0
 10  9  1  0
  5 10  1  0
 10 11  2  0
  8 12  2  0
 13  1  2  0
 13 14  1  0
 14 15  1  0
 15 16  2  0
 16  1  1  0
 13 17  1  0
 17 18  1  0
 18 19  1  0
 18 20  2  0
M  END
> <From>
www.bindingDB.org

> <BindingDB Reactant_set_id>
51567930

> <Ligand InChI>
InChI=1S/C12H13N3O4S/c1-6(16)13-12-7(4-5-20-12)10(18)14-8-2-3-9(17)15-11(8)19/h4-5,8H,2-3H2,1H3,(H,13,16)(H,14,18)(H,15,17,19)

> <Ligand InChI Key>
OXPSJLDBCVUULG-UHFFFAOYSA-N

> <BindingDB MonomerID>
50630610

> <BindingDB Ligand Name>
CHEMBL5420119

> <Target Name>
Protein cereblon

> <Target Source Organism According to Curator or DataSource>
Homo sapiens

> <Ki (nM)>


> <IC50 (nM)>
 131000

> <Kd (nM)>


> <EC50 (nM)>


> <kon (M-1-s-1)>


> <koff (s-1)>


> <pH>


> <Temp C>


> <Curation/DataSource>
ChEMBL

> <Article DOI>
10.1021/acs.jmedchem.3c00851

> <BindingDB Entry DOI>
10.7270/Q2PK0MM6

> <PMID>
37902300

> <PubChem AID>


> <Patent Number>


> <Authors>
Steinebach, C; Bricelj, A; Murgai, A; Sosič, I; Bischof, L; Ng, YLD; Heim, C; Maiwald, S; Proj, M; Voget, R; Feller, F; Košmrlj, J; Sapozhnikova, V; Schmidt, A; Zuleeg, MR; Lemnitzer, P; Mertins, P; Hansen, FK; Gütschow, M; Krönke, J; Hartmann, MD

> <Date of publication>
11/9/2023

> <Date in BindingDB>
12/20/2024

> <Institution>
University of Bonn

> <Link to Ligand in BindingDB>
http://www.bindingdb.org/bind/chemsearch/marvin/MolStructure.jsp?monomerid=50630610

> <Link to Ligand-Target Pair in BindingDB>
http://www.bindingdb.org/jsp/dbsearch/PrimarySearch_ki.jsp?energyterm=kJ/mole&tag=pol&polymerid=50007050&target=Protein+cereblon&column=ki&startPg=0&Increment=50&submit=Search

> <Link to Ligand-Target Pair in BindingDB>
http://www.bindingdb.org/jsp/dbsearch/PrimarySearch_ki.jsp?energyterm=kJ/mole&tag=r21&monomerid=50630610&enzyme=Protein+cereblon&column=ki&startPg=0&Increment=50&submit=Search

> <Ligand HET ID in PDB>


> <PDB ID(s) for Ligand-Target Complex>


> <PubChem CID of Ligand>
156408625

> <PubChem SID of Ligand>
505048581

> <ChEBI ID of Ligand>


> <ChEMBL ID of Ligand>


> <DrugBank ID of Ligand>


> <IUPHAR_GRAC ID of Ligand>


> <KEGG ID of Ligand>


> <ZINC ID of Ligand>


> <Number of Protein Chains in Target (bigger than 1 implies a multichain complex)>
1

> <BindingDB Target Chain Sequence>
MAGEGDQQDAAHNMGNHLPLLPAESEEEDEMEVEDQDSKEAKKPNIINFDTSLPTSHTYLGADMEEFHGRTLHDDDSCQVIPVLPQVMMILIPGQTLPLQLFHPQEVSMVRNLIQKDRTFAVLAYSNVQEREAQFGTTAEIYAYREEQDFGIEIVKVKAIGRQRFKVLELRTQSDGIQQAKVQILPECVLPSTMSAVQLESLNKCQIFPSKPVSREDQCSYKWWQKYQKRKFHCANLTSWPRWLYSLYDAETLMDRIKKQLREWDENLKDDSLPSNPIDFSYRVAACLPIDDVLRIQLLKIGSAIQRLRCELDIMNKCTSLCCKQCQETEITTKNEIFSLSLCGPMAAYVNPHGYVHETLTVYKACNLNLIGRPSTEHSWFPGYAWTVAQCKICASHIGWKFTATKKDMSPQKFWGLTRSALLPTIPDTEDEISPDKVILCL

> <PDB ID(s) of Target Chain>
8TNR,8TNQ,8TNP,8D81,8D80,8D7Z,8D7Y,8D7X,8D7W,8D7V,8D7U,8CVP,9DQD,8UH6,6BOY,6BNB,6BN9,6BN8,6BN7,6XK9,6UML,5V3O,5HXB,7U8F,8OJH,8OIZ,7LPS,4TZ4,9DJX,9DJT,8U17,8U16,8U15,8TZX,8DEY,9CUO,4M91

> <UniProt (SwissProt) Recommended Name of Target Chain>
Protein cereblon

> <UniProt (SwissProt) Entry Name of Target Chain>
CRBN_HUMAN

> <UniProt (SwissProt) Primary ID of Target Chain>
Q96SW2

> <UniProt (SwissProt) Secondary ID(s) of Target Chain>
B2R6H4 C9IZA9 C9JAH6 Q6AI62 Q6NVZ0 Q9UHW4

> <UniProt (SwissProt) Alternative ID(s) of Target Chain>


> <UniProt (TrEMBL) Submitted Name of Target Chain>


> <UniProt (TrEMBL) Entry Name of Target Chain>


> <UniProt (TrEMBL) Primary ID of Target Chain>


> <UniProt (TrEMBL) Secondary ID(s) of Target Chain>


> <UniProt (TrEMBL) Alternative ID(s) of Target Chain>


$$$$
 
     RDKit          2D

 19 20  0  0  0  0  0  0  0  0999 V2000
   -1.7852    0.2074    0.0000 C   0  0  0  0  0  0  0  0  0  0  0  0
   -2.4998   -0.2048    0.0000 C   0  0  0  0  0  0  0  0  0  0  0  0
   -2.4998   -1.0333    0.0000 C   0  0  0  0  0  0  0  0  0  0  0  0
   -1.7834   -1.4414    0.0000 C   0  0  0  0  0  0  0  0  0  0  0  0
   -1.0733   -1.0296    0.0000 C   0  0  0  0  0  0  0  0  0  0  0  0
   -1.0733   -0.2044    0.0000 C   0  0  0  0  0  0  0  0  0  0  0  0
   -0.3586    0.2081    0.0000 C   0  0  0  0  0  0  0  0  0  0  0  0
   -0.3586    1.0333    0.0000 O   0  0  0  0  0  0  0  0  0  0  0  0
    0.3558   -0.2044    0.0000 N   0  0  0  0  0  0  0  0  0  0  0  0
    1.0705    0.2081    0.0000 C   0  0  0  0  0  0  0  0  0  0  0  0
    1.0705    1.0333    0.0000 C   0  0  0  0  0  0  0  0  0  0  0  0
    1.7851    1.4459    0.0000 C   0  0  0  0  0  0  0  0  0  0  0  0
    2.4998    1.0333    0.0000 C   0  0  0  0  0  0  0  0  0  0  0  0
    2.4998    0.2081    0.0000 N   0  0  0  0  0  0  0  0  0  0  0  0
    1.7852   -0.2044    0.0000 C   0  0  0  0  0  0  0  0  0  0  0  0
    1.7852   -1.0296    0.0000 O   0  0  0  0  0  0  0  0  0  0  0  0
    3.2144    1.4459    0.0000 O   0  0  0  0  0  0  0  0  0  0  0  0
   -0.3586   -1.4422    0.0000 C   0  0  0  0  0  0  0  0  0  0  0  0
   -3.2144   -1.4459    0.0000 N   0  0  0  0  0  0  0  0  0  0  0  0
  1  2  2  0
  2  3  1  0
  4  3  2  0
  5  4  1  0
  6  5  2  0
  1  6  1  0
  6  7  1  0
  7  8  2  0
  7  9  1  0
  9 10  1  0
 10 11  1  0
 11 12  1  0
 12 13  1  0
 13 14  1  0
 14 15  1  0
 10 15  1  0
 15 16  2  0
 13 17  2  0
  5 18  1  0
  3 19  1  0
M  END
> <From>
www.bindingDB.org

> <BindingDB Reactant_set_id>
51567918

> <Ligand InChI>
InChI=1S/C13H15N3O3/c1-7-6-8(14)2-3-9(7)12(18)15-10-4-5-11(17)16-13(10)19/h2-3,6,10H,4-5,14H2,1H3,(H,15,18)(H,16,17,19)

> <Ligand InChI Key>
BUTHFOQUICVORE-UHFFFAOYSA-N

> <BindingDB MonomerID>
50630598

> <BindingDB Ligand Name>
CHEMBL5419302

> <Target Name>
Protein cereblon

> <Target Source Organism According to Curator or DataSource>
Homo sapiens

> <Ki (nM)>


> <IC50 (nM)>
 132000

> <Kd (nM)>


> <EC50 (nM)>


> <kon (M-1-s-1)>


> <koff (s-1)>


> <pH>


> <Temp C>


> <Curation/DataSource>
ChEMBL

> <Article DOI>
10.1021/acs.jmedchem.3c00851

> <BindingDB Entry DOI>
10.7270/Q2PK0MM6

> <PMID>
37902300

> <PubChem AID>


> <Patent Number>


> <Authors>
Steinebach, C; Bricelj, A; Murgai, A; Sosič, I; Bischof, L; Ng, YLD; Heim, C; Maiwald, S; Proj, M; Voget, R; Feller, F; Košmrlj, J; Sapozhnikova, V; Schmidt, A; Zuleeg, MR; Lemnitzer, P; Mertins, P; Hansen, FK; Gütschow, M; Krönke, J; Hartmann, MD

> <Date of publication>
11/9/2023

> <Date in BindingDB>
12/20/2024

> <Institution>
University of Bonn

> <Link to Ligand in BindingDB>
http://www.bindingdb.org/bind/chemsearch/marvin/MolStructure.jsp?monomerid=50630598

> <Link to Ligand-Target Pair in BindingDB>
http://www.bindingdb.org/jsp/dbsearch/PrimarySearch_ki.jsp?energyterm=kJ/mole&tag=pol&polymerid=50007050&target=Protein+cereblon&column=ki&startPg=0&Increment=50&submit=Search

> <Link to Ligand-Target Pair in BindingDB>
http://www.bindingdb.org/jsp/dbsearch/PrimarySearch_ki.jsp?energyterm=kJ/mole&tag=r21&monomerid=50630598&enzyme=Protein+cereblon&column=ki&startPg=0&Increment=50&submit=Search

> <Ligand HET ID in PDB>
W26    

> <PDB ID(s) for Ligand-Target Complex>
8OU6

> <PubChem CID of Ligand>
65956852

> <PubChem SID of Ligand>
505048569

> <ChEBI ID of Ligand>


> <ChEMBL ID of Ligand>


> <DrugBank ID of Ligand>


> <IUPHAR_GRAC ID of Ligand>


> <KEGG ID of Ligand>


> <ZINC ID of Ligand>


> <Number of Protein Chains in Target (bigger than 1 implies a multichain complex)>
1

> <BindingDB Target Chain Sequence>
MAGEGDQQDAAHNMGNHLPLLPAESEEEDEMEVEDQDSKEAKKPNIINFDTSLPTSHTYLGADMEEFHGRTLHDDDSCQVIPVLPQVMMILIPGQTLPLQLFHPQEVSMVRNLIQKDRTFAVLAYSNVQEREAQFGTTAEIYAYREEQDFGIEIVKVKAIGRQRFKVLELRTQSDGIQQAKVQILPECVLPSTMSAVQLESLNKCQIFPSKPVSREDQCSYKWWQKYQKRKFHCANLTSWPRWLYSLYDAETLMDRIKKQLREWDENLKDDSLPSNPIDFSYRVAACLPIDDVLRIQLLKIGSAIQRLRCELDIMNKCTSLCCKQCQETEITTKNEIFSLSLCGPMAAYVNPHGYVHETLTVYKACNLNLIGRPSTEHSWFPGYAWTVAQCKICASHIGWKFTATKKDMSPQKFWGLTRSALLPTIPDTEDEISPDKVILCL

> <PDB ID(s) of Target Chain>
8TNR,8TNQ,8TNP,8D81,8D80,8D7Z,8D7Y,8D7X,8D7W,8D7V,8D7U,8CVP,9DQD,8UH6,6BOY,6BNB,6BN9,6BN8,6BN7,6XK9,6UML,5V3O,5HXB,7U8F,8OJH,8OIZ,7LPS,4TZ4,9DJX,9DJT,8U17,8U16,8U15,8TZX,8DEY,9CUO,4M91

> <UniProt (SwissProt) Recommended Name of Target Chain>
Protein cereblon

> <UniProt (SwissProt) Entry Name of Target Chain>
CRBN_HUMAN

> <UniProt (SwissProt) Primary ID of Target Chain>
Q96SW2

> <UniProt (SwissProt) Secondary ID(s) of Target Chain>
B2R6H4 C9IZA9 C9JAH6 Q6AI62 Q6NVZ0 Q9UHW4

> <UniProt (SwissProt) Alternative ID(s) of Target Chain>


> <UniProt (TrEMBL) Submitted Name of Target Chain>


> <UniProt (TrEMBL) Entry Name of Target Chain>


> <UniProt (TrEMBL) Primary ID of Target Chain>


> <UniProt (TrEMBL) Secondary ID(s) of Target Chain>


> <UniProt (TrEMBL) Alternative ID(s) of Target Chain>


$$$$
 
     RDKit          2D

 17 18  0  0  0  0  0  0  0  0999 V2000
   -2.8571   -0.2071    0.0000 C   0  0  0  0  0  0  0  0  0  0  0  0
   -2.1425    0.2051    0.0000 C   0  0  0  0  0  0  0  0  0  0  0  0
   -1.4306   -0.2067    0.0000 C   0  0  0  0  0  0  0  0  0  0  0  0
   -1.4306   -1.0318    0.0000 N   0  0  0  0  0  0  0  0  0  0  0  0
   -2.1407   -1.4435    0.0000 C   0  0  0  0  0  0  0  0  0  0  0  0
   -2.8571   -1.0355    0.0000 C   0  0  0  0  0  0  0  0  0  0  0  0
   -0.7160    0.2058    0.0000 C   0  0  0  0  0  0  0  0  0  0  0  0
   -0.7160    1.0310    0.0000 O   0  0  0  0  0  0  0  0  0  0  0  0
   -0.0014   -0.2067    0.0000 N   0  0  0  0  0  0  0  0  0  0  0  0
    0.7131    0.2058    0.0000 C   0  0  0  0  0  0  0  0  0  0  0  0
    0.7131    1.0310    0.0000 C   0  0  0  0  0  0  0  0  0  0  0  0
    1.4278    1.4435    0.0000 C   0  0  0  0  0  0  0  0  0  0  0  0
    2.1424    1.0310    0.0000 C   0  0  0  0  0  0  0  0  0  0  0  0
    2.1424    0.2058    0.0000 N   0  0  0  0  0  0  0  0  0  0  0  0
    1.4278   -0.2067    0.0000 C   0  0  0  0  0  0  0  0  0  0  0  0
    1.4278   -1.0318    0.0000 O   0  0  0  0  0  0  0  0  0  0  0  0
    2.8571    1.4435    0.0000 O   0  0  0  0  0  0  0  0  0  0  0  0
  2  1  2  0
  3  2  1  0
  4  3  2  0
  5  4  1  0
  1  6  1  0
  6  5  2  0
  3  7  1  0
  7  8  2  0
  7  9  1  0
  9 10  1  0
 11 10  1  0
 12 11  1  0
 13 12  1  0
 14 13  1  0
 15 14  1  0
 10 15  1  0
 15 16  2  0
 13 17  2  0
M  END
> <From>
www.bindingDB.org

> <BindingDB Reactant_set_id>
51567929

> <Ligand InChI>
InChI=1S/C11H11N3O3/c15-9-5-4-8(11(17)14-9)13-10(16)7-3-1-2-6-12-7/h1-3,6,8H,4-5H2,(H,13,16)(H,14,15,17)

> <Ligand InChI Key>
MMPCNYVDMALQGW-UHFFFAOYSA-N

> <BindingDB MonomerID>
50630609

> <BindingDB Ligand Name>
CHEMBL5410366

> <Target Name>
Protein cereblon

> <Target Source Organism According to Curator or DataSource>
Homo sapiens

> <Ki (nM)>


> <IC50 (nM)>
 133000

> <Kd (nM)>


> <EC50 (nM)>


> <kon (M-1-s-1)>


> <koff (s-1)>


> <pH>


> <Temp C>


> <Curation/DataSource>
ChEMBL

> <Article DOI>
10.1021/acs.jmedchem.3c00851

> <BindingDB Entry DOI>
10.7270/Q2PK0MM6

> <PMID>
37902300

> <PubChem AID>


> <Patent Number>


> <Authors>
Steinebach, C; Bricelj, A; Murgai, A; Sosič, I; Bischof, L; Ng, YLD; Heim, C; Maiwald, S; Proj, M; Voget, R; Feller, F; Košmrlj, J; Sapozhnikova, V; Schmidt, A; Zuleeg, MR; Lemnitzer, P; Mertins, P; Hansen, FK; Gütschow, M; Krönke, J; Hartmann, MD

> <Date of publication>
11/9/2023

> <Date in BindingDB>
12/20/2024

> <Institution>
University of Bonn

> <Link to Ligand in BindingDB>
http://www.bindingdb.org/bind/chemsearch/marvin/MolStructure.jsp?monomerid=50630609

> <Link to Ligand-Target Pair in BindingDB>
http://www.bindingdb.org/jsp/dbsearch/PrimarySearch_ki.jsp?energyterm=kJ/mole&tag=pol&polymerid=50007050&target=Protein+cereblon&column=ki&startPg=0&Increment=50&submit=Search

> <Link to Ligand-Target Pair in BindingDB>
http://www.bindingdb.org/jsp/dbsearch/PrimarySearch_ki.jsp?energyterm=kJ/mole&tag=r21&monomerid=50630609&enzyme=Protein+cereblon&column=ki&startPg=0&Increment=50&submit=Search

> <Ligand HET ID in PDB>


> <PDB ID(s) for Ligand-Target Complex>


> <PubChem CID of Ligand>
65956110

> <PubChem SID of Ligand>
505048580

> <ChEBI ID of Ligand>


> <ChEMBL ID of Ligand>


> <DrugBank ID of Ligand>


> <IUPHAR_GRAC ID of Ligand>


> <KEGG ID of Ligand>


> <ZINC ID of Ligand>


> <Number of Protein Chains in Target (bigger than 1 implies a multichain complex)>
1

> <BindingDB Target Chain Sequence>
MAGEGDQQDAAHNMGNHLPLLPAESEEEDEMEVEDQDSKEAKKPNIINFDTSLPTSHTYLGADMEEFHGRTLHDDDSCQVIPVLPQVMMILIPGQTLPLQLFHPQEVSMVRNLIQKDRTFAVLAYSNVQEREAQFGTTAEIYAYREEQDFGIEIVKVKAIGRQRFKVLELRTQSDGIQQAKVQILPECVLPSTMSAVQLESLNKCQIFPSKPVSREDQCSYKWWQKYQKRKFHCANLTSWPRWLYSLYDAETLMDRIKKQLREWDENLKDDSLPSNPIDFSYRVAACLPIDDVLRIQLLKIGSAIQRLRCELDIMNKCTSLCCKQCQETEITTKNEIFSLSLCGPMAAYVNPHGYVHETLTVYKACNLNLIGRPSTEHSWFPGYAWTVAQCKICASHIGWKFTATKKDMSPQKFWGLTRSALLPTIPDTEDEISPDKVILCL

> <PDB ID(s) of Target Chain>
8TNR,8TNQ,8TNP,8D81,8D80,8D7Z,8D7Y,8D7X,8D7W,8D7V,8D7U,8CVP,9DQD,8UH6,6BOY,6BNB,6BN9,6BN8,6BN7,6XK9,6UML,5V3O,5HXB,7U8F,8OJH,8OIZ,7LPS,4TZ4,9DJX,9DJT,8U17,8U16,8U15,8TZX,8DEY,9CUO,4M91

> <UniProt (SwissProt) Recommended Name of Target Chain>
Protein cereblon

> <UniProt (SwissProt) Entry Name of Target Chain>
CRBN_HUMAN

> <UniProt (SwissProt) Primary ID of Target Chain>
Q96SW2

> <UniProt (SwissProt) Secondary ID(s) of Target Chain>
B2R6H4 C9IZA9 C9JAH6 Q6AI62 Q6NVZ0 Q9UHW4

> <UniProt (SwissProt) Alternative ID(s) of Target Chain>


> <UniProt (TrEMBL) Submitted Name of Target Chain>


> <UniProt (TrEMBL) Entry Name of Target Chain>


> <UniProt (TrEMBL) Primary ID of Target Chain>


> <UniProt (TrEMBL) Secondary ID(s) of Target Chain>


> <UniProt (TrEMBL) Alternative ID(s) of Target Chain>


$$$$

  SciTegic12131615192D

  8  8  0  0  0  0            999 V2000
    1.2990   -0.7500    0.0000 C   0  0
    1.2990    0.7500    0.0000 C   0  0
    0.0000    1.5000    0.0000 C   0  0
   -1.2990    0.7500    0.0000 C   0  0
   -1.2990   -0.7500    0.0000 C   0  0
    0.0000   -1.5000    0.0000 N   0  0
    2.3383   -1.3500    0.0000 O   0  0
   -2.3383   -1.3500    0.0000 O   0  0
  1  2  1  0
  1  6  1  0
  2  3  1  0
  3  4  1  0
  4  5  1  0
  5  6  1  0
  1  7  2  0
  5  8  2  0
M  END
> <From>
www.bindingDB.org

> <BindingDB Reactant_set_id>
50467258

> <Ligand InChI>
InChI=1S/C5H7NO2/c7-4-2-1-3-5(8)6-4/h1-3H2,(H,6,7,8)

> <Ligand InChI Key>
KNCYXPMJDCCGSJ-UHFFFAOYSA-N

> <BindingDB MonomerID>
50146597

> <BindingDB Ligand Name>
CHEMBL3763941

> <Target Name>
Protein cereblon

> <Target Source Organism According to Curator or DataSource>
Human

> <Ki (nM)>


> <IC50 (nM)>
 135800

> <Kd (nM)>


> <EC50 (nM)>


> <kon (M-1-s-1)>


> <koff (s-1)>


> <pH>


> <Temp C>


> <Curation/DataSource>
ChEMBL

> <Article DOI>
10.1021/acs.jmedchem.5b01735

> <BindingDB Entry DOI>
10.7270/Q2PR7XVF

> <PMID>
26730808

> <PubChem AID>


> <Patent Number>


> <Authors>
Boichenko, I; Deiss, S; Bär, K; Hartmann, MD; Hernandez Alvarez, B

> <Date of publication>
1/28/2016

> <Date in BindingDB>
6/17/2017

> <Institution>
Max Planck Institute for Developmental Biology

> <Link to Ligand in BindingDB>
http://www.bindingdb.org/bind/chemsearch/marvin/MolStructure.jsp?monomerid=50146597

> <Link to Ligand-Target Pair in BindingDB>
http://www.bindingdb.org/jsp/dbsearch/PrimarySearch_ki.jsp?energyterm=kJ/mole&tag=pol&polymerid=50007050&target=Protein+cereblon&column=ki&startPg=0&Increment=50&submit=Search

> <Link to Ligand-Target Pair in BindingDB>
http://www.bindingdb.org/jsp/dbsearch/PrimarySearch_ki.jsp?energyterm=kJ/mole&tag=r21&monomerid=50146597&enzyme=Protein+cereblon&column=ki&startPg=0&Increment=50&submit=Search

> <Ligand HET ID in PDB>
9UZ

> <PDB ID(s) for Ligand-Target Complex>
5OH4

> <PubChem CID of Ligand>
10179224

> <PubChem SID of Ligand>
104035186

> <ChEBI ID of Ligand>


> <ChEMBL ID of Ligand>
CHEMBL3763941

> <DrugBank ID of Ligand>


> <IUPHAR_GRAC ID of Ligand>


> <KEGG ID of Ligand>
C07275

> <ZINC ID of Ligand>
ZINC13560999

> <Number of Protein Chains in Target (bigger than 1 implies a multichain complex)>
1

> <BindingDB Target Chain Sequence>
MAGEGDQQDAAHNMGNHLPLLPAESEEEDEMEVEDQDSKEAKKPNIINFDTSLPTSHTYLGADMEEFHGRTLHDDDSCQVIPVLPQVMMILIPGQTLPLQLFHPQEVSMVRNLIQKDRTFAVLAYSNVQEREAQFGTTAEIYAYREEQDFGIEIVKVKAIGRQRFKVLELRTQSDGIQQAKVQILPECVLPSTMSAVQLESLNKCQIFPSKPVSREDQCSYKWWQKYQKRKFHCANLTSWPRWLYSLYDAETLMDRIKKQLREWDENLKDDSLPSNPIDFSYRVAACLPIDDVLRIQLLKIGSAIQRLRCELDIMNKCTSLCCKQCQETEITTKNEIFSLSLCGPMAAYVNPHGYVHETLTVYKACNLNLIGRPSTEHSWFPGYAWTVAQCKICASHIGWKFTATKKDMSPQKFWGLTRSALLPTIPDTEDEISPDKVILCL

> <PDB ID(s) of Target Chain>
4TZ4,5HXB,5V3O,6UML,6XK9,7LPS,7U8F,8CVP,8D7U,8D7V,8D7W,8D7X,8D7Y,8D7Z,8D80,8D81,8DEY,8OIZ,8OJH

> <UniProt (SwissProt) Recommended Name of Target Chain>
Protein cereblon

> <UniProt (SwissProt) Entry Name of Target Chain>
CRBN_HUMAN

> <UniProt (SwissProt) Primary ID of Target Chain>
Q96SW2

> <UniProt (SwissProt) Secondary ID(s) of Target Chain>
B2R6H4 C9IZA9 C9JAH6 Q6AI62 Q6NVZ0 Q9UHW4

> <UniProt (SwissProt) Alternative ID(s) of Target Chain>


> <UniProt (TrEMBL) Submitted Name of Target Chain>


> <UniProt (TrEMBL) Entry Name of Target Chain>


> <UniProt (TrEMBL) Primary ID of Target Chain>


> <UniProt (TrEMBL) Secondary ID(s) of Target Chain>


> <UniProt (TrEMBL) Alternative ID(s) of Target Chain>


$$$$
 
     RDKit          2D

  8  8  0  0  0  0  0  0  0  0999 V2000
    2.7858   -4.2098    0.0000 C   0  0  0  0  0  0  0  0  0  0  0  0
    3.6030   -4.2098    0.0000 N   0  0  0  0  0  0  0  0  0  0  0  0
    3.8574   -3.4331    0.0000 C   0  0  0  0  0  0  0  0  0  0  0  0
    3.1944   -2.9510    0.0000 C   0  0  0  0  0  0  0  0  0  0  0  0
    2.5357   -3.4331    0.0000 N   0  0  0  0  0  0  0  0  0  0  0  0
    2.3047   -4.8703    0.0000 O   0  0  0  0  0  0  0  0  0  0  0  0
    4.6350   -3.1816    0.0000 O   0  0  0  0  0  0  0  0  0  0  0  0
    1.7584   -3.1809    0.0000 C   0  0  0  0  0  0  0  0  0  0  0  0
  1  2  1  0
  2  3  1  0
  3  4  1  0
  4  5  1  0
  5  1  1  0
  1  6  2  0
  3  7  2  0
  5  8  1  0
M  END
> <From>
www.bindingDB.org

> <BindingDB Reactant_set_id>
51359697

> <Ligand InChI>
InChI=1S/C4H6N2O2/c1-6-2-3(7)5-4(6)8/h2H2,1H3,(H,5,7,8)

> <Ligand InChI Key>
RHYBFKMFHLPQPH-UHFFFAOYSA-N

> <BindingDB MonomerID>
50549806

> <BindingDB Ligand Name>
CHEMBL4758352

> <Target Name>
Protein cereblon

> <Target Source Organism According to Curator or DataSource>
Human

> <Ki (nM)>


> <IC50 (nM)>
 137000

> <Kd (nM)>


> <EC50 (nM)>


> <kon (M-1-s-1)>


> <koff (s-1)>


> <pH>


> <Temp C>


> <Curation/DataSource>
ChEMBL

> <Article DOI>
10.1021/acsmedchemlett.0c00440

> <BindingDB Entry DOI>
10.7270/Q2WM1J1B

> <PMID>
33488967

> <PubChem AID>


> <Patent Number>


> <Authors>
Maiwald, S; Heim, C; Hernandez Alvarez, B; Hartmann, MD

> <Date of publication>
1/14/2021

> <Date in BindingDB>
3/23/2022

> <Institution>
Max Planck Institute for Developmental Biology

> <Link to Ligand in BindingDB>
http://www.bindingdb.org/bind/chemsearch/marvin/MolStructure.jsp?monomerid=50549806

> <Link to Ligand-Target Pair in BindingDB>
http://www.bindingdb.org/jsp/dbsearch/PrimarySearch_ki.jsp?energyterm=kJ/mole&tag=pol&polymerid=50007050&target=Protein+cereblon&column=ki&startPg=0&Increment=50&submit=Search

> <Link to Ligand-Target Pair in BindingDB>
http://www.bindingdb.org/jsp/dbsearch/PrimarySearch_ki.jsp?energyterm=kJ/mole&tag=r21&monomerid=50549806&enzyme=Protein+cereblon&column=ki&startPg=0&Increment=50&submit=Search

> <Ligand HET ID in PDB>


> <PDB ID(s) for Ligand-Target Complex>


> <PubChem CID of Ligand>
69217

> <PubChem SID of Ligand>
461680146

> <ChEBI ID of Ligand>


> <ChEMBL ID of Ligand>


> <DrugBank ID of Ligand>


> <IUPHAR_GRAC ID of Ligand>


> <KEGG ID of Ligand>
C02565

> <ZINC ID of Ligand>


> <Number of Protein Chains in Target (bigger than 1 implies a multichain complex)>
1

> <BindingDB Target Chain Sequence>
MAGEGDQQDAAHNMGNHLPLLPAESEEEDEMEVEDQDSKEAKKPNIINFDTSLPTSHTYLGADMEEFHGRTLHDDDSCQVIPVLPQVMMILIPGQTLPLQLFHPQEVSMVRNLIQKDRTFAVLAYSNVQEREAQFGTTAEIYAYREEQDFGIEIVKVKAIGRQRFKVLELRTQSDGIQQAKVQILPECVLPSTMSAVQLESLNKCQIFPSKPVSREDQCSYKWWQKYQKRKFHCANLTSWPRWLYSLYDAETLMDRIKKQLREWDENLKDDSLPSNPIDFSYRVAACLPIDDVLRIQLLKIGSAIQRLRCELDIMNKCTSLCCKQCQETEITTKNEIFSLSLCGPMAAYVNPHGYVHETLTVYKACNLNLIGRPSTEHSWFPGYAWTVAQCKICASHIGWKFTATKKDMSPQKFWGLTRSALLPTIPDTEDEISPDKVILCL

> <PDB ID(s) of Target Chain>
4TZ4,5HXB,5V3O,6UML,6XK9,7LPS,7U8F,8CVP,8D7U,8D7V,8D7W,8D7X,8D7Y,8D7Z,8D80,8D81,8DEY,8OIZ,8OJH

> <UniProt (SwissProt) Recommended Name of Target Chain>
Protein cereblon

> <UniProt (SwissProt) Entry Name of Target Chain>
CRBN_HUMAN

> <UniProt (SwissProt) Primary ID of Target Chain>
Q96SW2

> <UniProt (SwissProt) Secondary ID(s) of Target Chain>
B2R6H4 C9IZA9 C9JAH6 Q6AI62 Q6NVZ0 Q9UHW4

> <UniProt (SwissProt) Alternative ID(s) of Target Chain>


> <UniProt (TrEMBL) Submitted Name of Target Chain>


> <UniProt (TrEMBL) Entry Name of Target Chain>


> <UniProt (TrEMBL) Primary ID of Target Chain>


> <UniProt (TrEMBL) Secondary ID(s) of Target Chain>


> <UniProt (TrEMBL) Alternative ID(s) of Target Chain>


$$$$
rolipram
  Mrv0541 11181423272D          

 20 22  0  0  0  0            999 V2000
   10.7166  -11.3182    0.0000 C   0  0  0  0  0  0  0  0  0  0  0  0
   13.6491   -9.8404    0.0000 N   0  0  0  0  0  0  0  0  0  0  0  0
   14.1112  -10.5099    0.0000 C   0  0  0  0  0  0  0  0  0  0  0  0
   12.1251  -11.3412    0.0000 C   0  0  0  0  0  0  0  0  0  0  0  0
   11.4325  -10.9254    0.0000 C   0  0  0  0  0  0  0  0  0  0  0  0
   12.8411  -10.9254    0.0000 C   0  0  0  0  0  0  0  0  0  0  0  0
   10.0009  -10.9254    0.0000 O   0  0  0  0  0  0  0  0  0  0  0  0
   13.6491  -11.1796    0.0000 C   0  0  0  0  0  0  0  0  0  0  0  0
   10.7166  -12.1493    0.0000 C   0  0  0  0  0  0  0  0  0  0  0  0
   12.8411  -10.0943    0.0000 C   0  0  0  0  0  0  0  0  0  0  0  0
   14.9423  -10.5099    0.0000 O   0  0  0  0  0  0  0  0  0  0  0  0
   12.1251  -12.1493    0.0000 C   0  0  0  0  0  0  0  0  0  0  0  0
   11.4325  -12.5649    0.0000 C   0  0  0  0  0  0  0  0  0  0  0  0
    9.2849  -11.3412    0.0000 C   0  0  0  0  0  0  0  0  0  0  0  0
   10.0009  -12.5649    0.0000 O   0  0  0  0  0  0  0  0  0  0  0  0
   10.0009  -13.3962    0.0000 C   0  0  0  0  0  0  0  0  0  0  0  0
    9.2849  -12.1493    0.0000 C   0  0  0  0  0  0  0  0  0  0  0  0
    8.5000  -11.0870    0.0000 C   0  0  0  0  0  0  0  0  0  0  0  0
    8.0149  -11.7568    0.0000 C   0  0  0  0  0  0  0  0  0  0  0  0
    8.5000  -12.4032    0.0000 C   0  0  0  0  0  0  0  0  0  0  0  0
  5  1  2  0  0  0  0
  7  1  1  0  0  0  0
  9  1  1  0  0  0  0
 10  2  1  0  0  0  0
  3  2  1  0  0  0  0
  8  3  1  0  0  0  0
 11  3  2  0  0  0  0
  5  4  1  0  0  0  0
  6  4  1  0  0  0  0
 12  4  2  0  0  0  0
  8  6  1  0  0  0  0
 10  6  1  0  0  0  0
 14  7  1  0  0  0  0
 13  9  2  0  0  0  0
 15  9  1  0  0  0  0
 13 12  1  0  0  0  0
 17 14  1  0  0  0  0
 18 14  1  0  0  0  0
 16 15  1  0  0  0  0
 20 17  1  0  0  0  0
 19 18  1  0  0  0  0
 20 19  1  0  0  0  0
M  END
> <From>
www.bindingDB.org

> <BindingDB Reactant_set_id>
51359715

> <Ligand InChI>
InChI=1S/C16H21NO3/c1-19-14-7-6-11(12-9-16(18)17-10-12)8-15(14)20-13-4-2-3-5-13/h6-8,12-13H,2-5,9-10H2,1H3,(H,17,18)

> <Ligand InChI Key>
HJORMJIFDVBMOB-UHFFFAOYSA-N

> <BindingDB MonomerID>
14361

> <BindingDB Ligand Name>
(R,S)-Rolipram::4-(3-cyclopentyloxy-4-methoxy-phenyl)pyrrolidin-2-one::4-[3-(cyclopentyloxy)-4-methoxyphenyl]pyrrolidin-2-one::Adeo::CHEMBL63::Rolipram

> <Target Name>
Protein cereblon

> <Target Source Organism According to Curator or DataSource>
Human

> <Ki (nM)>


> <IC50 (nM)>
 202000

> <Kd (nM)>


> <EC50 (nM)>


> <kon (M-1-s-1)>


> <koff (s-1)>


> <pH>


> <Temp C>


> <Curation/DataSource>
ChEMBL

> <Article DOI>
10.1021/acsmedchemlett.0c00440

> <BindingDB Entry DOI>
10.7270/Q2WM1J1B

> <PMID>
33488967

> <PubChem AID>


> <Patent Number>


> <Authors>
Maiwald, S; Heim, C; Hernandez Alvarez, B; Hartmann, MD

> <Date of publication>
1/14/2021

> <Date in BindingDB>
3/23/2022

> <Institution>
Max Planck Institute for Developmental Biology

> <Link to Ligand in BindingDB>
http://www.bindingdb.org/bind/chemsearch/marvin/MolStructure.jsp?monomerid=14361

> <Link to Ligand-Target Pair in BindingDB>
http://www.bindingdb.org/jsp/dbsearch/PrimarySearch_ki.jsp?energyterm=kJ/mole&tag=pol&polymerid=50007050&target=Protein+cereblon&column=ki&startPg=0&Increment=50&submit=Search

> <Link to Ligand-Target Pair in BindingDB>
http://www.bindingdb.org/jsp/dbsearch/PrimarySearch_ki.jsp?energyterm=kJ/mole&tag=r21&monomerid=14361&enzyme=Protein+cereblon&column=ki&startPg=0&Increment=50&submit=Search

> <Ligand HET ID in PDB>
4RR

> <PDB ID(s) for Ligand-Target Complex>
1XMY,1OYN,1Q9M,5OH8,1RO6,1TBB,1XN0,4X0F,3G4K

> <PubChem CID of Ligand>
5092

> <PubChem SID of Ligand>
46514702

> <ChEBI ID of Ligand>
104872

> <ChEMBL ID of Ligand>
CHEMBL63

> <DrugBank ID of Ligand>


> <IUPHAR_GRAC ID of Ligand>
5260

> <KEGG ID of Ligand>


> <ZINC ID of Ligand>
ZINC02000919

> <Number of Protein Chains in Target (bigger than 1 implies a multichain complex)>
1

> <BindingDB Target Chain Sequence>
MAGEGDQQDAAHNMGNHLPLLPAESEEEDEMEVEDQDSKEAKKPNIINFDTSLPTSHTYLGADMEEFHGRTLHDDDSCQVIPVLPQVMMILIPGQTLPLQLFHPQEVSMVRNLIQKDRTFAVLAYSNVQEREAQFGTTAEIYAYREEQDFGIEIVKVKAIGRQRFKVLELRTQSDGIQQAKVQILPECVLPSTMSAVQLESLNKCQIFPSKPVSREDQCSYKWWQKYQKRKFHCANLTSWPRWLYSLYDAETLMDRIKKQLREWDENLKDDSLPSNPIDFSYRVAACLPIDDVLRIQLLKIGSAIQRLRCELDIMNKCTSLCCKQCQETEITTKNEIFSLSLCGPMAAYVNPHGYVHETLTVYKACNLNLIGRPSTEHSWFPGYAWTVAQCKICASHIGWKFTATKKDMSPQKFWGLTRSALLPTIPDTEDEISPDKVILCL

> <PDB ID(s) of Target Chain>
4TZ4,5HXB,5V3O,6UML,6XK9,7LPS,7U8F,8CVP,8D7U,8D7V,8D7W,8D7X,8D7Y,8D7Z,8D80,8D81,8DEY,8OIZ,8OJH

> <UniProt (SwissProt) Recommended Name of Target Chain>
Protein cereblon

> <UniProt (SwissProt) Entry Name of Target Chain>
CRBN_HUMAN

> <UniProt (SwissProt) Primary ID of Target Chain>
Q96SW2

> <UniProt (SwissProt) Secondary ID(s) of Target Chain>
B2R6H4 C9IZA9 C9JAH6 Q6AI62 Q6NVZ0 Q9UHW4

> <UniProt (SwissProt) Alternative ID(s) of Target Chain>


> <UniProt (TrEMBL) Submitted Name of Target Chain>


> <UniProt (TrEMBL) Entry Name of Target Chain>


> <UniProt (TrEMBL) Primary ID of Target Chain>


> <UniProt (TrEMBL) Secondary ID(s) of Target Chain>


> <UniProt (TrEMBL) Alternative ID(s) of Target Chain>


$$$$

  Mrv0541 11221423032D          

  4  3  0  0  0  0            999 V2000
    1.4948   -0.5804    0.0000 S   0  0  0  0  0  0  0  0  0  0  0  0
    1.4948    0.2463    0.0000 O   0  0  0  0  0  0  0  0  0  0  0  0
    0.7808   -0.9938    0.0000 C   0  0  0  0  0  0  0  0  0  0  0  0
    2.2088   -0.9938    0.0000 C   0  0  0  0  0  0  0  0  0  0  0  0
  2  1  2  0  0  0  0
  3  1  1  0  0  0  0
  4  1  1  0  0  0  0
M  END
> <From>
www.bindingDB.org

> <BindingDB Reactant_set_id>
51359690

> <Ligand InChI>
InChI=1S/C2H6OS/c1-4(2)3/h1-2H3

> <Ligand InChI Key>
IAZDPXIOMUYVGZ-UHFFFAOYSA-N

> <BindingDB MonomerID>
50026472

> <BindingDB Ligand Name>
(CH3)2SO::(methanesulfinyl)methanedimethyl sulfoxide::CHEMBL504::DIMETHYL SULFOXIDE::Dimethylsulfoxid::S(O)Me2::dimethyl sulfur oxide::dimethyl sulphoxide::dmso::methylsulfinylmethane::sulfinylbis(methane)

> <Target Name>
Protein cereblon

> <Target Source Organism According to Curator or DataSource>
Human

> <Ki (nM)>


> <IC50 (nM)>
 264000

> <Kd (nM)>


> <EC50 (nM)>


> <kon (M-1-s-1)>


> <koff (s-1)>


> <pH>


> <Temp C>


> <Curation/DataSource>
ChEMBL

> <Article DOI>
10.1021/acsmedchemlett.0c00440

> <BindingDB Entry DOI>
10.7270/Q2WM1J1B

> <PMID>
33488967

> <PubChem AID>


> <Patent Number>


> <Authors>
Maiwald, S; Heim, C; Hernandez Alvarez, B; Hartmann, MD

> <Date of publication>
1/14/2021

> <Date in BindingDB>
3/23/2022

> <Institution>
Max Planck Institute for Developmental Biology

> <Link to Ligand in BindingDB>
http://www.bindingdb.org/bind/chemsearch/marvin/MolStructure.jsp?monomerid=50026472

> <Link to Ligand-Target Pair in BindingDB>
http://www.bindingdb.org/jsp/dbsearch/PrimarySearch_ki.jsp?energyterm=kJ/mole&tag=pol&polymerid=50007050&target=Protein+cereblon&column=ki&startPg=0&Increment=50&submit=Search

> <Link to Ligand-Target Pair in BindingDB>
http://www.bindingdb.org/jsp/dbsearch/PrimarySearch_ki.jsp?energyterm=kJ/mole&tag=r21&monomerid=50026472&enzyme=Protein+cereblon&column=ki&startPg=0&Increment=50&submit=Search

> <Ligand HET ID in PDB>
DMS

> <PDB ID(s) for Ligand-Target Complex>
5QAO,5R4M,5R4L,5R4H,5R4J,6TW6,6BJ6,6BJ7,5QH3,5QH5,4LCA,4LC4,2ZDK,5QHG,5FCR,5RL5,5RL0,5QBK,6JKE,4Q4P,4Q4M,4Q4O,3NXU,6ZOW,6F6I,6F6N,6F6S,5N34,5N37,5N31,5N33,5N39,6NRH,5N3E,5N3A,5N3L,5N3M,5N3N,5N3O,5N3H,5N3I,5N3J,5N3K,5N3T,5N3V,5N3P,5N3Q,5N3R,5N3S,5N3Y,6Q4E,6Q4J,6Q4I,7BM7,7BM1,6Q49,6I51,6TW5,7DBG,5RZK,3E9Z,5RZM,5RZ3,5RZ2,5RZ1,5RZ0,5RZ7,5RZ5,5RZ4,7LCE,7ZX2,7ABU,6QJU,7WB6,7WB7,7R3O,7R3V,5EV8,4K0Z,7A41,6E0I,3E0Q,8C77,4JKU,4JKS,5RL4,5RL1,5RL3,5RL2,5RES,5REP,6T6W,1WAY,5RE4,5RE8,6W07,6W06,3K69,6SE4,6SET,6SEX,7B6G,7B6A,7B6C,7B69,7B68,7B61,7B60,7BS9,7USK,6URW,6URX,4TRN,4TRO,1HYT,8F4T,4MKA,7V2T,4MK8,4MK7,4CV9,4CVA,6DYA,7PHZ,5RWA,5RWN,7JMQ,5RZT,3UNT,4V82,4D4S,4D4V,4D4Y,1RRC,5JFG,5JFD,5JFR,3G72,3G70,3CZJ,5JBB,5JBN,5B5E,6FBA,4FVO,6ENX,7OQQ,6B59,6B56,8B72,7ADG,3PSY,3PS1,3PS2,3PS3,4NSI,4NSH,3VD7,3VD5,3VDC,3VDA,5DDC,5DDB,5DDA,5DDF,5DDE,5DDD,5FV3,4PML,5RBO,5RBZ,5RBY,5RBX,5RBS,5RBR,5RBQ,5RBP,5RBW,5RBV,5RBU,5RBT,3R16,3R17,7Z41,7Z4S,8DOY,4D91,4D9W,3SEP,4EK2,7P51,1LJ5,3MRV,6VV1,4O0C,5JQ7,4DST,4PG8,4PG5,4PG4,4PG6,4PG1,4PG0,4YRQ,4YRP,4YRC,4YRG,4YRF,4YRE,4YRK,4YRI,4YRO,4YRN,4YRL,2WI2,5AF9,5AFY,5MRA,6GOH,6GOI,3T6I,6RKT,6RKQ,4XMI,6S9Z,6S9D,4HP7,6EED,6EEE,2ICX,2ICY,4MQY,5MWJ,4J66,7LDX,7KMC,4KFB,3Q6Y,5LHB,5LH4,3E1F,5RWF,5FY1,5FY8,5FYU,5FYI,4QTL,4QTB,3AD4,3AD5,3AD6,4CQB,5OW8,6MNH,8D4I,4DXX,4ICL,6IUP,7XM7,2AOJ,2AOC,2AOD,2AOE,6R6W,6R6Y,6R6F,6R6J,5AK3,4Z3M,5AKS,5N9R,5AKJ,5AKI,5AKH,6G2W,6G2V,6G2Z,6G2Y,6G2X,2A1E,7BS6,7BS7,7BS4,7BS5,7Q11,6XM9,6XM8,6XM7,3TFU,3TFT,5M5F,7ATM,7ATO,6QDD,3V2M,6EPN,4WW6,8A9S,7DB2,7DB0,3LUF,6ZS8,6TVE,6TV4,6BI9,6BI1,5RSX,4LBT,4LBX,4LBG,6Y73,2X7Y,5FLP,5FLS,5FLR,5FLH,5FLJ,4QO9,6YA5,6YAP,6YAO,5QI6,5QI3,4BFD,7ABJ,7ABE,6F5W,6F5U,7L2A,4DMR,7B8Y,4INH,6OPB,6OPJ,4GCB,4GCC,4GCF,4GCD,4GCE,7ZB6,6HZB,6HZC,6HZD,5S3A,5S3C,5S3E,5S3D,5S3F,5S3T,5S34,5S39,6CZU,3ZOV,3ZOU,3ZO4,6NRF,6NRI,3OGQ,4A9N,1YX9,8OKM,8OKK,7BD6,8CKS,2X80,4ZEA,4ZE6,4E43,7NZW,7NZS,7NZR,4BKR,7B6K,7A4X,7A4R,3T09,3T08,3T0A,3T0B,3T0D,6PJV,7QU5,7QU3,7QU0,7B7H,5RHA,4GV0,4GV2,4GV4,3FGD,4ZW8,8G65,8G67,8G6A,7OGI,4MDS,3EDI,3PI0,7JFY,5LWD,5LWT,5LWU,5LWR,6PWH,4U77,5RHB,5RHD,5RH8,5RH1,5RH5,5RH4,5RH7,8C5P,4ZLZ,5OLD,5OLE,4UMT,5J1X,7AB1,5RGH,5RGI,5RGJ,5RGK,5RGT,5RGU,5RGW,5RGP,5RGQ,5RGR,5RGS,5RGX,5RGY,5RG0,5RG1,5RG2,5RG3,3DJF,5JGQ,7NQW,7NQQ,7NQO,7MDP,7MDC,7MDE,7MDF,3SAX,3SAP,6SY3,5WCG,7V62,4H0B,3F8W,5B66,7BTK,5TS8,6YIS,6EO8,6EO9,7OPN,6B4Q,6B4T,6B4D,5QUS,5QUU,5Z47,5USZ,2XDU,1TZ8,5OTL,7FON,5OTP,5LBA,4XCT,1RPZ,5YZO,7CME,5RCA,5RCC,5RCE,5RCG,5RC9,5RC1,5RC2,5ILF,5ILC,4X5Z,4X5Y,7QVZ,7Z58,8EN6,3S42,3RXM,3RXL,3RXK,3RXI,3RXG,3RXF,3RXD,3RXC,3RXB,3RXV,3RXU,3RXT,3RXS,3RXR,3RXQ,3RXP,6VUY,6VUX,6VUU,5JRQ,2AQ9,7KXP,7KXQ,7KXO,7KXL,2WJP,6UEC,3TLI,7NML,5HZ8,5HZ5,5BWW,5BWX,6X9N,6OWH,6X94,4MRG,4MRF,4MRE,4MRA,4MRH,4MR6,4MR5,4J17,4J1I,4J1H,4J1K,4J1E,4J1F,4J1C,7LEV,7JR4,2ZM4,2ZM1,5FZG,5FZF,5FZE,5FZC,5FZB,5FZA,5FZM,5FZL,5FZK,5FZI,5FZH,5FZ7,5FZ6,5FZ4,5FZ3,5FZ1,5FZ0,5FZ9,5DB1,5DB0,7NKW,7MNG,3AC5,3AC4,3AC1,3AC2,3ACK,3ACJ,7MHN,7MHH,5IEQ,5IEG,7MU7,4XIK,4ID5,3WZ7,4IDK,7QBB,5MLS,5DRO,5DRP,5DRS,5DR4,5DR1,5DR0,5DR3,7B99,5SZ6,6G30,6G38,6G3A,4WNJ,4RUK,7DIJ,3TGH,2R9X,3V3M,6QED,6QEI,4FOW,4FOV,1QA7,6EQS,5RGM,4L7G,4L7H,4L7L,4L7O,4L70,6OBU,5RGO,6DMI,6BHB,6BH0,6BH1,6BH3,4LAX,7JYC,6Y4I,4OGB,4OG8,4OG6,4OG7,4OG4,4OG5,4OG3,3QTF,3N4C,5H4J,7BJ6,6U3P,4Q6E,4Q6D,4C7H,4C7I,7MHM,6GHX,6GH9,3WZ8,4IOR,7B9N,4IOO,7MHI,4YI3,6ROF,7BC9,7BCD,6I3E,5RF4,5RF2,5HLL,7R1Q,5RFL,5TTG,3ZL6,3GVB,3H6W,3H6V,3H6T,3GV9,3QYK,3QYW,3QYZ,5TMG,8EYF,8EYE,6EA2,5TMK,4LAW,6T0P,6T0E,6T0M,6YUY,4LAP,4PVO,5TBV,5TBP,5TBS,6W29,7AYW,7OVO,6B7D,6SG6,8DG1,8DG2,5MNQ,5MNR,6QHC,7QTY,3F2P,7QT9,7QT5,7QT6,7QT7,1PE7,1PE8,7OFI,7OFK,7OFD,7OFE,7OFF,7OFA,7OFB,7OFC,7OF9,4MEO,3X1J,3X1K,7AMJ,2H7Y,2H7X,7P42,7ZWX,7ZWS,7ZWQ,7ZWV,7ZWT,7ZWN,5K7T,4XU1,4U0G,5SBR,3I1A,7ZUI,7ZUJ,7ZUK,5LIV,4A5Z,5O7I,8F4U,4Y35,4Y38,4Y39,4Y3Q,4Y3R,4Y3T,4Y3X,4Y3Y,4Y3A,4Y3D,4Y3E,4Y3F,4Y3J,4Y3L,4ZY5,7LAY,3HWJ,7ZAZ,7ZAB,7NNX,5SBK,3MMX,7N8E,6SZO,6SZM,6DY7,6O1H,6XY7,3TRS,4LHH,3I3E,3I3D,4G4H,4G4C,4G4B,5LL4,7OSS,7OSP,7OSX,5QTB,5QTC,5QTA,6B37,5QT8,5QT9,5QT6,5QT7,5QT4,5QT5,5QT2,5QT1,6B3L,4MXJ,8CW2,7QLT,8BOV,5LCE,5RW5,5RW6,5RW2,5RW3,5RW8,5RWT,5RWU

> <PubChem CID of Ligand>
679

> <PubChem SID of Ligand>
103936112

> <ChEBI ID of Ligand>
28262

> <ChEMBL ID of Ligand>
CHEMBL504

> <DrugBank ID of Ligand>
DB01093

> <IUPHAR_GRAC ID of Ligand>


> <KEGG ID of Ligand>
C11143

> <ZINC ID of Ligand>
ZINC05224188

> <Number of Protein Chains in Target (bigger than 1 implies a multichain complex)>
1

> <BindingDB Target Chain Sequence>
MAGEGDQQDAAHNMGNHLPLLPAESEEEDEMEVEDQDSKEAKKPNIINFDTSLPTSHTYLGADMEEFHGRTLHDDDSCQVIPVLPQVMMILIPGQTLPLQLFHPQEVSMVRNLIQKDRTFAVLAYSNVQEREAQFGTTAEIYAYREEQDFGIEIVKVKAIGRQRFKVLELRTQSDGIQQAKVQILPECVLPSTMSAVQLESLNKCQIFPSKPVSREDQCSYKWWQKYQKRKFHCANLTSWPRWLYSLYDAETLMDRIKKQLREWDENLKDDSLPSNPIDFSYRVAACLPIDDVLRIQLLKIGSAIQRLRCELDIMNKCTSLCCKQCQETEITTKNEIFSLSLCGPMAAYVNPHGYVHETLTVYKACNLNLIGRPSTEHSWFPGYAWTVAQCKICASHIGWKFTATKKDMSPQKFWGLTRSALLPTIPDTEDEISPDKVILCL

> <PDB ID(s) of Target Chain>
4TZ4,5HXB,5V3O,6UML,6XK9,7LPS,7U8F,8CVP,8D7U,8D7V,8D7W,8D7X,8D7Y,8D7Z,8D80,8D81,8DEY,8OIZ,8OJH

> <UniProt (SwissProt) Recommended Name of Target Chain>
Protein cereblon

> <UniProt (SwissProt) Entry Name of Target Chain>
CRBN_HUMAN

> <UniProt (SwissProt) Primary ID of Target Chain>
Q96SW2

> <UniProt (SwissProt) Secondary ID(s) of Target Chain>
B2R6H4 C9IZA9 C9JAH6 Q6AI62 Q6NVZ0 Q9UHW4

> <UniProt (SwissProt) Alternative ID(s) of Target Chain>


> <UniProt (TrEMBL) Submitted Name of Target Chain>


> <UniProt (TrEMBL) Entry Name of Target Chain>


> <UniProt (TrEMBL) Primary ID of Target Chain>


> <UniProt (TrEMBL) Secondary ID(s) of Target Chain>


> <UniProt (TrEMBL) Alternative ID(s) of Target Chain>


$$$$
75792
  Mrv0541 01031813182D          

 19 21  0  0  1  0            999 V2000
    5.1662   -1.4289    0.0000 O   0  0  0  0  0  0  0  0  0  0  0  0
    4.1159    1.4481    0.0000 O   0  0  0  0  0  0  0  0  0  0  0  0
    4.1159   -1.4481    0.0000 O   0  0  0  0  0  0  0  0  0  0  0  0
    7.6412    0.0000    0.0000 O   0  0  0  0  0  0  0  0  0  0  0  0
    4.3412    0.0000    0.0000 N   0  0  0  0  0  0  0  0  0  0  0  0
    6.4037   -0.7145    0.0000 N   0  0  0  0  0  0  0  0  0  0  0  0
    5.1662    0.0000    0.0000 C   0  0  2  0  0  0  0  0  0  0  0  0
    5.5787    0.7145    0.0000 C   0  0  0  0  0  0  0  0  0  0  0  0
    6.4037    0.7145    0.0000 C   0  0  0  0  0  0  0  0  0  0  0  0
    5.5787   -0.7145    0.0000 C   0  0  0  0  0  0  0  0  0  0  0  0
    3.8597    0.6639    0.0000 C   0  0  0  0  0  0  0  0  0  0  0  0
    3.8597   -0.6639    0.0000 C   0  0  0  0  0  0  0  0  0  0  0  0
    3.0790    0.4125    0.0000 C   0  0  0  0  0  0  0  0  0  0  0  0
    3.0790   -0.4125    0.0000 C   0  0  0  0  0  0  0  0  0  0  0  0
    6.8162    0.0000    0.0000 C   0  0  0  0  0  0  0  0  0  0  0  0
    2.3645   -0.8250    0.0000 C   0  0  0  0  0  0  0  0  0  0  0  0
    2.3645    0.8250    0.0000 C   0  0  0  0  0  0  0  0  0  0  0  0
    1.6500   -0.4125    0.0000 C   0  0  0  0  0  0  0  0  0  0  0  0
    1.6500    0.4125    0.0000 C   0  0  0  0  0  0  0  0  0  0  0  0
  1 10  2  0  0  0  0
  2 11  2  0  0  0  0
  3 12  2  0  0  0  0
  4 15  2  0  0  0  0
  7  5  1  6  0  0  0
  5 11  1  0  0  0  0
  5 12  1  0  0  0  0
  6 10  1  0  0  0  0
  6 15  1  0  0  0  0
  7  8  1  0  0  0  0
  7 10  1  0  0  0  0
  8  9  1  0  0  0  0
  9 15  1  0  0  0  0
 11 13  1  0  0  0  0
 12 14  1  0  0  0  0
 13 14  4  0  0  0  0
 13 17  4  0  0  0  0
 14 16  4  0  0  0  0
 16 18  4  0  0  0  0
 17 19  4  0  0  0  0
 18 19  4  0  0  0  0
M  END
> <From>
www.bindingDB.org

> <BindingDB Reactant_set_id>
455058

> <Ligand InChI>
InChI=1S/C13H10N2O4/c16-10-6-5-9(11(17)14-10)15-12(18)7-3-1-2-4-8(7)13(15)19/h1-4,9H,5-6H2,(H,14,16,17)/t9-/m1/s1

> <Ligand InChI Key>
UEJJHQNACJXSKW-SECBINFHSA-N

> <BindingDB MonomerID>
65362

> <BindingDB Ligand Name>
(+)-Thalidomide::(R)-(+)-thalidomide::(R)-Thalidomide::D-Thalidomide

> <Target Name>
Protein cereblon

> <Target Source Organism According to Curator or DataSource>
Human

> <Ki (nM)>


> <IC50 (nM)>
>300000

> <Kd (nM)>


> <EC50 (nM)>


> <kon (M-1-s-1)>


> <koff (s-1)>


> <pH>


> <Temp C>


> <Curation/DataSource>
Curated from the literature by BindingDB

> <Article DOI>
10.1038/leu.2012.119

> <BindingDB Entry DOI>
10.7270/Q26971RH

> <PMID>
22552008

> <PubChem AID>
aid1794853

> <Patent Number>


> <Authors>
Lopez-Girona, A; Mendy, D; Ito, T; Miller, K; Gandhi, AK; Kang, J; Karasawa, S; Carmel, G; Jackson, P; Abbasian, M; Mahmoudi, A; Cathers, B; Rychak, E; Gaidarova, S; Chen, R; Schafer, PH; Handa, H; Daniel, TO; Evans, JF; Chopra, R

> <Date of publication>
11/28/2012

> <Date in BindingDB>
1/3/2018

> <Institution>
Celgene

> <Link to Ligand in BindingDB>
http://www.bindingdb.org/bind/chemsearch/marvin/MolStructure.jsp?monomerid=65362

> <Link to Ligand-Target Pair in BindingDB>
http://www.bindingdb.org/jsp/dbsearch/PrimarySearch_ki.jsp?energyterm=kJ/mole&tag=pol&polymerid=50007050&target=Protein+cereblon&column=ki&startPg=0&Increment=50&submit=Search

> <Link to Ligand-Target Pair in BindingDB>
http://www.bindingdb.org/jsp/dbsearch/PrimarySearch_ki.jsp?energyterm=kJ/mole&tag=r21&monomerid=65362&enzyme=Protein+cereblon&column=ki&startPg=0&Increment=50&submit=Search

> <Ligand HET ID in PDB>
6EL

> <PDB ID(s) for Ligand-Target Complex>
5YJ1

> <PubChem CID of Ligand>
75792

> <PubChem SID of Ligand>
350083014

> <ChEBI ID of Ligand>


> <ChEMBL ID of Ligand>


> <DrugBank ID of Ligand>


> <IUPHAR_GRAC ID of Ligand>


> <KEGG ID of Ligand>
C07910

> <ZINC ID of Ligand>
ZINC17029266

> <Number of Protein Chains in Target (bigger than 1 implies a multichain complex)>
1

> <BindingDB Target Chain Sequence>
MAGEGDQQDAAHNMGNHLPLLPAESEEEDEMEVEDQDSKEAKKPNIINFDTSLPTSHTYLGADMEEFHGRTLHDDDSCQVIPVLPQVMMILIPGQTLPLQLFHPQEVSMVRNLIQKDRTFAVLAYSNVQEREAQFGTTAEIYAYREEQDFGIEIVKVKAIGRQRFKVLELRTQSDGIQQAKVQILPECVLPSTMSAVQLESLNKCQIFPSKPVSREDQCSYKWWQKYQKRKFHCANLTSWPRWLYSLYDAETLMDRIKKQLREWDENLKDDSLPSNPIDFSYRVAACLPIDDVLRIQLLKIGSAIQRLRCELDIMNKCTSLCCKQCQETEITTKNEIFSLSLCGPMAAYVNPHGYVHETLTVYKACNLNLIGRPSTEHSWFPGYAWTVAQCKICASHIGWKFTATKKDMSPQKFWGLTRSALLPTIPDTEDEISPDKVILCL

> <PDB ID(s) of Target Chain>
4TZ4,5HXB,5V3O,6UML,6XK9,7LPS,7U8F,8CVP,8D7U,8D7V,8D7W,8D7X,8D7Y,8D7Z,8D80,8D81,8DEY,8OIZ,8OJH

> <UniProt (SwissProt) Recommended Name of Target Chain>
Protein cereblon

> <UniProt (SwissProt) Entry Name of Target Chain>
CRBN_HUMAN

> <UniProt (SwissProt) Primary ID of Target Chain>
Q96SW2

> <UniProt (SwissProt) Secondary ID(s) of Target Chain>
B2R6H4 C9IZA9 C9JAH6 Q6AI62 Q6NVZ0 Q9UHW4

> <UniProt (SwissProt) Alternative ID(s) of Target Chain>


> <UniProt (TrEMBL) Submitted Name of Target Chain>


> <UniProt (TrEMBL) Entry Name of Target Chain>


> <UniProt (TrEMBL) Primary ID of Target Chain>


> <UniProt (TrEMBL) Secondary ID(s) of Target Chain>


> <UniProt (TrEMBL) Alternative ID(s) of Target Chain>


$$$$

  SciTegic05161214222D

  7  7  0  0  0  0            999 V2000
   19.5500  -24.7250    0.0000 C   0  0
   20.3750  -24.7250    0.0000 C   0  0
   20.6318  -23.9409    0.0000 N   0  0
   19.9625  -23.4542    0.0000 C   0  0
   19.2974  -23.9409    0.0000 N   0  0
   19.9612  -22.6292    0.0000 S   0  0
   19.0642  -25.3918    0.0000 O   0  0
  2  3  1  0
  3  4  1  0
  4  5  1  0
  5  1  1  0
  1  2  1  0
  4  6  2  0
  1  7  2  0
M  END
> <From>
www.bindingDB.org

> <BindingDB Reactant_set_id>
51359699

> <Ligand InChI>
InChI=1S/C3H4N2OS/c6-2-1-4-3(7)5-2/h1H2,(H2,4,5,6,7)

> <Ligand InChI Key>
UGWULZWUXSCWPX-UHFFFAOYSA-N

> <BindingDB MonomerID>
50207238

> <BindingDB Ligand Name>
Thiohydantoin

> <Target Name>
Protein cereblon

> <Target Source Organism According to Curator or DataSource>
Human

> <Ki (nM)>


> <IC50 (nM)>
 332000

> <Kd (nM)>


> <EC50 (nM)>


> <kon (M-1-s-1)>


> <koff (s-1)>


> <pH>


> <Temp C>


> <Curation/DataSource>
ChEMBL

> <Article DOI>
10.1021/acsmedchemlett.0c00440

> <BindingDB Entry DOI>
10.7270/Q2WM1J1B

> <PMID>
33488967

> <PubChem AID>


> <Patent Number>


> <Authors>
Maiwald, S; Heim, C; Hernandez Alvarez, B; Hartmann, MD

> <Date of publication>
1/14/2021

> <Date in BindingDB>
3/23/2022

> <Institution>
Max Planck Institute for Developmental Biology

> <Link to Ligand in BindingDB>
http://www.bindingdb.org/bind/chemsearch/marvin/MolStructure.jsp?monomerid=50207238

> <Link to Ligand-Target Pair in BindingDB>
http://www.bindingdb.org/jsp/dbsearch/PrimarySearch_ki.jsp?energyterm=kJ/mole&tag=pol&polymerid=50007050&target=Protein+cereblon&column=ki&startPg=0&Increment=50&submit=Search

> <Link to Ligand-Target Pair in BindingDB>
http://www.bindingdb.org/jsp/dbsearch/PrimarySearch_ki.jsp?energyterm=kJ/mole&tag=r21&monomerid=50207238&enzyme=Protein+cereblon&column=ki&startPg=0&Increment=50&submit=Search

> <Ligand HET ID in PDB>


> <PDB ID(s) for Ligand-Target Complex>


> <PubChem CID of Ligand>
1274030

> <PubChem SID of Ligand>
375981509

> <ChEBI ID of Ligand>


> <ChEMBL ID of Ligand>


> <DrugBank ID of Ligand>


> <IUPHAR_GRAC ID of Ligand>


> <KEGG ID of Ligand>


> <ZINC ID of Ligand>


> <Number of Protein Chains in Target (bigger than 1 implies a multichain complex)>
1

> <BindingDB Target Chain Sequence>
MAGEGDQQDAAHNMGNHLPLLPAESEEEDEMEVEDQDSKEAKKPNIINFDTSLPTSHTYLGADMEEFHGRTLHDDDSCQVIPVLPQVMMILIPGQTLPLQLFHPQEVSMVRNLIQKDRTFAVLAYSNVQEREAQFGTTAEIYAYREEQDFGIEIVKVKAIGRQRFKVLELRTQSDGIQQAKVQILPECVLPSTMSAVQLESLNKCQIFPSKPVSREDQCSYKWWQKYQKRKFHCANLTSWPRWLYSLYDAETLMDRIKKQLREWDENLKDDSLPSNPIDFSYRVAACLPIDDVLRIQLLKIGSAIQRLRCELDIMNKCTSLCCKQCQETEITTKNEIFSLSLCGPMAAYVNPHGYVHETLTVYKACNLNLIGRPSTEHSWFPGYAWTVAQCKICASHIGWKFTATKKDMSPQKFWGLTRSALLPTIPDTEDEISPDKVILCL

> <PDB ID(s) of Target Chain>
4TZ4,5HXB,5V3O,6UML,6XK9,7LPS,7U8F,8CVP,8D7U,8D7V,8D7W,8D7X,8D7Y,8D7Z,8D80,8D81,8DEY,8OIZ,8OJH

> <UniProt (SwissProt) Recommended Name of Target Chain>
Protein cereblon

> <UniProt (SwissProt) Entry Name of Target Chain>
CRBN_HUMAN

> <UniProt (SwissProt) Primary ID of Target Chain>
Q96SW2

> <UniProt (SwissProt) Secondary ID(s) of Target Chain>
B2R6H4 C9IZA9 C9JAH6 Q6AI62 Q6NVZ0 Q9UHW4

> <UniProt (SwissProt) Alternative ID(s) of Target Chain>


> <UniProt (TrEMBL) Submitted Name of Target Chain>


> <UniProt (TrEMBL) Entry Name of Target Chain>


> <UniProt (TrEMBL) Primary ID of Target Chain>


> <UniProt (TrEMBL) Secondary ID(s) of Target Chain>


> <UniProt (TrEMBL) Alternative ID(s) of Target Chain>


$$$$

     RDKit          2D

  8  8  0  0  0  0  0  0  0  0999 V2000
    0.1983   -0.9282    0.0000 N   0  0  0  0  0  0  0  0  0  0  0  0
   -0.5162   -0.5157    0.0000 C   0  0  0  0  0  0  0  0  0  0  0  0
   -1.2306   -0.9282    0.0000 O   0  0  0  0  0  0  0  0  0  0  0  0
   -0.5162    0.3093    0.0000 N   0  0  0  0  0  0  0  0  0  0  0  0
    0.1983    0.7218    0.0000 C   0  0  0  0  0  0  0  0  0  0  0  0
    0.1983    1.5468    0.0000 O   0  0  0  0  0  0  0  0  0  0  0  0
    0.9128    0.3093    0.0000 C   0  0  0  0  0  0  0  0  0  0  0  0
    0.9128   -0.5157    0.0000 C   0  0  0  0  0  0  0  0  0  0  0  0
  2  1  1  0
  8  1  1  0
  2  3  2  0
  2  4  1  0
  5  4  1  0
  5  6  2  0
  5  7  1  0
  7  8  2  0
M  END
> <From>
www.bindingDB.org

> <BindingDB Reactant_set_id>
51359717

> <Ligand InChI>
InChI=1S/C4H4N2O2/c7-3-1-2-5-4(8)6-3/h1-2H,(H2,5,6,7,8)

> <Ligand InChI Key>
ISAKRJDGNUQOIC-UHFFFAOYSA-N

> <BindingDB MonomerID>
50549809

> <BindingDB Ligand Name>
BMS-205603-01::CHEBI:17568::Fluorouracil specified compound c::Hybar x::Lamivudine impurity e::Lamivudine impurity e rs::NSC-3970::Pyrod::SQ-6201::SQ-7726::SQ-8493::Uracil

> <Target Name>
Protein cereblon

> <Target Source Organism According to Curator or DataSource>
Human

> <Ki (nM)>


> <IC50 (nM)>
 415000

> <Kd (nM)>


> <EC50 (nM)>


> <kon (M-1-s-1)>


> <koff (s-1)>


> <pH>


> <Temp C>


> <Curation/DataSource>
ChEMBL

> <Article DOI>
10.1021/acsmedchemlett.0c00440

> <BindingDB Entry DOI>
10.7270/Q2WM1J1B

> <PMID>
33488967

> <PubChem AID>


> <Patent Number>


> <Authors>
Maiwald, S; Heim, C; Hernandez Alvarez, B; Hartmann, MD

> <Date of publication>
1/14/2021

> <Date in BindingDB>
3/23/2022

> <Institution>
Max Planck Institute for Developmental Biology

> <Link to Ligand in BindingDB>
http://www.bindingdb.org/bind/chemsearch/marvin/MolStructure.jsp?monomerid=50549809

> <Link to Ligand-Target Pair in BindingDB>
http://www.bindingdb.org/jsp/dbsearch/PrimarySearch_ki.jsp?energyterm=kJ/mole&tag=pol&polymerid=50007050&target=Protein+cereblon&column=ki&startPg=0&Increment=50&submit=Search

> <Link to Ligand-Target Pair in BindingDB>
http://www.bindingdb.org/jsp/dbsearch/PrimarySearch_ki.jsp?energyterm=kJ/mole&tag=r21&monomerid=50549809&enzyme=Protein+cereblon&column=ki&startPg=0&Increment=50&submit=Search

> <Ligand HET ID in PDB>
URA

> <PDB ID(s) for Ligand-Target Complex>
5LHV,4HK7,3SLF,4YGM,1TGY,3KVY,1BD4,1BRW,4YIG,1UDH,4WRU,4WRV,1UCD,3LOC,6Z1B,6SGL,4YJK,6TEG,5WAN,1KSL,1KSK,1Y1S,4JYK,1SSP,5XLS,4OEH,4KPV,1Q3F,1JLS,5Y48,2XRF,5EUG,5ILX,1EMJ,2EUG,7Q2W,4WPL,3QPB,5MIW,3BJE,3QE7,6IOB,6IOC,6IOA,2RJ3,7M32,1WS3,1OE5,1GTH,1UI0,4ZBY,4LZB,3PNS,6AJO,6AJR,3CXM,6K5H,1FLZ,4TXL,6UGJ,5GNW,4SKN

> <PubChem CID of Ligand>
1174

> <PubChem SID of Ligand>
461680149

> <ChEBI ID of Ligand>


> <ChEMBL ID of Ligand>


> <DrugBank ID of Ligand>


> <IUPHAR_GRAC ID of Ligand>


> <KEGG ID of Ligand>
C00106

> <ZINC ID of Ligand>


> <Number of Protein Chains in Target (bigger than 1 implies a multichain complex)>
1

> <BindingDB Target Chain Sequence>
MAGEGDQQDAAHNMGNHLPLLPAESEEEDEMEVEDQDSKEAKKPNIINFDTSLPTSHTYLGADMEEFHGRTLHDDDSCQVIPVLPQVMMILIPGQTLPLQLFHPQEVSMVRNLIQKDRTFAVLAYSNVQEREAQFGTTAEIYAYREEQDFGIEIVKVKAIGRQRFKVLELRTQSDGIQQAKVQILPECVLPSTMSAVQLESLNKCQIFPSKPVSREDQCSYKWWQKYQKRKFHCANLTSWPRWLYSLYDAETLMDRIKKQLREWDENLKDDSLPSNPIDFSYRVAACLPIDDVLRIQLLKIGSAIQRLRCELDIMNKCTSLCCKQCQETEITTKNEIFSLSLCGPMAAYVNPHGYVHETLTVYKACNLNLIGRPSTEHSWFPGYAWTVAQCKICASHIGWKFTATKKDMSPQKFWGLTRSALLPTIPDTEDEISPDKVILCL

> <PDB ID(s) of Target Chain>
4TZ4,5HXB,5V3O,6UML,6XK9,7LPS,7U8F,8CVP,8D7U,8D7V,8D7W,8D7X,8D7Y,8D7Z,8D80,8D81,8DEY,8OIZ,8OJH

> <UniProt (SwissProt) Recommended Name of Target Chain>
Protein cereblon

> <UniProt (SwissProt) Entry Name of Target Chain>
CRBN_HUMAN

> <UniProt (SwissProt) Primary ID of Target Chain>
Q96SW2

> <UniProt (SwissProt) Secondary ID(s) of Target Chain>
B2R6H4 C9IZA9 C9JAH6 Q6AI62 Q6NVZ0 Q9UHW4

> <UniProt (SwissProt) Alternative ID(s) of Target Chain>


> <UniProt (TrEMBL) Submitted Name of Target Chain>


> <UniProt (TrEMBL) Entry Name of Target Chain>


> <UniProt (TrEMBL) Primary ID of Target Chain>


> <UniProt (TrEMBL) Secondary ID(s) of Target Chain>


> <UniProt (TrEMBL) Alternative ID(s) of Target Chain>


$$$$

     RDKit          2D

  7  7  0  0  0  0  0  0  0  0999 V2000
    0.7654   -1.2734    0.0000 O   0  0  0  0  0  0  0  0  0  0  0  0
    0.2805   -0.6060    0.0000 C   0  0  0  0  0  0  0  0  0  0  0  0
   -0.5445   -0.6060    0.0000 C   0  0  0  0  0  0  0  0  0  0  0  0
   -0.7995    0.1787    0.0000 N   0  0  0  0  0  0  0  0  0  0  0  0
    0.5354    0.1787    0.0000 N   0  0  0  0  0  0  0  0  0  0  0  0
   -0.1320    0.6636    0.0000 C   0  0  0  0  0  0  0  0  0  0  0  0
   -0.1320    1.4886    0.0000 O   0  0  0  0  0  0  0  0  0  0  0  0
  2  1  2  0
  2  3  1  0
  2  5  1  0
  3  4  1  0
  6  4  1  0
  6  5  1  0
  6  7  2  0
M  END
> <From>
www.bindingDB.org

> <BindingDB Reactant_set_id>
51359694

> <Ligand InChI>
InChI=1S/C3H4N2O2/c6-2-1-4-3(7)5-2/h1H2,(H2,4,5,6,7)

> <Ligand InChI Key>
WJRBRSLFGCUECM-UHFFFAOYSA-N

> <BindingDB MonomerID>
50549804

> <BindingDB Ligand Name>
CHEBI:27612::Hydantoin::Imidazolidine-2,4-Dione

> <Target Name>
Protein cereblon

> <Target Source Organism According to Curator or DataSource>
Human

> <Ki (nM)>


> <IC50 (nM)>
 421000

> <Kd (nM)>


> <EC50 (nM)>


> <kon (M-1-s-1)>


> <koff (s-1)>


> <pH>


> <Temp C>


> <Curation/DataSource>
ChEMBL

> <Article DOI>
10.1021/acsmedchemlett.0c00440

> <BindingDB Entry DOI>
10.7270/Q2WM1J1B

> <PMID>
33488967

> <PubChem AID>


> <Patent Number>


> <Authors>
Maiwald, S; Heim, C; Hernandez Alvarez, B; Hartmann, MD

> <Date of publication>
1/14/2021

> <Date in BindingDB>
3/23/2022

> <Institution>
Max Planck Institute for Developmental Biology

> <Link to Ligand in BindingDB>
http://www.bindingdb.org/bind/chemsearch/marvin/MolStructure.jsp?monomerid=50549804

> <Link to Ligand-Target Pair in BindingDB>
http://www.bindingdb.org/jsp/dbsearch/PrimarySearch_ki.jsp?energyterm=kJ/mole&tag=pol&polymerid=50007050&target=Protein+cereblon&column=ki&startPg=0&Increment=50&submit=Search

> <Link to Ligand-Target Pair in BindingDB>
http://www.bindingdb.org/jsp/dbsearch/PrimarySearch_ki.jsp?energyterm=kJ/mole&tag=r21&monomerid=50549804&enzyme=Protein+cereblon&column=ki&startPg=0&Increment=50&submit=Search

> <Ligand HET ID in PDB>
HYN

> <PDB ID(s) for Ligand-Target Complex>
4LCS,5OH7,6TX9,3CL7,5S46

> <PubChem CID of Ligand>
10006

> <PubChem SID of Ligand>
461680144

> <ChEBI ID of Ligand>


> <ChEMBL ID of Ligand>


> <DrugBank ID of Ligand>


> <IUPHAR_GRAC ID of Ligand>


> <KEGG ID of Ligand>
C05146

> <ZINC ID of Ligand>


> <Number of Protein Chains in Target (bigger than 1 implies a multichain complex)>
1

> <BindingDB Target Chain Sequence>
MAGEGDQQDAAHNMGNHLPLLPAESEEEDEMEVEDQDSKEAKKPNIINFDTSLPTSHTYLGADMEEFHGRTLHDDDSCQVIPVLPQVMMILIPGQTLPLQLFHPQEVSMVRNLIQKDRTFAVLAYSNVQEREAQFGTTAEIYAYREEQDFGIEIVKVKAIGRQRFKVLELRTQSDGIQQAKVQILPECVLPSTMSAVQLESLNKCQIFPSKPVSREDQCSYKWWQKYQKRKFHCANLTSWPRWLYSLYDAETLMDRIKKQLREWDENLKDDSLPSNPIDFSYRVAACLPIDDVLRIQLLKIGSAIQRLRCELDIMNKCTSLCCKQCQETEITTKNEIFSLSLCGPMAAYVNPHGYVHETLTVYKACNLNLIGRPSTEHSWFPGYAWTVAQCKICASHIGWKFTATKKDMSPQKFWGLTRSALLPTIPDTEDEISPDKVILCL

> <PDB ID(s) of Target Chain>
4TZ4,5HXB,5V3O,6UML,6XK9,7LPS,7U8F,8CVP,8D7U,8D7V,8D7W,8D7X,8D7Y,8D7Z,8D80,8D81,8DEY,8OIZ,8OJH

> <UniProt (SwissProt) Recommended Name of Target Chain>
Protein cereblon

> <UniProt (SwissProt) Entry Name of Target Chain>
CRBN_HUMAN

> <UniProt (SwissProt) Primary ID of Target Chain>
Q96SW2

> <UniProt (SwissProt) Secondary ID(s) of Target Chain>
B2R6H4 C9IZA9 C9JAH6 Q6AI62 Q6NVZ0 Q9UHW4

> <UniProt (SwissProt) Alternative ID(s) of Target Chain>


> <UniProt (TrEMBL) Submitted Name of Target Chain>


> <UniProt (TrEMBL) Entry Name of Target Chain>


> <UniProt (TrEMBL) Primary ID of Target Chain>


> <UniProt (TrEMBL) Secondary ID(s) of Target Chain>


> <UniProt (TrEMBL) Alternative ID(s) of Target Chain>


$$$$
 
     RDKit          2D

  8  8  0  0  0  0  0  0  0  0999 V2000
    3.5291  -12.3416    0.0000 C   0  0  0  0  0  0  0  0  0  0  0  0
    4.3541  -12.3416    0.0000 N   0  0  0  0  0  0  0  0  0  0  0  0
    4.6109  -11.5575    0.0000 C   0  0  0  0  0  0  0  0  0  0  0  0
    3.9416  -11.0707    0.0000 C   0  0  0  0  0  0  0  0  0  0  0  0
    3.2766  -11.5575    0.0000 N   0  0  0  0  0  0  0  0  0  0  0  0
    3.0433  -13.0084    0.0000 O   0  0  0  0  0  0  0  0  0  0  0  0
    5.3958  -11.3036    0.0000 O   0  0  0  0  0  0  0  0  0  0  0  0
    2.4919  -11.3029    0.0000 N   0  0  0  0  0  0  0  0  0  0  0  0
  1  2  1  0
  2  3  1  0
  3  4  1  0
  4  5  1  0
  5  1  1  0
  1  6  2  0
  3  7  2  0
  5  8  1  0
M  END
> <From>
www.bindingDB.org

> <BindingDB Reactant_set_id>
51359701

> <Ligand InChI>
InChI=1S/C3H5N3O2/c4-6-1-2(7)5-3(6)8/h1,4H2,(H,5,7,8)

> <Ligand InChI Key>
KVYKDNGUEZRPGJ-UHFFFAOYSA-N

> <BindingDB MonomerID>
50549807

> <BindingDB Ligand Name>
CHEMBL4756680

> <Target Name>
Protein cereblon

> <Target Source Organism According to Curator or DataSource>
Human

> <Ki (nM)>


> <IC50 (nM)>
 447000

> <Kd (nM)>


> <EC50 (nM)>


> <kon (M-1-s-1)>


> <koff (s-1)>


> <pH>


> <Temp C>


> <Curation/DataSource>
ChEMBL

> <Article DOI>
10.1021/acsmedchemlett.0c00440

> <BindingDB Entry DOI>
10.7270/Q2WM1J1B

> <PMID>
33488967

> <PubChem AID>


> <Patent Number>


> <Authors>
Maiwald, S; Heim, C; Hernandez Alvarez, B; Hartmann, MD

> <Date of publication>
1/14/2021

> <Date in BindingDB>
3/23/2022

> <Institution>
Max Planck Institute for Developmental Biology

> <Link to Ligand in BindingDB>
http://www.bindingdb.org/bind/chemsearch/marvin/MolStructure.jsp?monomerid=50549807

> <Link to Ligand-Target Pair in BindingDB>
http://www.bindingdb.org/jsp/dbsearch/PrimarySearch_ki.jsp?energyterm=kJ/mole&tag=pol&polymerid=50007050&target=Protein+cereblon&column=ki&startPg=0&Increment=50&submit=Search

> <Link to Ligand-Target Pair in BindingDB>
http://www.bindingdb.org/jsp/dbsearch/PrimarySearch_ki.jsp?energyterm=kJ/mole&tag=r21&monomerid=50549807&enzyme=Protein+cereblon&column=ki&startPg=0&Increment=50&submit=Search

> <Ligand HET ID in PDB>


> <PDB ID(s) for Ligand-Target Complex>


> <PubChem CID of Ligand>
72823

> <PubChem SID of Ligand>
461680147

> <ChEBI ID of Ligand>


> <ChEMBL ID of Ligand>


> <DrugBank ID of Ligand>


> <IUPHAR_GRAC ID of Ligand>


> <KEGG ID of Ligand>


> <ZINC ID of Ligand>


> <Number of Protein Chains in Target (bigger than 1 implies a multichain complex)>
1

> <BindingDB Target Chain Sequence>
MAGEGDQQDAAHNMGNHLPLLPAESEEEDEMEVEDQDSKEAKKPNIINFDTSLPTSHTYLGADMEEFHGRTLHDDDSCQVIPVLPQVMMILIPGQTLPLQLFHPQEVSMVRNLIQKDRTFAVLAYSNVQEREAQFGTTAEIYAYREEQDFGIEIVKVKAIGRQRFKVLELRTQSDGIQQAKVQILPECVLPSTMSAVQLESLNKCQIFPSKPVSREDQCSYKWWQKYQKRKFHCANLTSWPRWLYSLYDAETLMDRIKKQLREWDENLKDDSLPSNPIDFSYRVAACLPIDDVLRIQLLKIGSAIQRLRCELDIMNKCTSLCCKQCQETEITTKNEIFSLSLCGPMAAYVNPHGYVHETLTVYKACNLNLIGRPSTEHSWFPGYAWTVAQCKICASHIGWKFTATKKDMSPQKFWGLTRSALLPTIPDTEDEISPDKVILCL

> <PDB ID(s) of Target Chain>
4TZ4,5HXB,5V3O,6UML,6XK9,7LPS,7U8F,8CVP,8D7U,8D7V,8D7W,8D7X,8D7Y,8D7Z,8D80,8D81,8DEY,8OIZ,8OJH

> <UniProt (SwissProt) Recommended Name of Target Chain>
Protein cereblon

> <UniProt (SwissProt) Entry Name of Target Chain>
CRBN_HUMAN

> <UniProt (SwissProt) Primary ID of Target Chain>
Q96SW2

> <UniProt (SwissProt) Secondary ID(s) of Target Chain>
B2R6H4 C9IZA9 C9JAH6 Q6AI62 Q6NVZ0 Q9UHW4

> <UniProt (SwissProt) Alternative ID(s) of Target Chain>


> <UniProt (TrEMBL) Submitted Name of Target Chain>


> <UniProt (TrEMBL) Entry Name of Target Chain>


> <UniProt (TrEMBL) Primary ID of Target Chain>


> <UniProt (TrEMBL) Secondary ID(s) of Target Chain>


> <UniProt (TrEMBL) Alternative ID(s) of Target Chain>


$$$$

  Mrv0541 04051115152D          

 17 18  0  0  0  0            999 V2000
   -0.1397    0.6175    0.0000 N   0  0  0  0  0  0  0  0  0  0  0  0
    0.5748    1.0300    0.0000 C   0  0  0  0  0  0  0  0  0  0  0  0
    0.5748    1.8550    0.0000 N   0  0  0  0  0  0  0  0  0  0  0  0
   -0.1397    2.2675    0.0000 C   0  0  0  0  0  0  0  0  0  0  0  0
   -0.8542    1.8550    0.0000 C   0  0  0  0  0  0  0  0  0  0  0  0
   -0.8542    1.0300    0.0000 C   0  0  0  0  0  0  0  0  0  0  0  0
    1.2892    0.6175    0.0000 O   0  0  0  0  0  0  0  0  0  0  0  0
   -0.1397    3.0925    0.0000 O   0  0  0  0  0  0  0  0  0  0  0  0
   -0.1397   -0.2075    0.0000 C   0  0  1  0  0  0  0  0  0  0  0  0
    0.5277   -0.6925    0.0000 C   0  0  1  0  0  0  0  0  0  0  0  0
    0.2728   -1.4771    0.0000 C   0  0  1  0  0  0  0  0  0  0  0  0
   -0.5522   -1.4771    0.0000 C   0  0  2  0  0  0  0  0  0  0  0  0
    1.3124   -0.4375    0.0000 O   0  0  0  0  0  0  0  0  0  0  0  0
    0.7577   -2.1445    0.0000 O   0  0  0  0  0  0  0  0  0  0  0  0
   -0.8071   -0.6925    0.0000 O   0  0  0  0  0  0  0  0  0  0  0  0
   -1.0371   -2.1445    0.0000 C   0  0  0  0  0  0  0  0  0  0  0  0
   -0.7016   -2.8982    0.0000 O   0  0  0  0  0  0  0  0  0  0  0  0
  2  1  1  0  0  0  0
  6  1  1  0  0  0  0
  9  1  1  1  0  0  0
  2  3  1  0  0  0  0
  2  7  2  0  0  0  0
  4  3  1  0  0  0  0
  4  5  1  0  0  0  0
  4  8  2  0  0  0  0
  5  6  2  0  0  0  0
  9 10  1  0  0  0  0
  9 15  1  0  0  0  0
 10 11  1  0  0  0  0
 10 13  1  6  0  0  0
 11 12  1  0  0  0  0
 11 14  1  6  0  0  0
 12 15  1  0  0  0  0
 12 16  1  1  0  0  0
 16 17  1  0  0  0  0
M  END
> <From>
www.bindingDB.org

> <BindingDB Reactant_set_id>
51359687

> <Ligand InChI>
InChI=1S/C9H12N2O6/c12-3-4-6(14)7(15)8(17-4)11-2-1-5(13)10-9(11)16/h1-2,4,6-8,12,14-15H,3H2,(H,10,13,16)/t4-,6-,7-,8-/m1/s1

> <Ligand InChI Key>
DRTQHJPVMGBUCF-XVFCMESISA-N

> <BindingDB MonomerID>
50088517

> <BindingDB Ligand Name>
CHEBI:16704::Uridine

> <Target Name>
Protein cereblon

> <Target Source Organism According to Curator or DataSource>
Human

> <Ki (nM)>


> <IC50 (nM)>
 757000

> <Kd (nM)>


> <EC50 (nM)>


> <kon (M-1-s-1)>


> <koff (s-1)>


> <pH>


> <Temp C>


> <Curation/DataSource>
ChEMBL

> <Article DOI>
10.1021/acsmedchemlett.0c00440

> <BindingDB Entry DOI>
10.7270/Q2WM1J1B

> <PMID>
33488967

> <PubChem AID>


> <Patent Number>


> <Authors>
Maiwald, S; Heim, C; Hernandez Alvarez, B; Hartmann, MD

> <Date of publication>
1/14/2021

> <Date in BindingDB>
3/23/2022

> <Institution>
Max Planck Institute for Developmental Biology

> <Link to Ligand in BindingDB>
http://www.bindingdb.org/bind/chemsearch/marvin/MolStructure.jsp?monomerid=50088517

> <Link to Ligand-Target Pair in BindingDB>
http://www.bindingdb.org/jsp/dbsearch/PrimarySearch_ki.jsp?energyterm=kJ/mole&tag=pol&polymerid=50007050&target=Protein+cereblon&column=ki&startPg=0&Increment=50&submit=Search

> <Link to Ligand-Target Pair in BindingDB>
http://www.bindingdb.org/jsp/dbsearch/PrimarySearch_ki.jsp?energyterm=kJ/mole&tag=r21&monomerid=50088517&enzyme=Protein+cereblon&column=ki&startPg=0&Increment=50&submit=Search

> <Ligand HET ID in PDB>
URI

> <PDB ID(s) for Ligand-Target Complex>
5LHV,6YAB,2HWU,7QTA,2FR6,7VTE,6KNL,4PD6,2V0L,1TLZ,1LNX,6TFL,4JX9,1LOJ,7QSH,5C80,7M7K,4R0A,4R08,4R09,4R07,4YYY,5L26,3IVD,5OO9,5OO8,5OO4,5OOA,3TIJ,4R2W,1I5L,4EG2,5ILW,5M2T

> <PubChem CID of Ligand>
6029

> <PubChem SID of Ligand>
103987432

> <ChEBI ID of Ligand>


> <ChEMBL ID of Ligand>


> <DrugBank ID of Ligand>


> <IUPHAR_GRAC ID of Ligand>


> <KEGG ID of Ligand>
C00299

> <ZINC ID of Ligand>
ZINC26375944

> <Number of Protein Chains in Target (bigger than 1 implies a multichain complex)>
1

> <BindingDB Target Chain Sequence>
MAGEGDQQDAAHNMGNHLPLLPAESEEEDEMEVEDQDSKEAKKPNIINFDTSLPTSHTYLGADMEEFHGRTLHDDDSCQVIPVLPQVMMILIPGQTLPLQLFHPQEVSMVRNLIQKDRTFAVLAYSNVQEREAQFGTTAEIYAYREEQDFGIEIVKVKAIGRQRFKVLELRTQSDGIQQAKVQILPECVLPSTMSAVQLESLNKCQIFPSKPVSREDQCSYKWWQKYQKRKFHCANLTSWPRWLYSLYDAETLMDRIKKQLREWDENLKDDSLPSNPIDFSYRVAACLPIDDVLRIQLLKIGSAIQRLRCELDIMNKCTSLCCKQCQETEITTKNEIFSLSLCGPMAAYVNPHGYVHETLTVYKACNLNLIGRPSTEHSWFPGYAWTVAQCKICASHIGWKFTATKKDMSPQKFWGLTRSALLPTIPDTEDEISPDKVILCL

> <PDB ID(s) of Target Chain>
4TZ4,5HXB,5V3O,6UML,6XK9,7LPS,7U8F,8CVP,8D7U,8D7V,8D7W,8D7X,8D7Y,8D7Z,8D80,8D81,8DEY,8OIZ,8OJH

> <UniProt (SwissProt) Recommended Name of Target Chain>
Protein cereblon

> <UniProt (SwissProt) Entry Name of Target Chain>
CRBN_HUMAN

> <UniProt (SwissProt) Primary ID of Target Chain>
Q96SW2

> <UniProt (SwissProt) Secondary ID(s) of Target Chain>
B2R6H4 C9IZA9 C9JAH6 Q6AI62 Q6NVZ0 Q9UHW4

> <UniProt (SwissProt) Alternative ID(s) of Target Chain>


> <UniProt (TrEMBL) Submitted Name of Target Chain>


> <UniProt (TrEMBL) Entry Name of Target Chain>


> <UniProt (TrEMBL) Primary ID of Target Chain>


> <UniProt (TrEMBL) Secondary ID(s) of Target Chain>


> <UniProt (TrEMBL) Alternative ID(s) of Target Chain>


$$$$

  Mrv0541 11221423032D          

  5  4  0  0  0  0            999 V2000
    0.2119   -1.2022    0.0000 S   0  0  0  0  0  0  0  0  0  0  0  0
    0.2119   -2.0265    0.0000 O   0  0  0  0  0  0  0  0  0  0  0  0
    0.2061   -0.3778    0.0000 O   0  0  0  0  0  0  0  0  0  0  0  0
   -0.6125   -1.1564    0.0000 C   0  0  0  0  0  0  0  0  0  0  0  0
    1.1049   -1.1564    0.0000 C   0  0  0  0  0  0  0  0  0  0  0  0
  2  1  2  0  0  0  0
  3  1  2  0  0  0  0
  4  1  1  0  0  0  0
  5  1  1  0  0  0  0
M  END
> <From>
www.bindingDB.org

> <BindingDB Reactant_set_id>
50467254

> <Ligand InChI>
InChI=1S/C2H6O2S/c1-5(2,3)4/h1-2H3

> <Ligand InChI Key>
HHVIBTZHLRERCL-UHFFFAOYSA-N

> <BindingDB MonomerID>
50026473

> <BindingDB Ligand Name>
CHEMBL25028::Sulfonylbismethane::dimethyl sulfone::dimethyl sulphone::methylsulfonylmethane::sulfonyldimethane::sulphonylbismethane

> <Target Name>
Protein cereblon

> <Target Source Organism According to Curator or DataSource>
Human

> <Ki (nM)>


> <IC50 (nM)>
 181000000

> <Kd (nM)>


> <EC50 (nM)>


> <kon (M-1-s-1)>


> <koff (s-1)>


> <pH>


> <Temp C>


> <Curation/DataSource>
ChEMBL

> <Article DOI>
10.1021/acs.jmedchem.5b01735

> <BindingDB Entry DOI>
10.7270/Q2PR7XVF

> <PMID>
26730808

> <PubChem AID>


> <Patent Number>


> <Authors>
Boichenko, I; Deiss, S; Bär, K; Hartmann, MD; Hernandez Alvarez, B

> <Date of publication>
1/28/2016

> <Date in BindingDB>
6/17/2017

> <Institution>
Max Planck Institute for Developmental Biology

> <Link to Ligand in BindingDB>
http://www.bindingdb.org/bind/chemsearch/marvin/MolStructure.jsp?monomerid=50026473

> <Link to Ligand-Target Pair in BindingDB>
http://www.bindingdb.org/jsp/dbsearch/PrimarySearch_ki.jsp?energyterm=kJ/mole&tag=pol&polymerid=50007050&target=Protein+cereblon&column=ki&startPg=0&Increment=50&submit=Search

> <Link to Ligand-Target Pair in BindingDB>
http://www.bindingdb.org/jsp/dbsearch/PrimarySearch_ki.jsp?energyterm=kJ/mole&tag=r21&monomerid=50026473&enzyme=Protein+cereblon&column=ki&startPg=0&Increment=50&submit=Search

> <Ligand HET ID in PDB>


> <PDB ID(s) for Ligand-Target Complex>


> <PubChem CID of Ligand>
6213

> <PubChem SID of Ligand>
103936113

> <ChEBI ID of Ligand>
29825

> <ChEMBL ID of Ligand>
CHEMBL25028

> <DrugBank ID of Ligand>


> <IUPHAR_GRAC ID of Ligand>


> <KEGG ID of Ligand>
C11142

> <ZINC ID of Ligand>
ZINC04658606

> <Number of Protein Chains in Target (bigger than 1 implies a multichain complex)>
1

> <BindingDB Target Chain Sequence>
MAGEGDQQDAAHNMGNHLPLLPAESEEEDEMEVEDQDSKEAKKPNIINFDTSLPTSHTYLGADMEEFHGRTLHDDDSCQVIPVLPQVMMILIPGQTLPLQLFHPQEVSMVRNLIQKDRTFAVLAYSNVQEREAQFGTTAEIYAYREEQDFGIEIVKVKAIGRQRFKVLELRTQSDGIQQAKVQILPECVLPSTMSAVQLESLNKCQIFPSKPVSREDQCSYKWWQKYQKRKFHCANLTSWPRWLYSLYDAETLMDRIKKQLREWDENLKDDSLPSNPIDFSYRVAACLPIDDVLRIQLLKIGSAIQRLRCELDIMNKCTSLCCKQCQETEITTKNEIFSLSLCGPMAAYVNPHGYVHETLTVYKACNLNLIGRPSTEHSWFPGYAWTVAQCKICASHIGWKFTATKKDMSPQKFWGLTRSALLPTIPDTEDEISPDKVILCL

> <PDB ID(s) of Target Chain>
4TZ4,5HXB,5V3O,6UML,6XK9,7LPS,7U8F,8CVP,8D7U,8D7V,8D7W,8D7X,8D7Y,8D7Z,8D80,8D81,8DEY,8OIZ,8OJH

> <UniProt (SwissProt) Recommended Name of Target Chain>
Protein cereblon

> <UniProt (SwissProt) Entry Name of Target Chain>
CRBN_HUMAN

> <UniProt (SwissProt) Primary ID of Target Chain>
Q96SW2

> <UniProt (SwissProt) Secondary ID(s) of Target Chain>
B2R6H4 C9IZA9 C9JAH6 Q6AI62 Q6NVZ0 Q9UHW4

> <UniProt (SwissProt) Alternative ID(s) of Target Chain>


> <UniProt (TrEMBL) Submitted Name of Target Chain>


> <UniProt (TrEMBL) Entry Name of Target Chain>


> <UniProt (TrEMBL) Primary ID of Target Chain>


> <UniProt (TrEMBL) Secondary ID(s) of Target Chain>


> <UniProt (TrEMBL) Alternative ID(s) of Target Chain>


$$$$

     RDKit          2D

 36 38  0  0  0  0  0  0  0  0999 V2000
    7.7449   -9.7462    0.0000 C   0  0  0  0  0  0  0  0  0  0  0  0
    7.7572   -8.9211    0.0000 C   0  0  0  0  0  0  0  0  0  0  0  0
    7.0466   -8.5002    0.0000 C   0  0  0  0  0  0  0  0  0  0  0  0
    8.4550  -10.1712    0.0000 O   0  0  0  0  0  0  0  0  0  0  0  0
    7.0261  -10.1509    0.0000 O   0  0  0  0  0  0  0  0  0  0  0  0
    9.1882   -8.9389    0.0000 P   0  0  0  0  0  0  0  0  0  0  0  0
    8.9111   -9.7177    0.0000 O   0  0  0  0  0  0  0  0  0  0  0  0
    9.4581   -8.1589    0.0000 O   0  0  0  0  0  0  0  0  0  0  0  0
    9.0532   -7.4400    0.0000 C   0  0  0  0  0  0  0  0  0  0  0  0
    9.9670   -9.2160    0.0000 O   0  0  0  0  0  0  0  0  0  0  0  0
   10.5930   -8.6782    0.0000 C   0  0  0  0  0  0  0  0  0  0  0  0
   12.0326   -8.5131    0.0000 O   0  0  0  0  0  0  0  0  0  0  0  0
   11.3581   -8.9933    0.0000 C   0  0  0  0  0  0  0  0  0  0  0  0
   11.6043   -9.7778    0.0000 C   0  0  0  0  0  0  0  0  0  0  0  0
   12.4317   -9.7880    0.0000 C   0  0  0  0  0  0  0  0  0  0  0  0
   12.6920   -9.0071    0.0000 C   0  0  0  0  0  0  0  0  0  0  0  0
   14.1265   -8.9964    0.0000 C   0  0  0  0  0  0  0  0  0  0  0  0
   14.8303   -7.7538    0.0000 C   0  0  0  0  0  0  0  0  0  0  0  0
   14.1148   -7.3453    0.0000 C   0  0  0  0  0  0  0  0  0  0  0  0
   13.4030   -7.7634    0.0000 C   0  0  0  0  0  0  0  0  0  0  0  0
   13.4109   -8.5879    0.0000 N   0  0  0  0  0  0  0  0  0  0  0  0
   15.5421   -7.3357    0.0000 O   0  0  0  0  0  0  0  0  0  0  0  0
   14.1303   -9.8252    0.0000 O   0  0  0  0  0  0  0  0  0  0  0  0
   12.4220  -10.6098    0.0000 F   0  0  0  0  0  0  0  0  0  0  0  0
   13.2526   -9.7463    0.0000 C   0  0  0  0  0  0  0  0  0  0  0  0
    6.3161   -9.7307    0.0000 C   0  0  0  0  0  0  0  0  0  0  0  0
    9.4744   -6.7335    0.0000 C   0  0  0  0  0  0  0  0  0  0  0  0
    9.0703   -6.0150    0.0000 C   0  0  0  0  0  0  0  0  0  0  0  0
    8.2444   -6.0057    0.0000 C   0  0  0  0  0  0  0  0  0  0  0  0
    7.8243   -6.7208    0.0000 C   0  0  0  0  0  0  0  0  0  0  0  0
    8.2309   -7.4363    0.0000 C   0  0  0  0  0  0  0  0  0  0  0  0
    6.3250   -8.9058    0.0000 C   0  0  0  0  0  0  0  0  0  0  0  0
    5.5972  -10.1355    0.0000 C   0  0  0  0  0  0  0  0  0  0  0  0
    8.4778   -8.5194    0.0000 N   0  0  0  0  0  0  0  0  0  0  0  0
   11.1096  -10.4445    0.0000 O   0  0  0  0  0  0  0  0  0  0  0  0
   14.8379   -8.5788    0.0000 N   0  0  0  0  0  0  0  0  0  0  0  0
 14 15  1  0
 15 16  1  0
 12 16  1  0
 13 11  1  1
 18 19  1  0
 19 20  2  0
 20 21  1  0
 17 21  1  0
 18 22  2  0
 17 23  2  0
 16 21  1  1
  6 10  1  0
 15 24  1  6
 15 25  1  0
  5 26  1  0
  1  2  1  0
  9 27  2  0
  2  3  1  1
 27 28  1  0
  1  4  2  0
 28 29  2  0
  1  5  1  0
 29 30  1  0
  6  7  2  0
 30 31  2  0
 31  9  1  0
  8  9  1  0
 26 32  1  0
  6  8  1  0
 26 33  1  0
 10 11  1  0
 12 13  1  0
 13 14  1  0
 14 35  1  6
 34  6  1  0
  2 34  1  0
 17 36  1  0
 36 18  1  0
M  END
> <From>
www.bindingDB.org

> <BindingDB Reactant_set_id>
51359689

> <Ligand InChI>


> <Ligand InChI Key>


> <BindingDB MonomerID>
50549802

> <BindingDB Ligand Name>
CHEMBL1258836

> <Target Name>
Protein cereblon

> <Target Source Organism According to Curator or DataSource>
Human

> <Ki (nM)>


> <IC50 (nM)>
>1000000

> <Kd (nM)>


> <EC50 (nM)>


> <kon (M-1-s-1)>


> <koff (s-1)>


> <pH>


> <Temp C>


> <Curation/DataSource>
ChEMBL

> <Article DOI>
10.1021/acsmedchemlett.0c00440

> <BindingDB Entry DOI>
10.7270/Q2WM1J1B

> <PMID>
33488967

> <PubChem AID>


> <Patent Number>


> <Authors>
Maiwald, S; Heim, C; Hernandez Alvarez, B; Hartmann, MD

> <Date of publication>
1/14/2021

> <Date in BindingDB>
3/23/2022

> <Institution>
Max Planck Institute for Developmental Biology

> <Link to Ligand in BindingDB>
http://www.bindingdb.org/bind/chemsearch/marvin/MolStructure.jsp?monomerid=50549802

> <Link to Ligand-Target Pair in BindingDB>
http://www.bindingdb.org/jsp/dbsearch/PrimarySearch_ki.jsp?energyterm=kJ/mole&tag=pol&polymerid=50007050&target=Protein+cereblon&column=ki&startPg=0&Increment=50&submit=Search

> <Link to Ligand-Target Pair in BindingDB>
http://www.bindingdb.org/jsp/dbsearch/PrimarySearch_ki.jsp?energyterm=kJ/mole&tag=r21&monomerid=50549802&enzyme=Protein+cereblon&column=ki&startPg=0&Increment=50&submit=Search

> <Ligand HET ID in PDB>


> <PDB ID(s) for Ligand-Target Complex>


> <PubChem CID of Ligand>
49781487

> <PubChem SID of Ligand>
461680142

> <ChEBI ID of Ligand>


> <ChEMBL ID of Ligand>


> <DrugBank ID of Ligand>


> <IUPHAR_GRAC ID of Ligand>


> <KEGG ID of Ligand>


> <ZINC ID of Ligand>


> <Number of Protein Chains in Target (bigger than 1 implies a multichain complex)>
1

> <BindingDB Target Chain Sequence>
MAGEGDQQDAAHNMGNHLPLLPAESEEEDEMEVEDQDSKEAKKPNIINFDTSLPTSHTYLGADMEEFHGRTLHDDDSCQVIPVLPQVMMILIPGQTLPLQLFHPQEVSMVRNLIQKDRTFAVLAYSNVQEREAQFGTTAEIYAYREEQDFGIEIVKVKAIGRQRFKVLELRTQSDGIQQAKVQILPECVLPSTMSAVQLESLNKCQIFPSKPVSREDQCSYKWWQKYQKRKFHCANLTSWPRWLYSLYDAETLMDRIKKQLREWDENLKDDSLPSNPIDFSYRVAACLPIDDVLRIQLLKIGSAIQRLRCELDIMNKCTSLCCKQCQETEITTKNEIFSLSLCGPMAAYVNPHGYVHETLTVYKACNLNLIGRPSTEHSWFPGYAWTVAQCKICASHIGWKFTATKKDMSPQKFWGLTRSALLPTIPDTEDEISPDKVILCL

> <PDB ID(s) of Target Chain>
4TZ4,5HXB,5V3O,6UML,6XK9,7LPS,7U8F,8CVP,8D7U,8D7V,8D7W,8D7X,8D7Y,8D7Z,8D80,8D81,8DEY,8OIZ,8OJH

> <UniProt (SwissProt) Recommended Name of Target Chain>
Protein cereblon

> <UniProt (SwissProt) Entry Name of Target Chain>
CRBN_HUMAN

> <UniProt (SwissProt) Primary ID of Target Chain>
Q96SW2

> <UniProt (SwissProt) Secondary ID(s) of Target Chain>
B2R6H4 C9IZA9 C9JAH6 Q6AI62 Q6NVZ0 Q9UHW4

> <UniProt (SwissProt) Alternative ID(s) of Target Chain>


> <UniProt (TrEMBL) Submitted Name of Target Chain>


> <UniProt (TrEMBL) Entry Name of Target Chain>


> <UniProt (TrEMBL) Primary ID of Target Chain>


> <UniProt (TrEMBL) Secondary ID(s) of Target Chain>


> <UniProt (TrEMBL) Alternative ID(s) of Target Chain>


$$$$

  Mrv0541 11241413172D          

 21 22  0  0  0  0            999 V2000
    0.5915    1.1463    0.0000 N   0  0  0  0  0  0  0  0  0  0  0  0
    1.3059    1.5588    0.0000 C   0  0  0  0  0  0  0  0  0  0  0  0
    1.3059    2.3838    0.0000 N   0  0  0  0  0  0  0  0  0  0  0  0
    0.5915    2.7963    0.0000 C   0  0  0  0  0  0  0  0  0  0  0  0
   -0.1230    2.3838    0.0000 C   0  0  0  0  0  0  0  0  0  0  0  0
   -0.1230    1.5588    0.0000 C   0  0  0  0  0  0  0  0  0  0  0  0
    2.0204    1.1463    0.0000 O   0  0  0  0  0  0  0  0  0  0  0  0
    0.5915    3.6213    0.0000 O   0  0  0  0  0  0  0  0  0  0  0  0
    0.5915    0.3213    0.0000 C   0  0  1  0  0  0  0  0  0  0  0  0
    1.2589   -0.1636    0.0000 C   0  0  2  0  0  0  0  0  0  0  0  0
    2.0435    0.0914    0.0000 O   0  0  0  0  0  0  0  0  0  0  0  0
    1.0040   -0.9482    0.0000 C   0  0  1  0  0  0  0  0  0  0  0  0
    0.1790   -0.9482    0.0000 C   0  0  2  0  0  0  0  0  0  0  0  0
    1.4889   -1.6156    0.0000 O   0  0  0  0  0  0  0  0  0  0  0  0
   -0.0760   -0.1636    0.0000 O   0  0  0  0  0  0  0  0  0  0  0  0
   -0.3059   -1.6156    0.0000 C   0  0  0  0  0  0  0  0  0  0  0  0
   -1.1264   -1.5294    0.0000 O   0  0  0  0  0  0  0  0  0  0  0  0
   -1.6114   -2.1968    0.0000 P   0  0  0  0  0  0  0  0  0  0  0  0
   -2.0963   -2.8643    0.0000 O   0  0  0  0  0  0  0  0  0  0  0  0
   -2.2788   -1.7119    0.0000 O   0  0  0  0  0  0  0  0  0  0  0  0
   -0.9439   -2.6818    0.0000 O   0  0  0  0  0  0  0  0  0  0  0  0
  2  1  1  0  0  0  0
  6  1  1  0  0  0  0
  9  1  1  1  0  0  0
  2  3  1  0  0  0  0
  2  7  2  0  0  0  0
  4  3  1  0  0  0  0
  4  5  1  0  0  0  0
  4  8  2  0  0  0  0
  5  6  2  0  0  0  0
 10  9  1  0  0  0  0
  9 15  1  0  0  0  0
 10 11  1  6  0  0  0
 10 12  1  0  0  0  0
 12 13  1  0  0  0  0
 12 14  1  6  0  0  0
 13 15  1  0  0  0  0
 13 16  1  1  0  0  0
 16 17  1  0  0  0  0
 17 18  1  0  0  0  0
 19 18  2  0  0  0  0
 20 18  1  0  0  0  0
 21 18  1  0  0  0  0
M  END
> <From>
www.bindingDB.org

> <BindingDB Reactant_set_id>
51359693

> <Ligand InChI>
InChI=1S/C9H13N2O9P/c12-5-1-2-11(9(15)10-5)8-7(14)6(13)4(20-8)3-19-21(16,17)18/h1-2,4,6-8,13-14H,3H2,(H,10,12,15)(H2,16,17,18)/t4-,6-,7-,8-/m1/s1

> <Ligand InChI Key>
DJJCXFVJDGTHFX-XVFCMESISA-N

> <BindingDB MonomerID>
50398699

> <BindingDB Ligand Name>
CHEMBL214393

> <Target Name>
Protein cereblon

> <Target Source Organism According to Curator or DataSource>
Human

> <Ki (nM)>


> <IC50 (nM)>
>5000000

> <Kd (nM)>


> <EC50 (nM)>


> <kon (M-1-s-1)>


> <koff (s-1)>


> <pH>


> <Temp C>


> <Curation/DataSource>
ChEMBL

> <Article DOI>
10.1021/acsmedchemlett.0c00440

> <BindingDB Entry DOI>
10.7270/Q2WM1J1B

> <PMID>
33488967

> <PubChem AID>


> <Patent Number>


> <Authors>
Maiwald, S; Heim, C; Hernandez Alvarez, B; Hartmann, MD

> <Date of publication>
1/14/2021

> <Date in BindingDB>
3/23/2022

> <Institution>
Max Planck Institute for Developmental Biology

> <Link to Ligand in BindingDB>
http://www.bindingdb.org/bind/chemsearch/marvin/MolStructure.jsp?monomerid=50398699

> <Link to Ligand-Target Pair in BindingDB>
http://www.bindingdb.org/jsp/dbsearch/PrimarySearch_ki.jsp?energyterm=kJ/mole&tag=pol&polymerid=50007050&target=Protein+cereblon&column=ki&startPg=0&Increment=50&submit=Search

> <Link to Ligand-Target Pair in BindingDB>
http://www.bindingdb.org/jsp/dbsearch/PrimarySearch_ki.jsp?energyterm=kJ/mole&tag=r21&monomerid=50398699&enzyme=Protein+cereblon&column=ki&startPg=0&Increment=50&submit=Search

> <Ligand HET ID in PDB>
U  

> <PDB ID(s) for Ligand-Target Complex>
1A34,1AF2,1BO7,1BO8,1KLZ,1KM4,1KSV,1LOJ,1LOQ,1M8V,1T36,1Y1Q,2HBM,2YLC,3ERC,3G1D,3G1X,3G22,3I0F,4DW5,4DW7,4MML,5LMO

> <PubChem CID of Ligand>
6030

> <PubChem SID of Ligand>
163347723

> <ChEBI ID of Ligand>
16695

> <ChEMBL ID of Ligand>
CHEMBL214393

> <DrugBank ID of Ligand>


> <IUPHAR_GRAC ID of Ligand>


> <KEGG ID of Ligand>
C00105

> <ZINC ID of Ligand>
ZINC02123545

> <Number of Protein Chains in Target (bigger than 1 implies a multichain complex)>
1

> <BindingDB Target Chain Sequence>
MAGEGDQQDAAHNMGNHLPLLPAESEEEDEMEVEDQDSKEAKKPNIINFDTSLPTSHTYLGADMEEFHGRTLHDDDSCQVIPVLPQVMMILIPGQTLPLQLFHPQEVSMVRNLIQKDRTFAVLAYSNVQEREAQFGTTAEIYAYREEQDFGIEIVKVKAIGRQRFKVLELRTQSDGIQQAKVQILPECVLPSTMSAVQLESLNKCQIFPSKPVSREDQCSYKWWQKYQKRKFHCANLTSWPRWLYSLYDAETLMDRIKKQLREWDENLKDDSLPSNPIDFSYRVAACLPIDDVLRIQLLKIGSAIQRLRCELDIMNKCTSLCCKQCQETEITTKNEIFSLSLCGPMAAYVNPHGYVHETLTVYKACNLNLIGRPSTEHSWFPGYAWTVAQCKICASHIGWKFTATKKDMSPQKFWGLTRSALLPTIPDTEDEISPDKVILCL

> <PDB ID(s) of Target Chain>
4TZ4,5HXB,5V3O,6UML,6XK9,7LPS,7U8F,8CVP,8D7U,8D7V,8D7W,8D7X,8D7Y,8D7Z,8D80,8D81,8DEY,8OIZ,8OJH

> <UniProt (SwissProt) Recommended Name of Target Chain>
Protein cereblon

> <UniProt (SwissProt) Entry Name of Target Chain>
CRBN_HUMAN

> <UniProt (SwissProt) Primary ID of Target Chain>
Q96SW2

> <UniProt (SwissProt) Secondary ID(s) of Target Chain>
B2R6H4 C9IZA9 C9JAH6 Q6AI62 Q6NVZ0 Q9UHW4

> <UniProt (SwissProt) Alternative ID(s) of Target Chain>


> <UniProt (TrEMBL) Submitted Name of Target Chain>


> <UniProt (TrEMBL) Entry Name of Target Chain>


> <UniProt (TrEMBL) Primary ID of Target Chain>


> <UniProt (TrEMBL) Secondary ID(s) of Target Chain>


> <UniProt (TrEMBL) Alternative ID(s) of Target Chain>


$$$$

     RDKit          2D

  6  6  0  0  0  0  0  0  0  0999 V2000
    0.7542   -0.3292    0.0000 N   0  0  0  0  0  0  0  0  0  0  0  0
    0.0875   -0.8125    0.0000 C   0  0  0  0  0  0  0  0  0  0  0  0
   -0.3125    0.4625    0.0000 N   0  0  0  0  0  0  0  0  0  0  0  0
    0.5125    0.4583    0.0000 C   0  0  0  0  0  0  0  0  0  0  0  0
    0.0792   -1.6292    0.0000 O   0  0  0  0  0  0  0  0  0  0  0  0
   -0.5750   -0.3167    0.0000 C   0  0  0  0  0  0  0  0  0  0  0  0
  2  1  1  0
  3  4  1  0
  4  1  1  0
  5  2  2  0
  6  2  1  0
  6  3  1  0
M  END
> <From>
www.bindingDB.org

> <BindingDB Reactant_set_id>
51359696

> <Ligand InChI>
InChI=1S/C3H6N2O/c6-3-1-4-2-5-3/h4H,1-2H2,(H,5,6)

> <Ligand InChI Key>
GVONPBONFIJAHJ-UHFFFAOYSA-N

> <BindingDB MonomerID>
50549805

> <BindingDB Ligand Name>
CHEMBL30446::Imidazolidin-4-One

> <Target Name>
Protein cereblon

> <Target Source Organism According to Curator or DataSource>
Human

> <Ki (nM)>


> <IC50 (nM)>
>5000000

> <Kd (nM)>


> <EC50 (nM)>


> <kon (M-1-s-1)>


> <koff (s-1)>


> <pH>


> <Temp C>


> <Curation/DataSource>
ChEMBL

> <Article DOI>
10.1021/acsmedchemlett.0c00440

> <BindingDB Entry DOI>
10.7270/Q2WM1J1B

> <PMID>
33488967

> <PubChem AID>


> <Patent Number>


> <Authors>
Maiwald, S; Heim, C; Hernandez Alvarez, B; Hartmann, MD

> <Date of publication>
1/14/2021

> <Date in BindingDB>
3/23/2022

> <Institution>
Max Planck Institute for Developmental Biology

> <Link to Ligand in BindingDB>
http://www.bindingdb.org/bind/chemsearch/marvin/MolStructure.jsp?monomerid=50549805

> <Link to Ligand-Target Pair in BindingDB>
http://www.bindingdb.org/jsp/dbsearch/PrimarySearch_ki.jsp?energyterm=kJ/mole&tag=pol&polymerid=50007050&target=Protein+cereblon&column=ki&startPg=0&Increment=50&submit=Search

> <Link to Ligand-Target Pair in BindingDB>
http://www.bindingdb.org/jsp/dbsearch/PrimarySearch_ki.jsp?energyterm=kJ/mole&tag=r21&monomerid=50549805&enzyme=Protein+cereblon&column=ki&startPg=0&Increment=50&submit=Search

> <Ligand HET ID in PDB>


> <PDB ID(s) for Ligand-Target Complex>


> <PubChem CID of Ligand>
1502063

> <PubChem SID of Ligand>
461680145

> <ChEBI ID of Ligand>


> <ChEMBL ID of Ligand>


> <DrugBank ID of Ligand>


> <IUPHAR_GRAC ID of Ligand>


> <KEGG ID of Ligand>


> <ZINC ID of Ligand>


> <Number of Protein Chains in Target (bigger than 1 implies a multichain complex)>
1

> <BindingDB Target Chain Sequence>
MAGEGDQQDAAHNMGNHLPLLPAESEEEDEMEVEDQDSKEAKKPNIINFDTSLPTSHTYLGADMEEFHGRTLHDDDSCQVIPVLPQVMMILIPGQTLPLQLFHPQEVSMVRNLIQKDRTFAVLAYSNVQEREAQFGTTAEIYAYREEQDFGIEIVKVKAIGRQRFKVLELRTQSDGIQQAKVQILPECVLPSTMSAVQLESLNKCQIFPSKPVSREDQCSYKWWQKYQKRKFHCANLTSWPRWLYSLYDAETLMDRIKKQLREWDENLKDDSLPSNPIDFSYRVAACLPIDDVLRIQLLKIGSAIQRLRCELDIMNKCTSLCCKQCQETEITTKNEIFSLSLCGPMAAYVNPHGYVHETLTVYKACNLNLIGRPSTEHSWFPGYAWTVAQCKICASHIGWKFTATKKDMSPQKFWGLTRSALLPTIPDTEDEISPDKVILCL

> <PDB ID(s) of Target Chain>
4TZ4,5HXB,5V3O,6UML,6XK9,7LPS,7U8F,8CVP,8D7U,8D7V,8D7W,8D7X,8D7Y,8D7Z,8D80,8D81,8DEY,8OIZ,8OJH

> <UniProt (SwissProt) Recommended Name of Target Chain>
Protein cereblon

> <UniProt (SwissProt) Entry Name of Target Chain>
CRBN_HUMAN

> <UniProt (SwissProt) Primary ID of Target Chain>
Q96SW2

> <UniProt (SwissProt) Secondary ID(s) of Target Chain>
B2R6H4 C9IZA9 C9JAH6 Q6AI62 Q6NVZ0 Q9UHW4

> <UniProt (SwissProt) Alternative ID(s) of Target Chain>


> <UniProt (TrEMBL) Submitted Name of Target Chain>


> <UniProt (TrEMBL) Entry Name of Target Chain>


> <UniProt (TrEMBL) Primary ID of Target Chain>


> <UniProt (TrEMBL) Secondary ID(s) of Target Chain>


> <UniProt (TrEMBL) Alternative ID(s) of Target Chain>


$$$$

     RDKit          2D

 19 20  0  0  0  0  0  0  0  0999 V2000
    5.8987   -1.5039    0.0000 C   0  0  0  0  0  0  0  0  0  0  0  0
    6.7237   -1.5039    0.0000 N   0  0  0  0  0  0  0  0  0  0  0  0
    6.9786   -2.2885    0.0000 C   0  0  0  0  0  0  0  0  0  0  0  0
    6.3111   -2.7735    0.0000 C   0  0  0  0  0  0  0  0  0  0  0  0
    5.6437   -2.2885    0.0000 N   0  0  0  0  0  0  0  0  0  0  0  0
    5.4138   -0.8365    0.0000 O   0  0  0  0  0  0  0  0  0  0  0  0
    7.7632   -2.5435    0.0000 O   0  0  0  0  0  0  0  0  0  0  0  0
    4.8591   -2.5434    0.0000 N   0  0  0  0  0  0  0  0  0  0  0  0
    4.2460   -1.9914    0.0000 C   0  0  0  0  0  0  0  0  0  0  0  0
    3.4614   -2.2463    0.0000 C   0  0  0  0  0  0  0  0  0  0  0  0
    2.8483   -1.6942    0.0000 C   0  0  0  0  0  0  0  0  0  0  0  0
    1.3963   -1.4642    0.0000 O   0  0  0  0  0  0  0  0  0  0  0  0
    2.0637   -1.9491    0.0000 C   0  0  0  0  0  0  0  0  0  0  0  0
    1.8087   -2.7338    0.0000 C   0  0  0  0  0  0  0  0  0  0  0  0
    0.9837   -2.7338    0.0000 C   0  0  0  0  0  0  0  0  0  0  0  0
    0.7288   -1.9491    0.0000 C   0  0  0  0  0  0  0  0  0  0  0  0
   -0.0558   -1.6942    0.0000 N   0  0  0  0  0  0  0  0  0  0  0  0
   -0.6689   -2.2462    0.0000 O   0  0  0  0  0  0  0  0  0  0  0  0
   -0.2273   -0.8872    0.0000 O   0  0  0  0  0  0  0  0  0  0  0  0
  1  2  1  0
  2  3  1  0
  3  4  1  0
  4  5  1  0
  1  5  1  0
  1  6  2  0
  3  7  2  0
  9 10  1  0
 10 11  2  0
 12 13  1  0
 13 14  2  0
 14 15  1  0
 15 16  2  0
 12 16  1  0
 17 18  2  0
 17 19  1  0
 16 17  1  0
 11 13  1  0
  8  9  2  0
  5  8  1  0
M  CHG  2  17   1  19  -1
M  END
> <From>
www.bindingDB.org

> <BindingDB Reactant_set_id>
51359703

> <Ligand InChI>
InChI=1S/C10H8N4O5/c15-8-6-13(10(16)12-8)11-5-1-2-7-3-4-9(19-7)14(17)18/h1-5H,6H2,(H,12,15,16)/b2-1+,11-5+

> <Ligand InChI Key>
DECBQELQORZLLP-UAIOPKHMSA-N

> <BindingDB MonomerID>
50549808

> <BindingDB Ligand Name>
Akritoin::Furagin::Furaginum::Furazidin::Furazidine

> <Target Name>
Protein cereblon

> <Target Source Organism According to Curator or DataSource>
Human

> <Ki (nM)>


> <IC50 (nM)>
>1000000

> <Kd (nM)>


> <EC50 (nM)>


> <kon (M-1-s-1)>


> <koff (s-1)>


> <pH>


> <Temp C>


> <Curation/DataSource>
ChEMBL

> <Article DOI>
10.1021/acsmedchemlett.0c00440

> <BindingDB Entry DOI>
10.7270/Q2WM1J1B

> <PMID>
33488967

> <PubChem AID>


> <Patent Number>


> <Authors>
Maiwald, S; Heim, C; Hernandez Alvarez, B; Hartmann, MD

> <Date of publication>
1/14/2021

> <Date in BindingDB>
3/23/2022

> <Institution>
Max Planck Institute for Developmental Biology

> <Link to Ligand in BindingDB>
http://www.bindingdb.org/bind/chemsearch/marvin/MolStructure.jsp?monomerid=50549808

> <Link to Ligand-Target Pair in BindingDB>
http://www.bindingdb.org/jsp/dbsearch/PrimarySearch_ki.jsp?energyterm=kJ/mole&tag=pol&polymerid=50007050&target=Protein+cereblon&column=ki&startPg=0&Increment=50&submit=Search

> <Link to Ligand-Target Pair in BindingDB>
http://www.bindingdb.org/jsp/dbsearch/PrimarySearch_ki.jsp?energyterm=kJ/mole&tag=r21&monomerid=50549808&enzyme=Protein+cereblon&column=ki&startPg=0&Increment=50&submit=Search

> <Ligand HET ID in PDB>


> <PDB ID(s) for Ligand-Target Complex>


> <PubChem CID of Ligand>
6870646

> <PubChem SID of Ligand>
461680148

> <ChEBI ID of Ligand>


> <ChEMBL ID of Ligand>


> <DrugBank ID of Ligand>


> <IUPHAR_GRAC ID of Ligand>


> <KEGG ID of Ligand>


> <ZINC ID of Ligand>


> <Number of Protein Chains in Target (bigger than 1 implies a multichain complex)>
1

> <BindingDB Target Chain Sequence>
MAGEGDQQDAAHNMGNHLPLLPAESEEEDEMEVEDQDSKEAKKPNIINFDTSLPTSHTYLGADMEEFHGRTLHDDDSCQVIPVLPQVMMILIPGQTLPLQLFHPQEVSMVRNLIQKDRTFAVLAYSNVQEREAQFGTTAEIYAYREEQDFGIEIVKVKAIGRQRFKVLELRTQSDGIQQAKVQILPECVLPSTMSAVQLESLNKCQIFPSKPVSREDQCSYKWWQKYQKRKFHCANLTSWPRWLYSLYDAETLMDRIKKQLREWDENLKDDSLPSNPIDFSYRVAACLPIDDVLRIQLLKIGSAIQRLRCELDIMNKCTSLCCKQCQETEITTKNEIFSLSLCGPMAAYVNPHGYVHETLTVYKACNLNLIGRPSTEHSWFPGYAWTVAQCKICASHIGWKFTATKKDMSPQKFWGLTRSALLPTIPDTEDEISPDKVILCL

> <PDB ID(s) of Target Chain>
4TZ4,5HXB,5V3O,6UML,6XK9,7LPS,7U8F,8CVP,8D7U,8D7V,8D7W,8D7X,8D7Y,8D7Z,8D80,8D81,8DEY,8OIZ,8OJH

> <UniProt (SwissProt) Recommended Name of Target Chain>
Protein cereblon

> <UniProt (SwissProt) Entry Name of Target Chain>
CRBN_HUMAN

> <UniProt (SwissProt) Primary ID of Target Chain>
Q96SW2

> <UniProt (SwissProt) Secondary ID(s) of Target Chain>
B2R6H4 C9IZA9 C9JAH6 Q6AI62 Q6NVZ0 Q9UHW4

> <UniProt (SwissProt) Alternative ID(s) of Target Chain>


> <UniProt (TrEMBL) Submitted Name of Target Chain>


> <UniProt (TrEMBL) Entry Name of Target Chain>


> <UniProt (TrEMBL) Primary ID of Target Chain>


> <UniProt (TrEMBL) Secondary ID(s) of Target Chain>


> <UniProt (TrEMBL) Alternative ID(s) of Target Chain>


$$$$
 
     RDKit          2D

 45 50  0  0  0  0  0  0  0  0999 V2000
   32.8044   -4.1330    0.0000 C   0  0  0  0  0  0  0  0  0  0  0  0
   32.8032   -4.9603    0.0000 C   0  0  0  0  0  0  0  0  0  0  0  0
   33.5180   -5.3732    0.0000 C   0  0  0  0  0  0  0  0  0  0  0  0
   33.5162   -3.7202    0.0000 C   0  0  0  0  0  0  0  0  0  0  0  0
   34.2315   -4.1294    0.0000 C   0  0  0  0  0  0  0  0  0  0  0  0
   34.2364   -4.9557    0.0000 C   0  0  0  0  0  0  0  0  0  0  0  0
   35.0238   -5.2065    0.0000 C   0  0  0  0  0  0  0  0  0  0  0  0
   35.5057   -4.5351    0.0000 N   0  0  0  0  0  0  0  0  0  0  0  0
   35.0160   -3.8694    0.0000 C   0  0  0  0  0  0  0  0  0  0  0  0
   33.5190   -6.1981    0.0000 N   0  0  0  0  0  0  0  0  0  0  0  0
   35.2662   -3.0835    0.0000 O   0  0  0  0  0  0  0  0  0  0  0  0
   36.3298   -4.5289    0.0000 C   0  0  0  0  0  0  0  0  0  0  0  0
   36.7452   -5.2427    0.0000 C   0  0  0  0  0  0  0  0  0  0  0  0
   37.5665   -5.2399    0.0000 C   0  0  0  0  0  0  0  0  0  0  0  0
   37.9787   -4.5248    0.0000 C   0  0  0  0  0  0  0  0  0  0  0  0
   37.5632   -3.8110    0.0000 N   0  0  0  0  0  0  0  0  0  0  0  0
   36.7356   -3.8123    0.0000 C   0  0  0  0  0  0  0  0  0  0  0  0
   36.3197   -3.0998    0.0000 O   0  0  0  0  0  0  0  0  0  0  0  0
   38.8037   -4.5231    0.0000 O   0  0  0  0  0  0  0  0  0  0  0  0
   32.8052   -6.6115    0.0000 C   0  0  0  0  0  0  0  0  0  0  0  0
   32.8062   -7.4364    0.0000 O   0  0  0  0  0  0  0  0  0  0  0  0
   32.0902   -6.1999    0.0000 C   0  0  0  0  0  0  0  0  0  0  0  0
   31.3763   -6.6133    0.0000 N   0  0  0  0  0  0  0  0  0  0  0  0
   30.6614   -6.2017    0.0000 C   0  0  0  0  0  0  0  0  0  0  0  0
   30.6643   -5.3780    0.0000 C   0  0  0  0  0  0  0  0  0  0  0  0
   29.9502   -4.9665    0.0000 C   0  0  0  0  0  0  0  0  0  0  0  0
   29.2354   -5.3799    0.0000 N   0  0  0  0  0  0  0  0  0  0  0  0
   29.2392   -6.2091    0.0000 C   0  0  0  0  0  0  0  0  0  0  0  0
   29.9538   -6.6168    0.0000 N   0  0  0  0  0  0  0  0  0  0  0  0
   28.5267   -6.6250    0.0000 N   0  0  0  0  0  0  0  0  0  0  0  0
   27.8131   -6.2105    0.0000 C   0  0  0  0  0  0  0  0  0  0  0  0
   27.1028   -6.6229    0.0000 C   0  0  0  0  0  0  0  0  0  0  0  0
   27.1025   -7.4481    0.0000 N   0  0  0  0  0  0  0  0  0  0  0  0
   27.8187   -7.8594    0.0000 C   0  0  0  0  0  0  0  0  0  0  0  0
   28.5352   -7.4453    0.0000 C   0  0  0  0  0  0  0  0  0  0  0  0
   26.3918   -7.8629    0.0000 C   0  0  0  0  0  0  0  0  0  0  0  0
   25.6767   -7.4495    0.0000 C   0  0  0  0  0  0  0  0  0  0  0  0
   24.9632   -7.8620    0.0000 C   0  0  0  0  0  0  0  0  0  0  0  0
   24.9636   -8.6879    0.0000 C   0  0  0  0  0  0  0  0  0  0  0  0
   25.6835   -9.0994    0.0000 C   0  0  0  0  0  0  0  0  0  0  0  0
   26.3940   -8.6845    0.0000 C   0  0  0  0  0  0  0  0  0  0  0  0
   25.6872   -9.9243    0.0000 C   0  0  0  0  0  0  0  0  0  0  0  0
   24.9747  -10.3401    0.0000 F   0  0  0  0  0  0  0  0  0  0  0  0
   26.4035  -10.3335    0.0000 F   0  0  0  0  0  0  0  0  0  0  0  0
   25.6813  -10.7491    0.0000 F   0  0  0  0  0  0  0  0  0  0  0  0
  1  2  2  0
  2  3  1  0
  3  6  2  0
  5  4  2  0
  4  1  1  0
  5  6  1  0
  6  7  1  0
  7  8  1  0
  8  9  1  0
  9  5  1  0
  3 10  1  0
  9 11  2  0
 12 13  1  0
 12 17  1  0
 13 14  1  0
 14 15  1  0
 15 16  1  0
 16 17  1  0
  8 12  1  0
 17 18  2  0
 15 19  2  0
 10 20  1  0
 20 21  2  0
 20 22  1  0
 22 23  1  0
 23 24  1  0
 24 25  2  0
 25 26  1  0
 26 27  2  0
 27 28  1  0
 28 29  2  0
 29 24  1  0
 28 30  1  0
 30 31  1  0
 30 35  1  0
 31 32  1  0
 32 33  1  0
 33 34  1  0
 34 35  1  0
 36 37  2  0
 37 38  1  0
 38 39  2  0
 39 40  1  0
 40 41  2  0
 41 36  1  0
 33 36  1  0
 40 42  1  0
 42 43  1  0
 42 44  1  0
 42 45  1  0
M  END
> <From>
www.bindingDB.org

> <BindingDB Reactant_set_id>
51338528

> <Ligand InChI>
InChI=1S/C30H29F3N8O4/c31-30(32,33)18-3-1-4-19(15-18)39-11-13-40(14-12-39)29-34-10-9-24(37-29)35-16-26(43)36-22-6-2-5-20-21(22)17-41(28(20)45)23-7-8-25(42)38-27(23)44/h1-6,9-10,15,23H,7-8,11-14,16-17H2,(H,36,43)(H,34,35,37)(H,38,42,44)

> <Ligand InChI Key>
DUXOGWVIPNJZCP-UHFFFAOYSA-N

> <BindingDB MonomerID>
50541818

> <BindingDB Ligand Name>
CHEMBL4648907::US11530219, Compound 16

> <Target Name>
Protein cereblon

> <Target Source Organism According to Curator or DataSource>
Human

> <Ki (nM)>
 130

> <IC50 (nM)>


> <Kd (nM)>


> <EC50 (nM)>


> <kon (M-1-s-1)>


> <koff (s-1)>


> <pH>


> <Temp C>


> <Curation/DataSource>
ChEMBL

> <Article DOI>
10.1021/acsmedchemlett.0c00214

> <BindingDB Entry DOI>
10.7270/Q2VH5SCW

> <PMID>
32550984

> <PubChem AID>


> <Patent Number>


> <Authors>
Kargbo, RB

> <Date of publication>
6/11/2020

> <Date in BindingDB>
8/13/2021

> <Institution>
Usona Institute

> <Link to Ligand in BindingDB>
http://www.bindingdb.org/bind/chemsearch/marvin/MolStructure.jsp?monomerid=50541818

> <Link to Ligand-Target Pair in BindingDB>
http://www.bindingdb.org/jsp/dbsearch/PrimarySearch_ki.jsp?energyterm=kJ/mole&tag=pol&polymerid=50007050&target=Protein+cereblon&column=ki&startPg=0&Increment=50&submit=Search

> <Link to Ligand-Target Pair in BindingDB>
http://www.bindingdb.org/jsp/dbsearch/PrimarySearch_ki.jsp?energyterm=kJ/mole&tag=r21&monomerid=50541818&enzyme=Protein+cereblon&column=ki&startPg=0&Increment=50&submit=Search

> <Ligand HET ID in PDB>


> <PDB ID(s) for Ligand-Target Complex>


> <PubChem CID of Ligand>
153385177

> <PubChem SID of Ligand>
442143381

> <ChEBI ID of Ligand>


> <ChEMBL ID of Ligand>


> <DrugBank ID of Ligand>


> <IUPHAR_GRAC ID of Ligand>


> <KEGG ID of Ligand>


> <ZINC ID of Ligand>


> <Number of Protein Chains in Target (bigger than 1 implies a multichain complex)>
1

> <BindingDB Target Chain Sequence>
MAGEGDQQDAAHNMGNHLPLLPAESEEEDEMEVEDQDSKEAKKPNIINFDTSLPTSHTYLGADMEEFHGRTLHDDDSCQVIPVLPQVMMILIPGQTLPLQLFHPQEVSMVRNLIQKDRTFAVLAYSNVQEREAQFGTTAEIYAYREEQDFGIEIVKVKAIGRQRFKVLELRTQSDGIQQAKVQILPECVLPSTMSAVQLESLNKCQIFPSKPVSREDQCSYKWWQKYQKRKFHCANLTSWPRWLYSLYDAETLMDRIKKQLREWDENLKDDSLPSNPIDFSYRVAACLPIDDVLRIQLLKIGSAIQRLRCELDIMNKCTSLCCKQCQETEITTKNEIFSLSLCGPMAAYVNPHGYVHETLTVYKACNLNLIGRPSTEHSWFPGYAWTVAQCKICASHIGWKFTATKKDMSPQKFWGLTRSALLPTIPDTEDEISPDKVILCL

> <PDB ID(s) of Target Chain>
4TZ4,5HXB,5V3O,6UML,6XK9,7LPS,7U8F,8CVP,8D7U,8D7V,8D7W,8D7X,8D7Y,8D7Z,8D80,8D81,8DEY,8OIZ,8OJH

> <UniProt (SwissProt) Recommended Name of Target Chain>
Protein cereblon

> <UniProt (SwissProt) Entry Name of Target Chain>
CRBN_HUMAN

> <UniProt (SwissProt) Primary ID of Target Chain>
Q96SW2

> <UniProt (SwissProt) Secondary ID(s) of Target Chain>
B2R6H4 C9IZA9 C9JAH6 Q6AI62 Q6NVZ0 Q9UHW4

> <UniProt (SwissProt) Alternative ID(s) of Target Chain>


> <UniProt (TrEMBL) Submitted Name of Target Chain>


> <UniProt (TrEMBL) Entry Name of Target Chain>


> <UniProt (TrEMBL) Primary ID of Target Chain>


> <UniProt (TrEMBL) Secondary ID(s) of Target Chain>


> <UniProt (TrEMBL) Alternative ID(s) of Target Chain>


$$$$
 
     RDKit          2D

 74 81  0  0  0  0  0  0  0  0999 V2000
   -3.4597   -1.7965    0.0000 C   0  0  0  0  0  0  0  0  0  0  0  0
   -2.7309   -1.4098    0.0000 C   0  0  0  0  0  0  0  0  0  0  0  0
   -2.7663   -2.2435    0.0000 C   0  0  0  0  0  0  0  0  0  0  0  0
   -4.1863   -2.1946    0.0000 C   0  0  0  0  0  0  0  0  0  0  0  0
   -3.4412   -0.9719    0.0000 C   0  0  0  0  0  0  0  0  0  0  0  0
   -2.6453   -0.7559    0.0000 C   0  0  0  0  0  0  0  0  0  0  0  0
   -2.0601   -1.3372    0.0000 N   0  0  0  0  0  0  0  0  0  0  0  0
   -1.2461   -1.2056    0.0000 C   0  0  0  0  0  0  0  0  0  0  0  0
   -0.8739   -0.4696    0.0000 C   0  0  0  0  0  0  0  0  0  0  0  0
   -1.3253    0.2206    0.0000 O   0  0  0  0  0  0  0  0  0  0  0  0
   -0.0505   -0.4237    0.0000 N   0  0  0  0  0  0  0  0  0  0  0  0
    0.3963    0.2696    0.0000 C   0  0  0  0  0  0  0  0  0  0  0  0
    1.2240    0.2290    0.0000 C   0  0  0  0  0  0  0  0  0  0  0  0
    1.6667    0.9246    0.0000 C   0  0  0  0  0  0  0  0  0  0  0  0
    1.2902    1.6541    0.0000 C   0  0  0  0  0  0  0  0  0  0  0  0
    0.4659    1.6945    0.0000 C   0  0  0  0  0  0  0  0  0  0  0  0
    0.0196    1.0035    0.0000 C   0  0  0  0  0  0  0  0  0  0  0  0
    0.3642   -1.1367    0.0000 C   0  0  0  0  0  0  0  0  0  0  0  0
    1.1890   -1.1339    0.0000 C   0  0  0  0  0  0  0  0  0  0  0  0
    1.6037   -1.8470    0.0000 C   0  0  0  0  0  0  0  0  0  0  0  0
    1.1938   -2.5626    0.0000 O   0  0  0  0  0  0  0  0  0  0  0  0
    2.4286   -1.8442    0.0000 N   0  0  0  0  0  0  0  0  0  0  0  0
    2.8434   -2.5572    0.0000 C   0  0  0  0  0  0  0  0  0  0  0  0
    3.6683   -2.5545    0.0000 C   0  0  0  0  0  0  0  0  0  0  0  0
    4.0831   -3.2674    0.0000 C   0  0  0  0  0  0  0  0  0  0  0  0
    4.9079   -3.2647    0.0000 C   0  0  0  0  0  0  0  0  0  0  0  0
    5.7327   -3.2620    0.0000 C   0  0  0  0  0  0  0  0  0  0  0  0
    6.5576   -3.2593    0.0000 C   0  0  0  0  0  0  0  0  0  0  0  0
    6.9676   -2.5436    0.0000 C   0  0  0  0  0  0  0  0  0  0  0  0
    6.7101   -1.7599    0.0000 C   0  0  0  0  0  0  0  0  0  0  0  0
    7.3758   -1.2730    0.0000 N   0  0  0  0  0  0  0  0  0  0  0  0
    7.3731   -0.4481    0.0000 C   0  0  0  0  0  0  0  0  0  0  0  0
    6.6574   -0.0381    0.0000 C   0  0  0  0  0  0  0  0  0  0  0  0
    5.9445   -0.4527    0.0000 O   0  0  0  0  0  0  0  0  0  0  0  0
    6.6547    0.7867    0.0000 N   0  0  0  0  0  0  0  0  0  0  0  0
    7.3677    1.2014    0.0000 C   0  0  0  0  0  0  0  0  0  0  0  0
    7.3649    2.0263    0.0000 O   0  0  0  0  0  0  0  0  0  0  0  0
    8.0833    0.7914    0.0000 C   0  0  0  0  0  0  0  0  0  0  0  0
    8.0861   -0.0333    0.0000 C   0  0  0  0  0  0  0  0  0  0  0  0
    8.0447   -1.7556    0.0000 C   0  0  0  0  0  0  0  0  0  0  0  0
    7.7924   -2.5409    0.0000 C   0  0  0  0  0  0  0  0  0  0  0  0
    8.2072   -3.2538    0.0000 C   0  0  0  0  0  0  0  0  0  0  0  0
    7.7971   -3.9695    0.0000 C   0  0  0  0  0  0  0  0  0  0  0  0
    6.9722   -3.9722    0.0000 C   0  0  0  0  0  0  0  0  0  0  0  0
   -0.8692   -1.9393    0.0000 C   0  0  0  0  0  0  0  0  0  0  0  0
   -1.4504   -2.5243    0.0000 C   0  0  0  0  0  0  0  0  0  0  0  0
   -2.1866   -2.1522    0.0000 C   0  0  0  0  0  0  0  0  0  0  0  0
   -2.4344    0.0413    0.0000 O   0  0  0  0  0  0  0  0  0  0  0  0
   -4.0264   -0.3906    0.0000 N   0  0  0  0  0  0  0  0  0  0  0  0
   -4.8223   -0.6068    0.0000 C   0  0  0  0  0  0  0  0  0  0  0  0
   -5.0331   -1.4041    0.0000 O   0  0  0  0  0  0  0  0  0  0  0  0
   -5.4074   -0.0254    0.0000 C   0  0  0  0  0  0  0  0  0  0  0  0
   -5.2811    0.7894    0.0000 C   0  0  0  0  0  0  0  0  0  0  0  0
   -6.0172    1.1614    0.0000 C   0  0  0  0  0  0  0  0  0  0  0  0
   -6.5985    0.5762    0.0000 C   0  0  0  0  0  0  0  0  0  0  0  0
   -7.3958    0.7870    0.0000 C   0  0  0  0  0  0  0  0  0  0  0  0
   -7.6120    1.5830    0.0000 C   0  0  0  0  0  0  0  0  0  0  0  0
   -7.0307    2.1681    0.0000 C   0  0  0  0  0  0  0  0  0  0  0  0
   -6.2333    1.9573    0.0000 C   0  0  0  0  0  0  0  0  0  0  0  0
   -7.2469    2.9640    0.0000 C   0  0  0  0  0  0  0  0  0  0  0  0
   -6.4405    3.1383    0.0000 F   0  0  0  0  0  0  0  0  0  0  0  0
   -6.9946    3.7496    0.0000 F   0  0  0  0  0  0  0  0  0  0  0  0
   -8.0442    3.1748    0.0000 P   0  0  0  0  0  0  0  0  0  0  0  0
   -8.8416    3.3857    0.0000 O   0  0  0  0  0  0  0  0  0  0  0  0
   -8.2551    2.3775    0.0000 O   0  0  0  0  0  0  0  0  0  0  0  0
   -7.8334    3.9722    0.0000 O   0  0  0  0  0  0  0  0  0  0  0  0
   -6.2215   -0.1573    0.0000 S   0  0  0  0  0  0  0  0  0  0  0  0
    8.8416   -1.5421    0.0000 O   0  0  0  0  0  0  0  0  0  0  0  0
    1.7027    2.3685    0.0000 C   0  0  0  0  0  0  0  0  0  0  0  0
    1.2902    3.0830    0.0000 S   0  0  0  0  0  0  0  0  0  0  0  0
    1.8614    3.7016    0.0000 C   0  0  0  0  0  0  0  0  0  0  0  0
    2.5958    3.3710    0.0000 C   0  0  0  0  0  0  0  0  0  0  0  0
    2.5035    2.5470    0.0000 N   0  0  0  0  0  0  0  0  0  0  0  0
    2.8411   -1.1298    0.0000 C   0  0  0  0  0  0  0  0  0  0  0  0
  1  2  1  0
  1  3  1  0
  1  4  1  0
  5  1  1  0
  6  5  1  0
  7  6  1  0
  7  8  1  0
  8  9  1  6
  9 10  2  0
 11  9  1  0
 11 12  1  0
 12 13  1  0
 13 14  2  0
 14 15  1  0
 15 16  2  0
 17 12  2  0
 16 17  1  0
 11 18  1  0
 18 19  1  0
 19 20  1  0
 20 21  2  0
 20 22  1  0
 22 23  1  0
 23 24  1  0
 24 25  1  0
 25 26  1  0
 26 27  3  0
 27 28  1  0
 28 29  1  0
 29 30  1  0
 30 31  1  0
 31 32  1  0
 32 33  1  0
 33 34  2  0
 33 35  1  0
 35 36  1  0
 36 37  2  0
 36 38  1  0
 39 32  1  0
 38 39  1  0
 40 31  1  0
 41 40  1  0
 29 41  2  0
 41 42  1  0
 42 43  2  0
 44 28  2  0
 43 44  1  0
  8 45  1  0
 45 46  1  0
 46 47  1  0
  7 47  1  0
 48  6  2  0
  5 49  1  6
 50 49  1  0
 50 51  2  0
 50 52  1  0
 53 52  2  0
 54 53  1  0
 55 54  2  0
 56 55  1  0
 57 56  2  0
 58 57  1  0
 59 54  1  0
 59 58  2  0
 58 60  1  0
 60 61  1  0
 60 62  1  0
 60 63  1  0
 63 64  2  0
 63 65  1  0
 63 66  1  0
 67 55  1  0
 67 52  1  0
 40 68  2  0
 69 15  1  0
 69 70  1  0
 70 71  1  0
 71 72  2  0
 69 73  2  0
 73 72  1  0
 22 74  1  0
M  END
> <From>
www.bindingDB.org

> <BindingDB Reactant_set_id>
51571939

> <Ligand InChI>
InChI=1S/C52H54F2N7O10PS2/c1-51(2,3)44(57-46(65)41-29-33-28-34(16-20-40(33)74-41)52(53,54)72(69,70)71)50(68)60-25-9-13-39(60)49(67)59(35-17-14-32(15-18-35)47-55-23-27-73-47)26-22-43(63)58(4)24-7-5-6-10-31-11-8-12-36-37(31)30-61(48(36)66)38-19-21-42(62)56-45(38)64/h8,11-12,14-18,20,23,27-29,38-39,44H,5,7,9,13,19,21-22,24-26,30H2,1-4H3,(H,57,65)(H,56,62,64)(H2,69,70,71)/t38?,39-,44+/m0/s1

> <Ligand InChI Key>
LOPYPDQOHNOVBM-QOIUHGAOSA-N

> <BindingDB MonomerID>
50632190

> <BindingDB Ligand Name>
CHEMBL5399100

> <Target Name>
Protein cereblon

> <Target Source Organism According to Curator or DataSource>
Homo sapiens

> <Ki (nM)>
 170

> <IC50 (nM)>


> <Kd (nM)>


> <EC50 (nM)>


> <kon (M-1-s-1)>


> <koff (s-1)>


> <pH>


> <Temp C>


> <Curation/DataSource>
ChEMBL

> <Article DOI>
10.1021/acs.jmedchem.2c01665

> <BindingDB Entry DOI>
10.7270/Q2639V6Z

> <PMID>
36735833

> <PubChem AID>


> <Patent Number>


> <Authors>
Kaneshige, A; Bai, L; Wang, M; McEachern, D; Meagher, JL; Xu, R; Kirchhoff, PD; Wen, B; Sun, D; Stuckey, JA; Wang, S

> <Date of publication>
2/23/2023

> <Date in BindingDB>
12/22/2024

> <Institution>
University of Michigan

> <Link to Ligand in BindingDB>
http://www.bindingdb.org/bind/chemsearch/marvin/MolStructure.jsp?monomerid=50632190

> <Link to Ligand-Target Pair in BindingDB>
http://www.bindingdb.org/jsp/dbsearch/PrimarySearch_ki.jsp?energyterm=kJ/mole&tag=pol&polymerid=50007050&target=Protein+cereblon&column=ki&startPg=0&Increment=50&submit=Search

> <Link to Ligand-Target Pair in BindingDB>
http://www.bindingdb.org/jsp/dbsearch/PrimarySearch_ki.jsp?energyterm=kJ/mole&tag=r21&monomerid=50632190&enzyme=Protein+cereblon&column=ki&startPg=0&Increment=50&submit=Search

> <Ligand HET ID in PDB>


> <PDB ID(s) for Ligand-Target Complex>


> <PubChem CID of Ligand>
166594150

> <PubChem SID of Ligand>
505036524

> <ChEBI ID of Ligand>


> <ChEMBL ID of Ligand>


> <DrugBank ID of Ligand>


> <IUPHAR_GRAC ID of Ligand>


> <KEGG ID of Ligand>


> <ZINC ID of Ligand>


> <Number of Protein Chains in Target (bigger than 1 implies a multichain complex)>
1

> <BindingDB Target Chain Sequence>
MAGEGDQQDAAHNMGNHLPLLPAESEEEDEMEVEDQDSKEAKKPNIINFDTSLPTSHTYLGADMEEFHGRTLHDDDSCQVIPVLPQVMMILIPGQTLPLQLFHPQEVSMVRNLIQKDRTFAVLAYSNVQEREAQFGTTAEIYAYREEQDFGIEIVKVKAIGRQRFKVLELRTQSDGIQQAKVQILPECVLPSTMSAVQLESLNKCQIFPSKPVSREDQCSYKWWQKYQKRKFHCANLTSWPRWLYSLYDAETLMDRIKKQLREWDENLKDDSLPSNPIDFSYRVAACLPIDDVLRIQLLKIGSAIQRLRCELDIMNKCTSLCCKQCQETEITTKNEIFSLSLCGPMAAYVNPHGYVHETLTVYKACNLNLIGRPSTEHSWFPGYAWTVAQCKICASHIGWKFTATKKDMSPQKFWGLTRSALLPTIPDTEDEISPDKVILCL

> <PDB ID(s) of Target Chain>
8TNR,8TNQ,8TNP,8D81,8D80,8D7Z,8D7Y,8D7X,8D7W,8D7V,8D7U,8CVP,9DQD,8UH6,6BOY,6BNB,6BN9,6BN8,6BN7,6XK9,6UML,5V3O,5HXB,7U8F,8OJH,8OIZ,7LPS,4TZ4,9DJX,9DJT,8U17,8U16,8U15,8TZX,8DEY,9CUO,4M91

> <UniProt (SwissProt) Recommended Name of Target Chain>
Protein cereblon

> <UniProt (SwissProt) Entry Name of Target Chain>
CRBN_HUMAN

> <UniProt (SwissProt) Primary ID of Target Chain>
Q96SW2

> <UniProt (SwissProt) Secondary ID(s) of Target Chain>
B2R6H4 C9IZA9 C9JAH6 Q6AI62 Q6NVZ0 Q9UHW4

> <UniProt (SwissProt) Alternative ID(s) of Target Chain>


> <UniProt (TrEMBL) Submitted Name of Target Chain>


> <UniProt (TrEMBL) Entry Name of Target Chain>


> <UniProt (TrEMBL) Primary ID of Target Chain>


> <UniProt (TrEMBL) Secondary ID(s) of Target Chain>


> <UniProt (TrEMBL) Alternative ID(s) of Target Chain>


$$$$
 
     RDKit          2D

 23 25  0  0  0  0  0  0  0  0999 V2000
   -0.1581    1.8129    0.0000 N   0  0  0  0  0  0  0  0  0  0  0  0
    0.5563    2.2253    0.0000 C   0  0  0  0  0  0  0  0  0  0  0  0
    0.5563    3.0503    0.0000 C   0  0  0  0  0  0  0  0  0  0  0  0
    1.2707    3.4628    0.0000 C   0  0  0  0  0  0  0  0  0  0  0  0
    1.9852    3.0503    0.0000 C   0  0  0  0  0  0  0  0  0  0  0  0
    1.9852    2.2253    0.0000 N   0  0  0  0  0  0  0  0  0  0  0  0
    1.2707    1.8129    0.0000 C   0  0  0  0  0  0  0  0  0  0  0  0
    1.2707    0.9878    0.0000 O   0  0  0  0  0  0  0  0  0  0  0  0
    2.6997    3.4628    0.0000 O   0  0  0  0  0  0  0  0  0  0  0  0
   -0.2443    0.9928    0.0000 C   0  0  0  0  0  0  0  0  0  0  0  0
   -1.0509    0.8213    0.0000 C   0  0  0  0  0  0  0  0  0  0  0  0
   -1.4632    1.5354    0.0000 C   0  0  0  0  0  0  0  0  0  0  0  0
   -0.9114    2.1483    0.0000 C   0  0  0  0  0  0  0  0  0  0  0  0
   -1.1249    2.9451    0.0000 O   0  0  0  0  0  0  0  0  0  0  0  0
   -1.4624    0.1097    0.0000 C   0  0  0  0  0  0  0  0  0  0  0  0
   -2.2872    0.1094    0.0000 C   0  0  0  0  0  0  0  0  0  0  0  0
   -2.6990    0.8191    0.0000 C   0  0  0  0  0  0  0  0  0  0  0  0
   -2.2912    1.5352    0.0000 C   0  0  0  0  0  0  0  0  0  0  0  0
   -2.6997   -0.6049    0.0000 N   0  0  0  0  0  0  0  0  0  0  0  0
   -2.2872   -1.3194    0.0000 C   0  0  0  0  0  0  0  0  0  0  0  0
   -2.6997   -2.0339    0.0000 C   0  0  0  0  0  0  0  0  0  0  0  0
   -2.2872   -2.7483    0.0000 C   0  0  0  0  0  0  0  0  0  0  0  0
   -2.6997   -3.4628    0.0000 C   0  0  0  0  0  0  0  0  0  0  0  0
  1  2  1  0
  2  3  1  0
  3  4  1  0
  4  5  1  0
  5  6  1  0
  6  7  1  0
  2  7  1  0
  7  8  2  0
  5  9  2  0
 10  1  1  0
 10 11  1  0
 11 12  2  0
 12 13  1  0
 13  1  1  0
 13 14  2  0
 11 15  1  0
 16 15  2  0
 17 16  1  0
 18 17  2  0
 12 18  1  0
 16 19  1  0
 19 20  1  0
 20 21  1  0
 21 22  1  0
 22 23  1  0
M  END
> <From>
www.bindingDB.org

> <BindingDB Reactant_set_id>
51567954

> <Ligand InChI>
InChI=1S/C17H21N3O3/c1-2-3-8-18-12-4-5-13-11(9-12)10-20(17(13)23)14-6-7-15(21)19-16(14)22/h4-5,9,14,18H,2-3,6-8,10H2,1H3,(H,19,21,22)

> <Ligand InChI Key>
OUEGCYAVXIPRPX-UHFFFAOYSA-N

> <BindingDB MonomerID>
50630608

> <BindingDB Ligand Name>
CHEMBL5415637

> <Target Name>
Protein cereblon

> <Target Source Organism According to Curator or DataSource>
Homo sapiens

> <Ki (nM)>
 430

> <IC50 (nM)>


> <Kd (nM)>


> <EC50 (nM)>


> <kon (M-1-s-1)>


> <koff (s-1)>


> <pH>


> <Temp C>


> <Curation/DataSource>
ChEMBL

> <Article DOI>
10.1021/acs.jmedchem.3c00851

> <BindingDB Entry DOI>
10.7270/Q2PK0MM6

> <PMID>
37902300

> <PubChem AID>


> <Patent Number>


> <Authors>
Steinebach, C; Bricelj, A; Murgai, A; Sosič, I; Bischof, L; Ng, YLD; Heim, C; Maiwald, S; Proj, M; Voget, R; Feller, F; Košmrlj, J; Sapozhnikova, V; Schmidt, A; Zuleeg, MR; Lemnitzer, P; Mertins, P; Hansen, FK; Gütschow, M; Krönke, J; Hartmann, MD

> <Date of publication>
11/9/2023

> <Date in BindingDB>
12/20/2024

> <Institution>
University of Bonn

> <Link to Ligand in BindingDB>
http://www.bindingdb.org/bind/chemsearch/marvin/MolStructure.jsp?monomerid=50630608

> <Link to Ligand-Target Pair in BindingDB>
http://www.bindingdb.org/jsp/dbsearch/PrimarySearch_ki.jsp?energyterm=kJ/mole&tag=pol&polymerid=50007050&target=Protein+cereblon&column=ki&startPg=0&Increment=50&submit=Search

> <Link to Ligand-Target Pair in BindingDB>
http://www.bindingdb.org/jsp/dbsearch/PrimarySearch_ki.jsp?energyterm=kJ/mole&tag=r21&monomerid=50630608&enzyme=Protein+cereblon&column=ki&startPg=0&Increment=50&submit=Search

> <Ligand HET ID in PDB>


> <PDB ID(s) for Ligand-Target Complex>


> <PubChem CID of Ligand>
169548843

> <PubChem SID of Ligand>
505048579

> <ChEBI ID of Ligand>


> <ChEMBL ID of Ligand>


> <DrugBank ID of Ligand>


> <IUPHAR_GRAC ID of Ligand>


> <KEGG ID of Ligand>


> <ZINC ID of Ligand>


> <Number of Protein Chains in Target (bigger than 1 implies a multichain complex)>
1

> <BindingDB Target Chain Sequence>
MAGEGDQQDAAHNMGNHLPLLPAESEEEDEMEVEDQDSKEAKKPNIINFDTSLPTSHTYLGADMEEFHGRTLHDDDSCQVIPVLPQVMMILIPGQTLPLQLFHPQEVSMVRNLIQKDRTFAVLAYSNVQEREAQFGTTAEIYAYREEQDFGIEIVKVKAIGRQRFKVLELRTQSDGIQQAKVQILPECVLPSTMSAVQLESLNKCQIFPSKPVSREDQCSYKWWQKYQKRKFHCANLTSWPRWLYSLYDAETLMDRIKKQLREWDENLKDDSLPSNPIDFSYRVAACLPIDDVLRIQLLKIGSAIQRLRCELDIMNKCTSLCCKQCQETEITTKNEIFSLSLCGPMAAYVNPHGYVHETLTVYKACNLNLIGRPSTEHSWFPGYAWTVAQCKICASHIGWKFTATKKDMSPQKFWGLTRSALLPTIPDTEDEISPDKVILCL

> <PDB ID(s) of Target Chain>
8TNR,8TNQ,8TNP,8D81,8D80,8D7Z,8D7Y,8D7X,8D7W,8D7V,8D7U,8CVP,9DQD,8UH6,6BOY,6BNB,6BN9,6BN8,6BN7,6XK9,6UML,5V3O,5HXB,7U8F,8OJH,8OIZ,7LPS,4TZ4,9DJX,9DJT,8U17,8U16,8U15,8TZX,8DEY,9CUO,4M91

> <UniProt (SwissProt) Recommended Name of Target Chain>
Protein cereblon

> <UniProt (SwissProt) Entry Name of Target Chain>
CRBN_HUMAN

> <UniProt (SwissProt) Primary ID of Target Chain>
Q96SW2

> <UniProt (SwissProt) Secondary ID(s) of Target Chain>
B2R6H4 C9IZA9 C9JAH6 Q6AI62 Q6NVZ0 Q9UHW4

> <UniProt (SwissProt) Alternative ID(s) of Target Chain>


> <UniProt (TrEMBL) Submitted Name of Target Chain>


> <UniProt (TrEMBL) Entry Name of Target Chain>


> <UniProt (TrEMBL) Primary ID of Target Chain>


> <UniProt (TrEMBL) Secondary ID(s) of Target Chain>


> <UniProt (TrEMBL) Alternative ID(s) of Target Chain>


$$$$
 
     RDKit          2D

 36 40  0  0  0  0  0  0  0  0999 V2000
   17.0772   -3.9748    0.0000 C   0  0  0  0  0  0  0  0  0  0  0  0
   17.0760   -4.8022    0.0000 C   0  0  0  0  0  0  0  0  0  0  0  0
   17.7908   -5.2150    0.0000 C   0  0  0  0  0  0  0  0  0  0  0  0
   17.7890   -3.5621    0.0000 C   0  0  0  0  0  0  0  0  0  0  0  0
   18.5044   -3.9712    0.0000 C   0  0  0  0  0  0  0  0  0  0  0  0
   18.5092   -4.7977    0.0000 C   0  0  0  0  0  0  0  0  0  0  0  0
   19.2967   -5.0484    0.0000 C   0  0  0  0  0  0  0  0  0  0  0  0
   19.7786   -4.3770    0.0000 N   0  0  0  0  0  0  0  0  0  0  0  0
   19.2889   -3.7113    0.0000 C   0  0  0  0  0  0  0  0  0  0  0  0
   17.7918   -6.0400    0.0000 N   0  0  0  0  0  0  0  0  0  0  0  0
   19.5392   -2.9252    0.0000 O   0  0  0  0  0  0  0  0  0  0  0  0
   20.6028   -4.3708    0.0000 C   0  0  0  0  0  0  0  0  0  0  0  0
   21.0182   -5.0847    0.0000 C   0  0  0  0  0  0  0  0  0  0  0  0
   21.8395   -5.0817    0.0000 C   0  0  0  0  0  0  0  0  0  0  0  0
   22.2517   -4.3667    0.0000 C   0  0  0  0  0  0  0  0  0  0  0  0
   21.8363   -3.6529    0.0000 N   0  0  0  0  0  0  0  0  0  0  0  0
   21.0087   -3.6541    0.0000 C   0  0  0  0  0  0  0  0  0  0  0  0
   20.5927   -2.9417    0.0000 O   0  0  0  0  0  0  0  0  0  0  0  0
   23.0767   -4.3650    0.0000 O   0  0  0  0  0  0  0  0  0  0  0  0
   17.0780   -6.4534    0.0000 C   0  0  0  0  0  0  0  0  0  0  0  0
   17.0790   -7.2784    0.0000 O   0  0  0  0  0  0  0  0  0  0  0  0
   16.3630   -6.0419    0.0000 C   0  0  0  0  0  0  0  0  0  0  0  0
   15.6491   -6.4553    0.0000 N   0  0  0  0  0  0  0  0  0  0  0  0
   14.9341   -6.0437    0.0000 C   0  0  0  0  0  0  0  0  0  0  0  0
   14.9370   -5.2198    0.0000 C   0  0  0  0  0  0  0  0  0  0  0  0
   14.2229   -4.8084    0.0000 C   0  0  0  0  0  0  0  0  0  0  0  0
   13.5080   -5.2219    0.0000 N   0  0  0  0  0  0  0  0  0  0  0  0
   13.5118   -6.0511    0.0000 C   0  0  0  0  0  0  0  0  0  0  0  0
   14.2264   -6.4588    0.0000 N   0  0  0  0  0  0  0  0  0  0  0  0
   12.7992   -6.4670    0.0000 N   0  0  0  0  0  0  0  0  0  0  0  0
   12.0478   -6.1374    0.0000 C   0  0  0  0  0  0  0  0  0  0  0  0
   11.4987   -6.7531    0.0000 C   0  0  0  0  0  0  0  0  0  0  0  0
   11.9146   -7.4656    0.0000 C   0  0  0  0  0  0  0  0  0  0  0  0
   12.7207   -7.2901    0.0000 C   0  0  0  0  0  0  0  0  0  0  0  0
   13.3377   -7.8376    0.0000 C   0  0  0  0  0  0  0  0  0  0  0  0
   13.1721   -8.6459    0.0000 O   0  0  0  0  0  0  0  0  0  0  0  0
  1  2  2  0
  2  3  1  0
  3  6  2  0
  5  4  2  0
  4  1  1  0
  5  6  1  0
  6  7  1  0
  7  8  1  0
  8  9  1  0
  9  5  1  0
  3 10  1  0
  9 11  2  0
 12 13  1  0
 12 17  1  0
 13 14  1  0
 14 15  1  0
 15 16  1  0
 16 17  1  0
  8 12  1  0
 17 18  2  0
 15 19  2  0
 10 20  1  0
 20 21  2  0
 20 22  1  0
 22 23  1  0
 23 24  1  0
 24 25  2  0
 25 26  1  0
 26 27  2  0
 27 28  1  0
 28 29  2  0
 29 24  1  0
 28 30  1  0
 30 31  1  0
 31 32  1  0
 32 33  1  0
 33 34  1  0
 34 30  1  0
 34 35  1  1
 35 36  1  0
M  END
> <From>
www.bindingDB.org

> <BindingDB Reactant_set_id>
51338527

> <Ligand InChI>
InChI=1S/C24H27N7O5/c32-13-14-3-2-10-30(14)24-25-9-8-19(28-24)26-11-21(34)27-17-5-1-4-15-16(17)12-31(23(15)36)18-6-7-20(33)29-22(18)35/h1,4-5,8-9,14,18,32H,2-3,6-7,10-13H2,(H,27,34)(H,25,26,28)(H,29,33,35)/t14-,18?/m1/s1

> <Ligand InChI Key>
HQIHAVBDCVQJOE-IKJXHCRLSA-N

> <BindingDB MonomerID>
50541817

> <BindingDB Ligand Name>
CHEMBL4635421::US11530219, Compound 14

> <Target Name>
Protein cereblon

> <Target Source Organism According to Curator or DataSource>
Human

> <Ki (nM)>
 440

> <IC50 (nM)>


> <Kd (nM)>


> <EC50 (nM)>


> <kon (M-1-s-1)>


> <koff (s-1)>


> <pH>


> <Temp C>


> <Curation/DataSource>
ChEMBL

> <Article DOI>
10.1021/acsmedchemlett.0c00214

> <BindingDB Entry DOI>
10.7270/Q2VH5SCW

> <PMID>
32550984

> <PubChem AID>


> <Patent Number>


> <Authors>
Kargbo, RB

> <Date of publication>
6/11/2020

> <Date in BindingDB>
8/13/2021

> <Institution>
Usona Institute

> <Link to Ligand in BindingDB>
http://www.bindingdb.org/bind/chemsearch/marvin/MolStructure.jsp?monomerid=50541817

> <Link to Ligand-Target Pair in BindingDB>
http://www.bindingdb.org/jsp/dbsearch/PrimarySearch_ki.jsp?energyterm=kJ/mole&tag=pol&polymerid=50007050&target=Protein+cereblon&column=ki&startPg=0&Increment=50&submit=Search

> <Link to Ligand-Target Pair in BindingDB>
http://www.bindingdb.org/jsp/dbsearch/PrimarySearch_ki.jsp?energyterm=kJ/mole&tag=r21&monomerid=50541817&enzyme=Protein+cereblon&column=ki&startPg=0&Increment=50&submit=Search

> <Ligand HET ID in PDB>


> <PDB ID(s) for Ligand-Target Complex>


> <PubChem CID of Ligand>
147826952

> <PubChem SID of Ligand>
442143380

> <ChEBI ID of Ligand>


> <ChEMBL ID of Ligand>


> <DrugBank ID of Ligand>


> <IUPHAR_GRAC ID of Ligand>


> <KEGG ID of Ligand>


> <ZINC ID of Ligand>


> <Number of Protein Chains in Target (bigger than 1 implies a multichain complex)>
1

> <BindingDB Target Chain Sequence>
MAGEGDQQDAAHNMGNHLPLLPAESEEEDEMEVEDQDSKEAKKPNIINFDTSLPTSHTYLGADMEEFHGRTLHDDDSCQVIPVLPQVMMILIPGQTLPLQLFHPQEVSMVRNLIQKDRTFAVLAYSNVQEREAQFGTTAEIYAYREEQDFGIEIVKVKAIGRQRFKVLELRTQSDGIQQAKVQILPECVLPSTMSAVQLESLNKCQIFPSKPVSREDQCSYKWWQKYQKRKFHCANLTSWPRWLYSLYDAETLMDRIKKQLREWDENLKDDSLPSNPIDFSYRVAACLPIDDVLRIQLLKIGSAIQRLRCELDIMNKCTSLCCKQCQETEITTKNEIFSLSLCGPMAAYVNPHGYVHETLTVYKACNLNLIGRPSTEHSWFPGYAWTVAQCKICASHIGWKFTATKKDMSPQKFWGLTRSALLPTIPDTEDEISPDKVILCL

> <PDB ID(s) of Target Chain>
4TZ4,5HXB,5V3O,6UML,6XK9,7LPS,7U8F,8CVP,8D7U,8D7V,8D7W,8D7X,8D7Y,8D7Z,8D80,8D81,8DEY,8OIZ,8OJH

> <UniProt (SwissProt) Recommended Name of Target Chain>
Protein cereblon

> <UniProt (SwissProt) Entry Name of Target Chain>
CRBN_HUMAN

> <UniProt (SwissProt) Primary ID of Target Chain>
Q96SW2

> <UniProt (SwissProt) Secondary ID(s) of Target Chain>
B2R6H4 C9IZA9 C9JAH6 Q6AI62 Q6NVZ0 Q9UHW4

> <UniProt (SwissProt) Alternative ID(s) of Target Chain>


> <UniProt (TrEMBL) Submitted Name of Target Chain>


> <UniProt (TrEMBL) Entry Name of Target Chain>


> <UniProt (TrEMBL) Primary ID of Target Chain>


> <UniProt (TrEMBL) Secondary ID(s) of Target Chain>


> <UniProt (TrEMBL) Alternative ID(s) of Target Chain>


$$$$
 
     RDKit          2D

 19 20  0  0  0  0  0  0  0  0999 V2000
   -2.8571   -0.2050    0.0000 C   0  0  0  0  0  0  0  0  0  0  0  0
   -2.1427    0.2074    0.0000 C   0  0  0  0  0  0  0  0  0  0  0  0
   -1.4283   -0.2050    0.0000 C   0  0  0  0  0  0  0  0  0  0  0  0
   -1.4283   -1.0300    0.0000 C   0  0  0  0  0  0  0  0  0  0  0  0
   -2.1427   -1.4424    0.0000 N   0  0  0  0  0  0  0  0  0  0  0  0
   -2.8571   -1.0300    0.0000 C   0  0  0  0  0  0  0  0  0  0  0  0
   -3.5713   -1.4424    0.0000 O   0  0  0  0  0  0  0  0  0  0  0  0
   -0.7141   -1.4424    0.0000 O   0  0  0  0  0  0  0  0  0  0  0  0
   -0.7141    0.2073    0.0000 C   0  0  0  0  0  0  0  0  0  0  0  0
    0.0001   -0.2050    0.0000 S   0  0  0  0  0  0  0  0  0  0  0  0
    0.7142    0.2073    0.0000 C   0  0  0  0  0  0  0  0  0  0  0  0
    0.7144    1.0320    0.0000 C   0  0  0  0  0  0  0  0  0  0  0  0
    1.4269    1.4424    0.0000 C   0  0  0  0  0  0  0  0  0  0  0  0
    2.1413    1.0300    0.0000 C   0  0  0  0  0  0  0  0  0  0  0  0
    2.1429    0.2094    0.0000 C   0  0  0  0  0  0  0  0  0  0  0  0
    1.4315   -0.2068    0.0000 C   0  0  0  0  0  0  0  0  0  0  0  0
    2.8571   -0.2029    0.0000 N   0  0  0  0  0  0  0  0  0  0  0  0
    2.8571   -1.0276    0.0000 O   0  0  0  0  0  0  0  0  0  0  0  0
    3.5713    0.2094    0.0000 O   0  0  0  0  0  0  0  0  0  0  0  0
  1  2  1  0
  3  2  1  0
  4  3  1  0
  5  4  1  0
  1  6  1  0
  6  5  1  0
  6  7  2  0
  4  8  2  0
  3  9  1  0
  9 10  1  0
 10 11  1  0
 12 11  2  0
 13 12  1  0
 14 13  2  0
 15 14  1  0
 16 15  2  0
 11 16  1  0
 17 15  1  0
 17 18  1  0
 17 19  2  0
M  CHG  2  17   1  18  -1
M  END
> <From>
www.bindingDB.org

> <BindingDB Reactant_set_id>
51553735

> <Ligand InChI>
InChI=1S/C12H12N2O4S/c15-11-5-4-8(12(16)13-11)7-19-10-3-1-2-9(6-10)14(17)18/h1-3,6,8H,4-5,7H2,(H,13,15,16)

> <Ligand InChI Key>
PGPDPHWWUDYFET-UHFFFAOYSA-N

> <BindingDB MonomerID>
50625128

> <BindingDB Ligand Name>
CHEMBL5409302

> <Target Name>
Protein cereblon

> <Target Source Organism According to Curator or DataSource>
Homo sapiens

> <Ki (nM)>
 500

> <IC50 (nM)>


> <Kd (nM)>


> <EC50 (nM)>


> <kon (M-1-s-1)>


> <koff (s-1)>


> <pH>


> <Temp C>


> <Curation/DataSource>
ChEMBL

> <Article DOI>
10.1016/j.ejmech.2022.114990

> <BindingDB Entry DOI>
10.7270/Q2F1944V

> <PMID>
36476642

> <PubChem AID>


> <Patent Number>


> <Authors>
n/a

> <Date of publication>
1/15/2023

> <Date in BindingDB>
12/18/2024

> <Institution>
n/a

> <Link to Ligand in BindingDB>
http://www.bindingdb.org/bind/chemsearch/marvin/MolStructure.jsp?monomerid=50625128

> <Link to Ligand-Target Pair in BindingDB>
http://www.bindingdb.org/jsp/dbsearch/PrimarySearch_ki.jsp?energyterm=kJ/mole&tag=pol&polymerid=50007050&target=Protein+cereblon&column=ki&startPg=0&Increment=50&submit=Search

> <Link to Ligand-Target Pair in BindingDB>
http://www.bindingdb.org/jsp/dbsearch/PrimarySearch_ki.jsp?energyterm=kJ/mole&tag=r21&monomerid=50625128&enzyme=Protein+cereblon&column=ki&startPg=0&Increment=50&submit=Search

> <Ligand HET ID in PDB>


> <PDB ID(s) for Ligand-Target Complex>


> <PubChem CID>


> <PubChem SID>


> <ChEBI ID of Ligand>


> <ChEMBL ID of Ligand>


> <DrugBank ID of Ligand>


> <IUPHAR_GRAC ID of Ligand>


> <KEGG ID of Ligand>


> <ZINC ID of Ligand>


> <Number of Protein Chains in Target (bigger than 1 implies a multichain complex)>
1

> <BindingDB Target Chain Sequence>
MAGEGDQQDAAHNMGNHLPLLPAESEEEDEMEVEDQDSKEAKKPNIINFDTSLPTSHTYLGADMEEFHGRTLHDDDSCQVIPVLPQVMMILIPGQTLPLQLFHPQEVSMVRNLIQKDRTFAVLAYSNVQEREAQFGTTAEIYAYREEQDFGIEIVKVKAIGRQRFKVLELRTQSDGIQQAKVQILPECVLPSTMSAVQLESLNKCQIFPSKPVSREDQCSYKWWQKYQKRKFHCANLTSWPRWLYSLYDAETLMDRIKKQLREWDENLKDDSLPSNPIDFSYRVAACLPIDDVLRIQLLKIGSAIQRLRCELDIMNKCTSLCCKQCQETEITTKNEIFSLSLCGPMAAYVNPHGYVHETLTVYKACNLNLIGRPSTEHSWFPGYAWTVAQCKICASHIGWKFTATKKDMSPQKFWGLTRSALLPTIPDTEDEISPDKVILCL

> <PDB ID(s) of Target Chain>
8TNR,8TNQ,8TNP,8D81,8D80,8D7Z,8D7Y,8D7X,8D7W,8D7V,8D7U,8CVP,9DQD,8UH6,6BOY,6BNB,6BN9,6BN8,6BN7,6XK9,6UML,5V3O,5HXB,7U8F,8OJH,8OIZ,7LPS,4TZ4,9DJX,9DJT,8U17,8U16,8U15,8TZX,8DEY,9CUO,4M91

> <UniProt (SwissProt) Recommended Name of Target Chain>
Protein cereblon

> <UniProt (SwissProt) Entry Name of Target Chain>
CRBN_HUMAN

> <UniProt (SwissProt) Primary ID of Target Chain>
Q96SW2

> <UniProt (SwissProt) Secondary ID(s) of Target Chain>
B2R6H4 C9IZA9 C9JAH6 Q6AI62 Q6NVZ0 Q9UHW4

> <UniProt (SwissProt) Alternative ID(s) of Target Chain>


> <UniProt (TrEMBL) Submitted Name of Target Chain>


> <UniProt (TrEMBL) Entry Name of Target Chain>


> <UniProt (TrEMBL) Primary ID of Target Chain>


> <UniProt (TrEMBL) Secondary ID(s) of Target Chain>


> <UniProt (TrEMBL) Alternative ID(s) of Target Chain>


$$$$
 
     RDKit          2D

 23 26  0  0  0  0  0  0  0  0999 V2000
   -2.1339    0.4996    0.0000 C   0  0  0  0  0  0  0  0  0  0  0  0
   -1.4193    0.9119    0.0000 C   0  0  0  0  0  0  0  0  0  0  0  0
   -0.7074    0.5000    0.0000 C   0  0  0  0  0  0  0  0  0  0  0  0
   -0.7074   -0.3251    0.0000 C   0  0  0  0  0  0  0  0  0  0  0  0
   -1.4175   -0.7369    0.0000 C   0  0  0  0  0  0  0  0  0  0  0  0
   -2.1339   -0.3288    0.0000 C   0  0  0  0  0  0  0  0  0  0  0  0
    0.0772   -0.5801    0.0000 C   0  0  0  0  0  0  0  0  0  0  0  0
    0.0772    0.7549    0.0000 C   0  0  0  0  0  0  0  0  0  0  0  0
    0.5622    0.0873    0.0000 N   0  0  0  0  0  0  0  0  0  0  0  0
    1.3874    0.0873    0.0000 C   0  0  0  0  0  0  0  0  0  0  0  0
    1.7999    0.8019    0.0000 C   0  0  0  0  0  0  0  0  0  0  0  0
    2.6252    0.8019    0.0000 C   0  0  0  0  0  0  0  0  0  0  0  0
    3.0377    0.0873    0.0000 C   0  0  0  0  0  0  0  0  0  0  0  0
    2.6252   -0.6272    0.0000 N   0  0  0  0  0  0  0  0  0  0  0  0
    1.8000   -0.6272    0.0000 C   0  0  0  0  0  0  0  0  0  0  0  0
    3.8630    0.0873    0.0000 O   0  0  0  0  0  0  0  0  0  0  0  0
    1.3874   -1.3419    0.0000 O   0  0  0  0  0  0  0  0  0  0  0  0
    0.2908   -1.3771    0.0000 O   0  0  0  0  0  0  0  0  0  0  0  0
    0.2908    1.5520    0.0000 O   0  0  0  0  0  0  0  0  0  0  0  0
   -2.8486   -0.7414    0.0000 N   0  0  0  0  0  0  0  0  0  0  0  0
   -3.0658   -1.5520    0.0000 C   0  0  0  0  0  0  0  0  0  0  0  0
   -3.8630   -1.3384    0.0000 C   0  0  0  0  0  0  0  0  0  0  0  0
   -3.6457   -0.5278    0.0000 C   0  0  0  0  0  0  0  0  0  0  0  0
  2  1  2  0
  3  2  1  0
  4  3  2  0
  5  4  1  0
  1  6  1  0
  6  5  2  0
  4  7  1  0
  3  8  1  0
  8  9  1  0
  9  7  1  0
 10  9  1  0
 10 11  1  0
 12 11  1  0
 13 12  1  0
 14 13  1  0
 10 15  1  0
 15 14  1  0
 13 16  2  0
 15 17  2  0
  7 18  2  0
  8 19  2  0
 20  6  1  0
 21 20  1  0
 22 21  1  0
 22 23  1  0
 23 20  1  0
M  END
> <From>
www.bindingDB.org

> <BindingDB Reactant_set_id>
51563801

> <Ligand InChI>
InChI=1S/C16H15N3O4/c20-13-5-4-12(14(21)17-13)19-15(22)10-3-2-9(18-6-1-7-18)8-11(10)16(19)23/h2-3,8,12H,1,4-7H2,(H,17,20,21)

> <Ligand InChI Key>
PLWVUWVWDWCTHA-UHFFFAOYSA-N

> <BindingDB MonomerID>
50628759

> <BindingDB Ligand Name>
CHEMBL5438540

> <Target Name>
Protein cereblon

> <Target Source Organism According to Curator or DataSource>
Homo sapiens

> <Ki (nM)>
 500

> <IC50 (nM)>


> <Kd (nM)>


> <EC50 (nM)>


> <kon (M-1-s-1)>


> <koff (s-1)>


> <pH>


> <Temp C>


> <Curation/DataSource>
ChEMBL

> <Article DOI>
10.1021/acs.jmedchem.3c01264

> <BindingDB Entry DOI>
10.7270/Q2MC94FW

> <PMID>
37683104

> <PubChem AID>


> <Patent Number>


> <Authors>
Xiang, W; Zhao, L; Han, X; Xu, T; Kregel, S; Wang, M; Miao, B; Qin, C; Wang, M; McEachern, D; Lu, J; Bai, L; Yang, CY; Kirchhoff, PD; Takyi-Williams, J; Wang, L; Wen, B; Sun, D; Ator, M; Mckean, R; Chinnaiyan, AM; Wang, S

> <Date of publication>
9/28/2023

> <Date in BindingDB>
12/19/2024

> <Institution>
University of Michigan

> <Link to Ligand in BindingDB>
http://www.bindingdb.org/bind/chemsearch/marvin/MolStructure.jsp?monomerid=50628759

> <Link to Ligand-Target Pair in BindingDB>
http://www.bindingdb.org/jsp/dbsearch/PrimarySearch_ki.jsp?energyterm=kJ/mole&tag=pol&polymerid=50007050&target=Protein+cereblon&column=ki&startPg=0&Increment=50&submit=Search

> <Link to Ligand-Target Pair in BindingDB>
http://www.bindingdb.org/jsp/dbsearch/PrimarySearch_ki.jsp?energyterm=kJ/mole&tag=r21&monomerid=50628759&enzyme=Protein+cereblon&column=ki&startPg=0&Increment=50&submit=Search

> <Ligand HET ID in PDB>


> <PDB ID(s) for Ligand-Target Complex>


> <PubChem CID of Ligand>
164846090

> <PubChem SID of Ligand>
505046731

> <ChEBI ID of Ligand>


> <ChEMBL ID of Ligand>


> <DrugBank ID of Ligand>


> <IUPHAR_GRAC ID of Ligand>


> <KEGG ID of Ligand>


> <ZINC ID of Ligand>


> <Number of Protein Chains in Target (bigger than 1 implies a multichain complex)>
1

> <BindingDB Target Chain Sequence>
MAGEGDQQDAAHNMGNHLPLLPAESEEEDEMEVEDQDSKEAKKPNIINFDTSLPTSHTYLGADMEEFHGRTLHDDDSCQVIPVLPQVMMILIPGQTLPLQLFHPQEVSMVRNLIQKDRTFAVLAYSNVQEREAQFGTTAEIYAYREEQDFGIEIVKVKAIGRQRFKVLELRTQSDGIQQAKVQILPECVLPSTMSAVQLESLNKCQIFPSKPVSREDQCSYKWWQKYQKRKFHCANLTSWPRWLYSLYDAETLMDRIKKQLREWDENLKDDSLPSNPIDFSYRVAACLPIDDVLRIQLLKIGSAIQRLRCELDIMNKCTSLCCKQCQETEITTKNEIFSLSLCGPMAAYVNPHGYVHETLTVYKACNLNLIGRPSTEHSWFPGYAWTVAQCKICASHIGWKFTATKKDMSPQKFWGLTRSALLPTIPDTEDEISPDKVILCL

> <PDB ID(s) of Target Chain>
8TNR,8TNQ,8TNP,8D81,8D80,8D7Z,8D7Y,8D7X,8D7W,8D7V,8D7U,8CVP,9DQD,8UH6,6BOY,6BNB,6BN9,6BN8,6BN7,6XK9,6UML,5V3O,5HXB,7U8F,8OJH,8OIZ,7LPS,4TZ4,9DJX,9DJT,8U17,8U16,8U15,8TZX,8DEY,9CUO,4M91

> <UniProt (SwissProt) Recommended Name of Target Chain>
Protein cereblon

> <UniProt (SwissProt) Entry Name of Target Chain>
CRBN_HUMAN

> <UniProt (SwissProt) Primary ID of Target Chain>
Q96SW2

> <UniProt (SwissProt) Secondary ID(s) of Target Chain>
B2R6H4 C9IZA9 C9JAH6 Q6AI62 Q6NVZ0 Q9UHW4

> <UniProt (SwissProt) Alternative ID(s) of Target Chain>


> <UniProt (TrEMBL) Submitted Name of Target Chain>


> <UniProt (TrEMBL) Entry Name of Target Chain>


> <UniProt (TrEMBL) Primary ID of Target Chain>


> <UniProt (TrEMBL) Secondary ID(s) of Target Chain>


> <UniProt (TrEMBL) Alternative ID(s) of Target Chain>


$$$$
 
     RDKit          2D

 22 24  0  0  0  0  0  0  0  0999 V2000
   19.0033  -15.8550    0.0000 C   0  0  0  0  0  0  0  0  0  0  0  0
   19.7155  -16.2681    0.0000 C   0  0  0  0  0  0  0  0  0  0  0  0
   20.4293  -15.8545    0.0000 C   0  0  0  0  0  0  0  0  0  0  0  0
   20.4265  -15.0277    0.0000 C   0  0  0  0  0  0  0  0  0  0  0  0
   19.0045  -15.0313    0.0000 C   0  0  0  0  0  0  0  0  0  0  0  0
   19.7127  -14.6237    0.0000 C   0  0  0  0  0  0  0  0  0  0  0  0
   19.7106  -13.8078    0.0000 N   0  0  0  0  0  0  0  0  0  0  0  0
   19.0012  -13.3987    0.0000 C   0  0  0  0  0  0  0  0  0  0  0  0
   18.2923  -13.8154    0.0000 C   0  0  0  0  0  0  0  0  0  0  0  0
   18.2978  -14.6299    0.0000 C   0  0  0  0  0  0  0  0  0  0  0  0
   18.2912  -16.2672    0.0000 N   0  0  0  0  0  0  0  0  0  0  0  0
   21.1364  -14.6158    0.0000 C   0  0  0  0  0  0  0  0  0  0  0  0
   21.8501  -15.0211    0.0000 N   0  0  0  0  0  0  0  0  0  0  0  0
   21.1325  -13.7945    0.0000 O   0  0  0  0  0  0  0  0  0  0  0  0
   22.5600  -14.6091    0.0000 C   0  0  0  0  0  0  0  0  0  0  0  0
   23.2665  -15.0155    0.0000 C   0  0  0  0  0  0  0  0  0  0  0  0
   23.9743  -14.6071    0.0000 N   0  0  0  0  0  0  0  0  0  0  0  0
   23.9746  -13.7854    0.0000 C   0  0  0  0  0  0  0  0  0  0  0  0
   23.2610  -13.3739    0.0000 C   0  0  0  0  0  0  0  0  0  0  0  0
   22.5512  -13.7881    0.0000 C   0  0  0  0  0  0  0  0  0  0  0  0
   23.2680  -15.8369    0.0000 O   0  0  0  0  0  0  0  0  0  0  0  0
   24.6861  -13.3720    0.0000 O   0  0  0  0  0  0  0  0  0  0  0  0
  5  1  2  0
  1  2  1  0
  2  3  2  0
  3  4  1  0
  4  6  2  0
  5  6  1  0
  6  7  1  0
  7  8  2  0
  8  9  1  0
  9 10  2  0
 10  5  1  0
  1 11  1  0
  4 12  1  0
 12 13  1  0
 12 14  2  0
 13 15  1  0
 15 16  1  0
 15 20  1  0
 16 17  1  0
 17 18  1  0
 18 19  1  0
 19 20  1  0
 16 21  2  0
 18 22  2  0
M  END
> <From>
www.bindingDB.org

> <BindingDB Reactant_set_id>
51338530

> <Ligand InChI>
InChI=1S/C15H14N4O3/c16-10-4-3-9(13-8(10)2-1-7-17-13)14(21)18-11-5-6-12(20)19-15(11)22/h1-4,7,11H,5-6,16H2,(H,18,21)(H,19,20,22)

> <Ligand InChI Key>
PGZSDBAKIPEVMI-UHFFFAOYSA-N

> <BindingDB MonomerID>
50541820

> <BindingDB Ligand Name>
CHEMBL4648134

> <Target Name>
Protein cereblon

> <Target Source Organism According to Curator or DataSource>
Human

> <Ki (nM)>
 800

> <IC50 (nM)>


> <Kd (nM)>


> <EC50 (nM)>


> <kon (M-1-s-1)>


> <koff (s-1)>


> <pH>


> <Temp C>


> <Curation/DataSource>
ChEMBL

> <Article DOI>
10.1021/acsmedchemlett.0c00214

> <BindingDB Entry DOI>
10.7270/Q2VH5SCW

> <PMID>
32550984

> <PubChem AID>


> <Patent Number>


> <Authors>
Kargbo, RB

> <Date of publication>
6/11/2020

> <Date in BindingDB>
8/13/2021

> <Institution>
Usona Institute

> <Link to Ligand in BindingDB>
http://www.bindingdb.org/bind/chemsearch/marvin/MolStructure.jsp?monomerid=50541820

> <Link to Ligand-Target Pair in BindingDB>
http://www.bindingdb.org/jsp/dbsearch/PrimarySearch_ki.jsp?energyterm=kJ/mole&tag=pol&polymerid=50007050&target=Protein+cereblon&column=ki&startPg=0&Increment=50&submit=Search

> <Link to Ligand-Target Pair in BindingDB>
http://www.bindingdb.org/jsp/dbsearch/PrimarySearch_ki.jsp?energyterm=kJ/mole&tag=r21&monomerid=50541820&enzyme=Protein+cereblon&column=ki&startPg=0&Increment=50&submit=Search

> <Ligand HET ID in PDB>


> <PDB ID(s) for Ligand-Target Complex>


> <PubChem CID of Ligand>
153384914

> <PubChem SID of Ligand>
442143383

> <ChEBI ID of Ligand>


> <ChEMBL ID of Ligand>


> <DrugBank ID of Ligand>


> <IUPHAR_GRAC ID of Ligand>


> <KEGG ID of Ligand>


> <ZINC ID of Ligand>


> <Number of Protein Chains in Target (bigger than 1 implies a multichain complex)>
1

> <BindingDB Target Chain Sequence>
MAGEGDQQDAAHNMGNHLPLLPAESEEEDEMEVEDQDSKEAKKPNIINFDTSLPTSHTYLGADMEEFHGRTLHDDDSCQVIPVLPQVMMILIPGQTLPLQLFHPQEVSMVRNLIQKDRTFAVLAYSNVQEREAQFGTTAEIYAYREEQDFGIEIVKVKAIGRQRFKVLELRTQSDGIQQAKVQILPECVLPSTMSAVQLESLNKCQIFPSKPVSREDQCSYKWWQKYQKRKFHCANLTSWPRWLYSLYDAETLMDRIKKQLREWDENLKDDSLPSNPIDFSYRVAACLPIDDVLRIQLLKIGSAIQRLRCELDIMNKCTSLCCKQCQETEITTKNEIFSLSLCGPMAAYVNPHGYVHETLTVYKACNLNLIGRPSTEHSWFPGYAWTVAQCKICASHIGWKFTATKKDMSPQKFWGLTRSALLPTIPDTEDEISPDKVILCL

> <PDB ID(s) of Target Chain>
4TZ4,5HXB,5V3O,6UML,6XK9,7LPS,7U8F,8CVP,8D7U,8D7V,8D7W,8D7X,8D7Y,8D7Z,8D80,8D81,8DEY,8OIZ,8OJH

> <UniProt (SwissProt) Recommended Name of Target Chain>
Protein cereblon

> <UniProt (SwissProt) Entry Name of Target Chain>
CRBN_HUMAN

> <UniProt (SwissProt) Primary ID of Target Chain>
Q96SW2

> <UniProt (SwissProt) Secondary ID(s) of Target Chain>
B2R6H4 C9IZA9 C9JAH6 Q6AI62 Q6NVZ0 Q9UHW4

> <UniProt (SwissProt) Alternative ID(s) of Target Chain>


> <UniProt (TrEMBL) Submitted Name of Target Chain>


> <UniProt (TrEMBL) Entry Name of Target Chain>


> <UniProt (TrEMBL) Primary ID of Target Chain>


> <UniProt (TrEMBL) Secondary ID(s) of Target Chain>


> <UniProt (TrEMBL) Alternative ID(s) of Target Chain>


$$$$
 
     RDKit          2D

 37 41  0  0  0  0  0  0  0  0999 V2000
    8.8023  -13.5249    0.0000 C   0  0  0  0  0  0  0  0  0  0  0  0
    8.8010  -14.3528    0.0000 C   0  0  0  0  0  0  0  0  0  0  0  0
    9.5170  -14.7640    0.0000 C   0  0  0  0  0  0  0  0  0  0  0  0
    9.5152  -13.1097    0.0000 C   0  0  0  0  0  0  0  0  0  0  0  0
   10.2274  -13.5212    0.0000 C   0  0  0  0  0  0  0  0  0  0  0  0
   10.2323  -14.3483    0.0000 C   0  0  0  0  0  0  0  0  0  0  0  0
   11.0206  -14.5980    0.0000 C   0  0  0  0  0  0  0  0  0  0  0  0
   11.5046  -13.9253    0.0000 N   0  0  0  0  0  0  0  0  0  0  0  0
   11.0127  -13.2583    0.0000 C   0  0  0  0  0  0  0  0  0  0  0  0
    9.5180  -15.5896    0.0000 N   0  0  0  0  0  0  0  0  0  0  0  0
   11.2661  -12.4715    0.0000 O   0  0  0  0  0  0  0  0  0  0  0  0
   12.3293  -13.9191    0.0000 C   0  0  0  0  0  0  0  0  0  0  0  0
   12.7471  -14.6341    0.0000 C   0  0  0  0  0  0  0  0  0  0  0  0
   13.5692  -14.6312    0.0000 C   0  0  0  0  0  0  0  0  0  0  0  0
   13.9795  -13.9151    0.0000 C   0  0  0  0  0  0  0  0  0  0  0  0
   13.5617  -13.2002    0.0000 N   0  0  0  0  0  0  0  0  0  0  0  0
   12.7334  -13.2014    0.0000 C   0  0  0  0  0  0  0  0  0  0  0  0
   12.3193  -12.4878    0.0000 O   0  0  0  0  0  0  0  0  0  0  0  0
   14.8051  -13.9134    0.0000 O   0  0  0  0  0  0  0  0  0  0  0  0
    8.8030  -16.0053    0.0000 C   0  0  0  0  0  0  0  0  0  0  0  0
    8.8041  -16.8309    0.0000 O   0  0  0  0  0  0  0  0  0  0  0  0
    8.0869  -15.5914    0.0000 C   0  0  0  0  0  0  0  0  0  0  0  0
    7.3719  -16.0071    0.0000 N   0  0  0  0  0  0  0  0  0  0  0  0
    6.6558  -15.5932    0.0000 C   0  0  0  0  0  0  0  0  0  0  0  0
    6.6587  -14.7687    0.0000 C   0  0  0  0  0  0  0  0  0  0  0  0
    5.9435  -14.3590    0.0000 C   0  0  0  0  0  0  0  0  0  0  0  0
    5.2275  -14.7707    0.0000 N   0  0  0  0  0  0  0  0  0  0  0  0
    5.2312  -15.6005    0.0000 C   0  0  0  0  0  0  0  0  0  0  0  0
    5.9470  -16.0107    0.0000 N   0  0  0  0  0  0  0  0  0  0  0  0
    4.5176  -16.0189    0.0000 N   0  0  0  0  0  0  0  0  0  0  0  0
    3.8070  -15.6019    0.0000 C   0  0  0  0  0  0  0  0  0  0  0  0
    4.5262  -16.8397    0.0000 C   0  0  0  0  0  0  0  0  0  0  0  0
    3.8209  -17.2538    0.0000 C   0  0  0  0  0  0  0  0  0  0  0  0
    3.8291  -18.0739    0.0000 C   0  0  0  0  0  0  0  0  0  0  0  0
    4.5454  -18.4800    0.0000 C   0  0  0  0  0  0  0  0  0  0  0  0
    5.2507  -18.0555    0.0000 C   0  0  0  0  0  0  0  0  0  0  0  0
    5.2391  -17.2368    0.0000 C   0  0  0  0  0  0  0  0  0  0  0  0
  1  2  2  0
  2  3  1  0
  3  6  2  0
  5  4  2  0
  4  1  1  0
  5  6  1  0
  6  7  1  0
  7  8  1  0
  8  9  1  0
  9  5  1  0
  3 10  1  0
  9 11  2  0
 12 13  1  0
 12 17  1  0
 13 14  1  0
 14 15  1  0
 15 16  1  0
 16 17  1  0
  8 12  1  0
 17 18  2  0
 15 19  2  0
 10 20  1  0
 20 21  2  0
 20 22  1  0
 22 23  1  0
 23 24  1  0
 24 25  2  0
 25 26  1  0
 26 27  2  0
 27 28  1  0
 28 29  2  0
 29 24  1  0
 28 30  1  0
 30 31  1  0
 30 32  1  0
 32 33  2  0
 33 34  1  0
 34 35  2  0
 35 36  1  0
 36 37  2  0
 37 32  1  0
M  END
> <From>
www.bindingDB.org

> <BindingDB Reactant_set_id>
51338529

> <Ligand InChI>
InChI=1S/C26H25N7O4/c1-32(16-6-3-2-4-7-16)26-27-13-12-21(30-26)28-14-23(35)29-19-9-5-8-17-18(19)15-33(25(17)37)20-10-11-22(34)31-24(20)36/h2-9,12-13,20H,10-11,14-15H2,1H3,(H,29,35)(H,27,28,30)(H,31,34,36)

> <Ligand InChI Key>
BBLBXFIBZWEJOP-UHFFFAOYSA-N

> <BindingDB MonomerID>
50541819

> <BindingDB Ligand Name>
CHEMBL4645406::US11530219, Compound 17

> <Target Name>
Protein cereblon

> <Target Source Organism According to Curator or DataSource>
Human

> <Ki (nM)>
 970

> <IC50 (nM)>


> <Kd (nM)>


> <EC50 (nM)>


> <kon (M-1-s-1)>


> <koff (s-1)>


> <pH>


> <Temp C>


> <Curation/DataSource>
ChEMBL

> <Article DOI>
10.1021/acsmedchemlett.0c00214

> <BindingDB Entry DOI>
10.7270/Q2VH5SCW

> <PMID>
32550984

> <PubChem AID>


> <Patent Number>


> <Authors>
Kargbo, RB

> <Date of publication>
6/11/2020

> <Date in BindingDB>
8/13/2021

> <Institution>
Usona Institute

> <Link to Ligand in BindingDB>
http://www.bindingdb.org/bind/chemsearch/marvin/MolStructure.jsp?monomerid=50541819

> <Link to Ligand-Target Pair in BindingDB>
http://www.bindingdb.org/jsp/dbsearch/PrimarySearch_ki.jsp?energyterm=kJ/mole&tag=pol&polymerid=50007050&target=Protein+cereblon&column=ki&startPg=0&Increment=50&submit=Search

> <Link to Ligand-Target Pair in BindingDB>
http://www.bindingdb.org/jsp/dbsearch/PrimarySearch_ki.jsp?energyterm=kJ/mole&tag=r21&monomerid=50541819&enzyme=Protein+cereblon&column=ki&startPg=0&Increment=50&submit=Search

> <Ligand HET ID in PDB>


> <PDB ID(s) for Ligand-Target Complex>


> <PubChem CID of Ligand>
153385145

> <PubChem SID of Ligand>
442143382

> <ChEBI ID of Ligand>


> <ChEMBL ID of Ligand>


> <DrugBank ID of Ligand>


> <IUPHAR_GRAC ID of Ligand>


> <KEGG ID of Ligand>


> <ZINC ID of Ligand>


> <Number of Protein Chains in Target (bigger than 1 implies a multichain complex)>
1

> <BindingDB Target Chain Sequence>
MAGEGDQQDAAHNMGNHLPLLPAESEEEDEMEVEDQDSKEAKKPNIINFDTSLPTSHTYLGADMEEFHGRTLHDDDSCQVIPVLPQVMMILIPGQTLPLQLFHPQEVSMVRNLIQKDRTFAVLAYSNVQEREAQFGTTAEIYAYREEQDFGIEIVKVKAIGRQRFKVLELRTQSDGIQQAKVQILPECVLPSTMSAVQLESLNKCQIFPSKPVSREDQCSYKWWQKYQKRKFHCANLTSWPRWLYSLYDAETLMDRIKKQLREWDENLKDDSLPSNPIDFSYRVAACLPIDDVLRIQLLKIGSAIQRLRCELDIMNKCTSLCCKQCQETEITTKNEIFSLSLCGPMAAYVNPHGYVHETLTVYKACNLNLIGRPSTEHSWFPGYAWTVAQCKICASHIGWKFTATKKDMSPQKFWGLTRSALLPTIPDTEDEISPDKVILCL

> <PDB ID(s) of Target Chain>
4TZ4,5HXB,5V3O,6UML,6XK9,7LPS,7U8F,8CVP,8D7U,8D7V,8D7W,8D7X,8D7Y,8D7Z,8D80,8D81,8DEY,8OIZ,8OJH

> <UniProt (SwissProt) Recommended Name of Target Chain>
Protein cereblon

> <UniProt (SwissProt) Entry Name of Target Chain>
CRBN_HUMAN

> <UniProt (SwissProt) Primary ID of Target Chain>
Q96SW2

> <UniProt (SwissProt) Secondary ID(s) of Target Chain>
B2R6H4 C9IZA9 C9JAH6 Q6AI62 Q6NVZ0 Q9UHW4

> <UniProt (SwissProt) Alternative ID(s) of Target Chain>


> <UniProt (TrEMBL) Submitted Name of Target Chain>


> <UniProt (TrEMBL) Entry Name of Target Chain>


> <UniProt (TrEMBL) Primary ID of Target Chain>


> <UniProt (TrEMBL) Secondary ID(s) of Target Chain>


> <UniProt (TrEMBL) Alternative ID(s) of Target Chain>


$$$$
 
     RDKit          2D

 20 21  0  0  0  0  0  0  0  0999 V2000
   -2.5016   -0.2043    0.0000 C   0  0  0  0  0  0  0  0  0  0  0  0
   -1.7871    0.2081    0.0000 C   0  0  0  0  0  0  0  0  0  0  0  0
   -1.0727   -0.2043    0.0000 C   0  0  0  0  0  0  0  0  0  0  0  0
   -1.0727   -1.0294    0.0000 C   0  0  0  0  0  0  0  0  0  0  0  0
   -1.7871   -1.4418    0.0000 N   0  0  0  0  0  0  0  0  0  0  0  0
   -2.5016   -1.0294    0.0000 C   0  0  0  0  0  0  0  0  0  0  0  0
   -3.2159   -1.4417    0.0000 O   0  0  0  0  0  0  0  0  0  0  0  0
   -0.3584   -1.4417    0.0000 O   0  0  0  0  0  0  0  0  0  0  0  0
   -0.3584    0.2080    0.0000 C   0  0  0  0  0  0  0  0  0  0  0  0
    0.3558   -0.2043    0.0000 S   0  0  0  0  0  0  0  0  0  0  0  0
    1.0700    0.2080    0.0000 C   0  0  0  0  0  0  0  0  0  0  0  0
    1.0703    1.0328    0.0000 C   0  0  0  0  0  0  0  0  0  0  0  0
    1.7828    1.4432    0.0000 C   0  0  0  0  0  0  0  0  0  0  0  0
    2.4972    1.0308    0.0000 C   0  0  0  0  0  0  0  0  0  0  0  0
    2.4988    0.2101    0.0000 C   0  0  0  0  0  0  0  0  0  0  0  0
    1.7874   -0.2061    0.0000 C   0  0  0  0  0  0  0  0  0  0  0  0
    1.7874   -1.0308    0.0000 C   0  0  0  0  0  0  0  0  0  0  0  0
    2.5016   -1.4432    0.0000 O   0  0  0  0  0  0  0  0  0  0  0  0
    1.0731   -1.4432    0.0000 O   0  0  0  0  0  0  0  0  0  0  0  0
    3.2159   -1.0308    0.0000 C   0  0  0  0  0  0  0  0  0  0  0  0
  1  2  1  0
  3  2  1  0
  4  3  1  0
  5  4  1  0
  1  6  1  0
  6  5  1  0
  6  7  2  0
  4  8  2  0
  3  9  1  0
  9 10  1  0
 10 11  1  0
 12 11  2  0
 13 12  1  0
 14 13  2  0
 15 14  1  0
 16 15  2  0
 11 16  1  0
 16 17  1  0
 17 18  1  0
 17 19  2  0
 18 20  1  0
M  END
> <From>
www.bindingDB.org

> <BindingDB Reactant_set_id>
51553733

> <Ligand InChI>
InChI=1S/C14H15NO4S/c1-19-14(18)10-4-2-3-5-11(10)20-8-9-6-7-12(16)15-13(9)17/h2-5,9H,6-8H2,1H3,(H,15,16,17)

> <Ligand InChI Key>
SIOFICOBFVEIDG-UHFFFAOYSA-N

> <BindingDB MonomerID>
50625126

> <BindingDB Ligand Name>
CHEMBL5413097

> <Target Name>
Protein cereblon

> <Target Source Organism According to Curator or DataSource>
Homo sapiens

> <Ki (nM)>
 1100

> <IC50 (nM)>


> <Kd (nM)>


> <EC50 (nM)>


> <kon (M-1-s-1)>


> <koff (s-1)>


> <pH>


> <Temp C>


> <Curation/DataSource>
ChEMBL

> <Article DOI>
10.1016/j.ejmech.2022.114990

> <BindingDB Entry DOI>
10.7270/Q2F1944V

> <PMID>
36476642

> <PubChem AID>


> <Patent Number>


> <Authors>
n/a

> <Date of publication>
1/15/2023

> <Date in BindingDB>
12/18/2024

> <Institution>
n/a

> <Link to Ligand in BindingDB>
http://www.bindingdb.org/bind/chemsearch/marvin/MolStructure.jsp?monomerid=50625126

> <Link to Ligand-Target Pair in BindingDB>
http://www.bindingdb.org/jsp/dbsearch/PrimarySearch_ki.jsp?energyterm=kJ/mole&tag=pol&polymerid=50007050&target=Protein+cereblon&column=ki&startPg=0&Increment=50&submit=Search

> <Link to Ligand-Target Pair in BindingDB>
http://www.bindingdb.org/jsp/dbsearch/PrimarySearch_ki.jsp?energyterm=kJ/mole&tag=r21&monomerid=50625126&enzyme=Protein+cereblon&column=ki&startPg=0&Increment=50&submit=Search

> <Ligand HET ID in PDB>


> <PDB ID(s) for Ligand-Target Complex>


> <PubChem CID>


> <PubChem SID>


> <ChEBI ID of Ligand>


> <ChEMBL ID of Ligand>


> <DrugBank ID of Ligand>


> <IUPHAR_GRAC ID of Ligand>


> <KEGG ID of Ligand>


> <ZINC ID of Ligand>


> <Number of Protein Chains in Target (bigger than 1 implies a multichain complex)>
1

> <BindingDB Target Chain Sequence>
MAGEGDQQDAAHNMGNHLPLLPAESEEEDEMEVEDQDSKEAKKPNIINFDTSLPTSHTYLGADMEEFHGRTLHDDDSCQVIPVLPQVMMILIPGQTLPLQLFHPQEVSMVRNLIQKDRTFAVLAYSNVQEREAQFGTTAEIYAYREEQDFGIEIVKVKAIGRQRFKVLELRTQSDGIQQAKVQILPECVLPSTMSAVQLESLNKCQIFPSKPVSREDQCSYKWWQKYQKRKFHCANLTSWPRWLYSLYDAETLMDRIKKQLREWDENLKDDSLPSNPIDFSYRVAACLPIDDVLRIQLLKIGSAIQRLRCELDIMNKCTSLCCKQCQETEITTKNEIFSLSLCGPMAAYVNPHGYVHETLTVYKACNLNLIGRPSTEHSWFPGYAWTVAQCKICASHIGWKFTATKKDMSPQKFWGLTRSALLPTIPDTEDEISPDKVILCL

> <PDB ID(s) of Target Chain>
8TNR,8TNQ,8TNP,8D81,8D80,8D7Z,8D7Y,8D7X,8D7W,8D7V,8D7U,8CVP,9DQD,8UH6,6BOY,6BNB,6BN9,6BN8,6BN7,6XK9,6UML,5V3O,5HXB,7U8F,8OJH,8OIZ,7LPS,4TZ4,9DJX,9DJT,8U17,8U16,8U15,8TZX,8DEY,9CUO,4M91

> <UniProt (SwissProt) Recommended Name of Target Chain>
Protein cereblon

> <UniProt (SwissProt) Entry Name of Target Chain>
CRBN_HUMAN

> <UniProt (SwissProt) Primary ID of Target Chain>
Q96SW2

> <UniProt (SwissProt) Secondary ID(s) of Target Chain>
B2R6H4 C9IZA9 C9JAH6 Q6AI62 Q6NVZ0 Q9UHW4

> <UniProt (SwissProt) Alternative ID(s) of Target Chain>


> <UniProt (TrEMBL) Submitted Name of Target Chain>


> <UniProt (TrEMBL) Entry Name of Target Chain>


> <UniProt (TrEMBL) Primary ID of Target Chain>


> <UniProt (TrEMBL) Secondary ID(s) of Target Chain>


> <UniProt (TrEMBL) Alternative ID(s) of Target Chain>


$$$$
 
     RDKit          2D

 23 26  0  0  0  0  0  0  0  0999 V2000
   -1.9485    0.4121    0.0000 C   0  0  0  0  0  0  0  0  0  0  0  0
   -1.2339    0.8244    0.0000 C   0  0  0  0  0  0  0  0  0  0  0  0
   -0.5219    0.4126    0.0000 C   0  0  0  0  0  0  0  0  0  0  0  0
   -0.5219   -0.4126    0.0000 C   0  0  0  0  0  0  0  0  0  0  0  0
   -1.2321   -0.8243    0.0000 C   0  0  0  0  0  0  0  0  0  0  0  0
   -1.9485   -0.4163    0.0000 C   0  0  0  0  0  0  0  0  0  0  0  0
    0.2627   -0.6675    0.0000 C   0  0  0  0  0  0  0  0  0  0  0  0
    0.2627    0.6675    0.0000 C   0  0  0  0  0  0  0  0  0  0  0  0
    0.7477   -0.0001    0.0000 N   0  0  0  0  0  0  0  0  0  0  0  0
    1.5729   -0.0001    0.0000 C   0  0  0  0  0  0  0  0  0  0  0  0
    1.9855    0.7145    0.0000 C   0  0  0  0  0  0  0  0  0  0  0  0
    2.8106    0.7145    0.0000 C   0  0  0  0  0  0  0  0  0  0  0  0
    3.2232   -0.0001    0.0000 C   0  0  0  0  0  0  0  0  0  0  0  0
    2.8106   -0.7146    0.0000 N   0  0  0  0  0  0  0  0  0  0  0  0
    1.9855   -0.7146    0.0000 C   0  0  0  0  0  0  0  0  0  0  0  0
    4.0484   -0.0001    0.0000 O   0  0  0  0  0  0  0  0  0  0  0  0
    1.5729   -1.4293    0.0000 O   0  0  0  0  0  0  0  0  0  0  0  0
    0.4763   -1.4646    0.0000 O   0  0  0  0  0  0  0  0  0  0  0  0
    0.4763    1.4646    0.0000 O   0  0  0  0  0  0  0  0  0  0  0  0
   -2.7363    0.6682    0.0000 C   0  0  0  0  0  0  0  0  0  0  0  0
   -2.7363   -0.6722    0.0000 C   0  0  0  0  0  0  0  0  0  0  0  0
   -3.2233   -0.0019    0.0000 N   0  0  0  0  0  0  0  0  0  0  0  0
   -4.0484   -0.0019    0.0000 C   0  0  0  0  0  0  0  0  0  0  0  0
  2  1  2  0
  3  2  1  0
  4  3  2  0
  5  4  1  0
  1  6  1  0
  6  5  2  0
  4  7  1  0
  3  8  1  0
  8  9  1  0
  9  7  1  0
 10  9  1  0
 10 11  1  0
 12 11  1  0
 13 12  1  0
 14 13  1  0
 10 15  1  0
 15 14  1  0
 13 16  2  0
 15 17  2  0
  7 18  2  0
  8 19  2  0
  1 20  1  0
  6 21  1  0
 21 22  1  0
 22 20  1  0
 22 23  1  0
M  END
> <From>
www.bindingDB.org

> <BindingDB Reactant_set_id>
51563803

> <Ligand InChI>
InChI=1S/C16H15N3O4/c1-18-6-8-4-10-11(5-9(8)7-18)16(23)19(15(10)22)12-2-3-13(20)17-14(12)21/h4-5,12H,2-3,6-7H2,1H3,(H,17,20,21)

> <Ligand InChI Key>
RNXFHBLKGAWWBL-UHFFFAOYSA-N

> <BindingDB MonomerID>
50628761

> <BindingDB Ligand Name>
CHEMBL5423392

> <Target Name>
Protein cereblon

> <Target Source Organism According to Curator or DataSource>
Homo sapiens

> <Ki (nM)>
 1400

> <IC50 (nM)>


> <Kd (nM)>


> <EC50 (nM)>


> <kon (M-1-s-1)>


> <koff (s-1)>


> <pH>


> <Temp C>


> <Curation/DataSource>
ChEMBL

> <Article DOI>
10.1021/acs.jmedchem.3c01264

> <BindingDB Entry DOI>
10.7270/Q2MC94FW

> <PMID>
37683104

> <PubChem AID>


> <Patent Number>


> <Authors>
Xiang, W; Zhao, L; Han, X; Xu, T; Kregel, S; Wang, M; Miao, B; Qin, C; Wang, M; McEachern, D; Lu, J; Bai, L; Yang, CY; Kirchhoff, PD; Takyi-Williams, J; Wang, L; Wen, B; Sun, D; Ator, M; Mckean, R; Chinnaiyan, AM; Wang, S

> <Date of publication>
9/28/2023

> <Date in BindingDB>
12/19/2024

> <Institution>
University of Michigan

> <Link to Ligand in BindingDB>
http://www.bindingdb.org/bind/chemsearch/marvin/MolStructure.jsp?monomerid=50628761

> <Link to Ligand-Target Pair in BindingDB>
http://www.bindingdb.org/jsp/dbsearch/PrimarySearch_ki.jsp?energyterm=kJ/mole&tag=pol&polymerid=50007050&target=Protein+cereblon&column=ki&startPg=0&Increment=50&submit=Search

> <Link to Ligand-Target Pair in BindingDB>
http://www.bindingdb.org/jsp/dbsearch/PrimarySearch_ki.jsp?energyterm=kJ/mole&tag=r21&monomerid=50628761&enzyme=Protein+cereblon&column=ki&startPg=0&Increment=50&submit=Search

> <Ligand HET ID in PDB>


> <PDB ID(s) for Ligand-Target Complex>


> <PubChem CID of Ligand>
156709667

> <PubChem SID of Ligand>
505046733

> <ChEBI ID of Ligand>


> <ChEMBL ID of Ligand>


> <DrugBank ID of Ligand>


> <IUPHAR_GRAC ID of Ligand>


> <KEGG ID of Ligand>


> <ZINC ID of Ligand>


> <Number of Protein Chains in Target (bigger than 1 implies a multichain complex)>
1

> <BindingDB Target Chain Sequence>
MAGEGDQQDAAHNMGNHLPLLPAESEEEDEMEVEDQDSKEAKKPNIINFDTSLPTSHTYLGADMEEFHGRTLHDDDSCQVIPVLPQVMMILIPGQTLPLQLFHPQEVSMVRNLIQKDRTFAVLAYSNVQEREAQFGTTAEIYAYREEQDFGIEIVKVKAIGRQRFKVLELRTQSDGIQQAKVQILPECVLPSTMSAVQLESLNKCQIFPSKPVSREDQCSYKWWQKYQKRKFHCANLTSWPRWLYSLYDAETLMDRIKKQLREWDENLKDDSLPSNPIDFSYRVAACLPIDDVLRIQLLKIGSAIQRLRCELDIMNKCTSLCCKQCQETEITTKNEIFSLSLCGPMAAYVNPHGYVHETLTVYKACNLNLIGRPSTEHSWFPGYAWTVAQCKICASHIGWKFTATKKDMSPQKFWGLTRSALLPTIPDTEDEISPDKVILCL

> <PDB ID(s) of Target Chain>
8TNR,8TNQ,8TNP,8D81,8D80,8D7Z,8D7Y,8D7X,8D7W,8D7V,8D7U,8CVP,9DQD,8UH6,6BOY,6BNB,6BN9,6BN8,6BN7,6XK9,6UML,5V3O,5HXB,7U8F,8OJH,8OIZ,7LPS,4TZ4,9DJX,9DJT,8U17,8U16,8U15,8TZX,8DEY,9CUO,4M91

> <UniProt (SwissProt) Recommended Name of Target Chain>
Protein cereblon

> <UniProt (SwissProt) Entry Name of Target Chain>
CRBN_HUMAN

> <UniProt (SwissProt) Primary ID of Target Chain>
Q96SW2

> <UniProt (SwissProt) Secondary ID(s) of Target Chain>
B2R6H4 C9IZA9 C9JAH6 Q6AI62 Q6NVZ0 Q9UHW4

> <UniProt (SwissProt) Alternative ID(s) of Target Chain>


> <UniProt (TrEMBL) Submitted Name of Target Chain>


> <UniProt (TrEMBL) Entry Name of Target Chain>


> <UniProt (TrEMBL) Primary ID of Target Chain>


> <UniProt (TrEMBL) Secondary ID(s) of Target Chain>


> <UniProt (TrEMBL) Alternative ID(s) of Target Chain>


$$$$
216326
  Mrv0541 01031813182D          

 19 21  0  0  1  0            999 V2000
    4.1147   -1.6769    0.0000 O   0  0  0  0  0  0  0  0  0  0  0  0
    5.1652    1.2004    0.0000 O   0  0  0  0  0  0  0  0  0  0  0  0
    7.6402   -0.2289    0.0000 O   0  0  0  0  0  0  0  0  0  0  0  0
    4.3402   -0.2289    0.0000 N   0  0  0  0  0  0  0  0  0  0  0  0
    6.4025    0.4857    0.0000 N   0  0  0  0  0  0  0  0  0  0  0  0
    2.3633    1.4212    0.0000 N   0  0  0  0  0  0  0  0  0  0  0  0
    5.1652   -0.2289    0.0000 C   0  0  0  0  0  0  0  0  0  0  0  0
    5.5775   -0.9433    0.0000 C   0  0  0  0  0  0  0  0  0  0  0  0
    3.8585    0.4351    0.0000 C   0  0  0  0  0  0  0  0  0  0  0  0
    3.0778    0.1836    0.0000 C   0  0  0  0  0  0  0  0  0  0  0  0
    3.8585   -0.8928    0.0000 C   0  0  0  0  0  0  0  0  0  0  0  0
    6.4025   -0.9433    0.0000 C   0  0  0  0  0  0  0  0  0  0  0  0
    3.0778   -0.6414    0.0000 C   0  0  0  0  0  0  0  0  0  0  0  0
    5.5775    0.4857    0.0000 C   0  0  0  0  0  0  0  0  0  0  0  0
    6.8152   -0.2289    0.0000 C   0  0  0  0  0  0  0  0  0  0  0  0
    2.3633    0.5962    0.0000 C   0  0  0  0  0  0  0  0  0  0  0  0
    2.3633   -1.0539    0.0000 C   0  0  0  0  0  0  0  0  0  0  0  0
    1.6488    0.1836    0.0000 C   0  0  0  0  0  0  0  0  0  0  0  0
    1.6488   -0.6414    0.0000 C   0  0  0  0  0  0  0  0  0  0  0  0
  1 11  2  0  0  0  0
  2 14  2  0  0  0  0
  3 15  2  0  0  0  0
  4  7  1  0  0  0  0
  4  9  1  0  0  0  0
  4 11  1  0  0  0  0
  5 14  1  0  0  0  0
  5 15  1  0  0  0  0
  6 16  1  0  0  0  0
  7  8  1  0  0  0  0
  7 14  1  0  0  0  0
  8 12  1  0  0  0  0
  9 10  1  0  0  0  0
 10 13  4  0  0  0  0
 10 16  4  0  0  0  0
 11 13  1  0  0  0  0
 12 15  1  0  0  0  0
 13 17  4  0  0  0  0
 16 18  4  0  0  0  0
 17 19  4  0  0  0  0
 18 19  4  0  0  0  0
M  END
> <From>
www.bindingDB.org

> <BindingDB Reactant_set_id>
51338526

> <Ligand InChI>
InChI=1S/C13H13N3O3/c14-9-3-1-2-7-8(9)6-16(13(7)19)10-4-5-11(17)15-12(10)18/h1-3,10H,4-6,14H2,(H,15,17,18)

> <Ligand InChI Key>
GOTYRUGSSMKFNF-UHFFFAOYSA-N

> <BindingDB MonomerID>
65454

> <BindingDB Ligand Name>
191732-72-6::CC-5013::Lenalidomide::Revimid::Revlimid::US11530219, Compound Lenalidomide::US9694015, 6.1

> <Target Name>
Protein cereblon

> <Target Source Organism According to Curator or DataSource>
Human

> <Ki (nM)>
 1490

> <IC50 (nM)>


> <Kd (nM)>


> <EC50 (nM)>


> <kon (M-1-s-1)>


> <koff (s-1)>


> <pH>


> <Temp C>


> <Curation/DataSource>
ChEMBL

> <Article DOI>
10.1021/acsmedchemlett.0c00214

> <BindingDB Entry DOI>
10.7270/Q2VH5SCW

> <PMID>
32550984

> <PubChem AID>


> <Patent Number>


> <Authors>
Kargbo, RB

> <Date of publication>
6/11/2020

> <Date in BindingDB>
8/13/2021

> <Institution>
Usona Institute

> <Link to Ligand in BindingDB>
http://www.bindingdb.org/bind/chemsearch/marvin/MolStructure.jsp?monomerid=65454

> <Link to Ligand-Target Pair in BindingDB>
http://www.bindingdb.org/jsp/dbsearch/PrimarySearch_ki.jsp?energyterm=kJ/mole&tag=pol&polymerid=50007050&target=Protein+cereblon&column=ki&startPg=0&Increment=50&submit=Search

> <Link to Ligand-Target Pair in BindingDB>
http://www.bindingdb.org/jsp/dbsearch/PrimarySearch_ki.jsp?energyterm=kJ/mole&tag=r21&monomerid=65454&enzyme=Protein+cereblon&column=ki&startPg=0&Increment=50&submit=Search

> <Ligand HET ID in PDB>
LVY

> <PDB ID(s) for Ligand-Target Complex>
4CI2,5FQD,4V30,4TZ4

> <PubChem CID of Ligand>
216326

> <PubChem SID of Ligand>
350083085

> <ChEBI ID of Ligand>


> <ChEMBL ID of Ligand>


> <DrugBank ID of Ligand>
DB00480

> <IUPHAR_GRAC ID of Ligand>


> <KEGG ID of Ligand>


> <ZINC ID of Ligand>
ZINC02508407

> <Number of Protein Chains in Target (bigger than 1 implies a multichain complex)>
1

> <BindingDB Target Chain Sequence>
MAGEGDQQDAAHNMGNHLPLLPAESEEEDEMEVEDQDSKEAKKPNIINFDTSLPTSHTYLGADMEEFHGRTLHDDDSCQVIPVLPQVMMILIPGQTLPLQLFHPQEVSMVRNLIQKDRTFAVLAYSNVQEREAQFGTTAEIYAYREEQDFGIEIVKVKAIGRQRFKVLELRTQSDGIQQAKVQILPECVLPSTMSAVQLESLNKCQIFPSKPVSREDQCSYKWWQKYQKRKFHCANLTSWPRWLYSLYDAETLMDRIKKQLREWDENLKDDSLPSNPIDFSYRVAACLPIDDVLRIQLLKIGSAIQRLRCELDIMNKCTSLCCKQCQETEITTKNEIFSLSLCGPMAAYVNPHGYVHETLTVYKACNLNLIGRPSTEHSWFPGYAWTVAQCKICASHIGWKFTATKKDMSPQKFWGLTRSALLPTIPDTEDEISPDKVILCL

> <PDB ID(s) of Target Chain>
4TZ4,5HXB,5V3O,6UML,6XK9,7LPS,7U8F,8CVP,8D7U,8D7V,8D7W,8D7X,8D7Y,8D7Z,8D80,8D81,8DEY,8OIZ,8OJH

> <UniProt (SwissProt) Recommended Name of Target Chain>
Protein cereblon

> <UniProt (SwissProt) Entry Name of Target Chain>
CRBN_HUMAN

> <UniProt (SwissProt) Primary ID of Target Chain>
Q96SW2

> <UniProt (SwissProt) Secondary ID(s) of Target Chain>
B2R6H4 C9IZA9 C9JAH6 Q6AI62 Q6NVZ0 Q9UHW4

> <UniProt (SwissProt) Alternative ID(s) of Target Chain>


> <UniProt (TrEMBL) Submitted Name of Target Chain>


> <UniProt (TrEMBL) Entry Name of Target Chain>


> <UniProt (TrEMBL) Primary ID of Target Chain>


> <UniProt (TrEMBL) Secondary ID(s) of Target Chain>


> <UniProt (TrEMBL) Alternative ID(s) of Target Chain>


$$$$
 
  Mrv0541 11231401562D          

 19 21  0  0  0  0            999 V2000
    0.8646  -22.9723    0.0000 C   0  0  0  0  0  0  0  0  0  0  0  0
    1.6916  -22.9723    0.0000 C   0  0  0  0  0  0  0  0  0  0  0  0
    2.1028  -22.2600    0.0000 C   0  0  0  0  0  0  0  0  0  0  0  0
    1.6916  -21.5432    0.0000 N   0  0  0  0  0  0  0  0  0  0  0  0
    0.8646  -21.5432    0.0000 C   0  0  0  0  0  0  0  0  0  0  0  0
    0.4488  -22.2600    0.0000 C   0  0  0  0  0  0  0  0  0  0  0  0
   -0.3797  -22.2649    0.0000 N   0  0  0  0  0  0  0  0  0  0  0  0
   -0.8667  -21.5966    0.0000 C   0  0  0  0  0  0  0  0  0  0  0  0
   -0.8649  -22.9346    0.0000 C   0  0  0  0  0  0  0  0  0  0  0  0
   -1.6518  -22.6803    0.0000 C   0  0  0  0  0  0  0  0  0  0  0  0
   -1.6493  -21.8553    0.0000 C   0  0  0  0  0  0  0  0  0  0  0  0
   -2.3613  -21.4425    0.0000 C   0  0  0  0  0  0  0  0  0  0  0  0
   -3.0763  -21.8535    0.0000 C   0  0  0  0  0  0  0  0  0  0  0  0
   -3.0748  -22.6816    0.0000 C   0  0  0  0  0  0  0  0  0  0  0  0
   -2.3622  -23.0907    0.0000 C   0  0  0  0  0  0  0  0  0  0  0  0
   -0.6138  -20.8092    0.0000 O   0  0  0  0  0  0  0  0  0  0  0  0
   -0.6082  -23.7207    0.0000 O   0  0  0  0  0  0  0  0  0  0  0  0
    0.4518  -20.8266    0.0000 O   0  0  0  0  0  0  0  0  0  0  0  0
    2.9298  -22.2612    0.0000 O   0  0  0  0  0  0  0  0  0  0  0  0
  9  7  1  0  0  0  0
  6  7  1  0  0  0  0
  2  3  1  0  0  0  0
  3  4  1  0  0  0  0
 10 11  2  0  0  0  0
  4  5  1  0  0  0  0
 11 12  1  0  0  0  0
  5  6  1  0  0  0  0
 12 13  2  0  0  0  0
  7  8  1  0  0  0  0
 13 14  1  0  0  0  0
 14 15  2  0  0  0  0
 15 10  1  0  0  0  0
  1  2  1  0  0  0  0
  8 16  2  0  0  0  0
  1  6  1  0  0  0  0
  9 17  2  0  0  0  0
  8 11  1  0  0  0  0
  5 18  2  0  0  0  0
 10  9  1  0  0  0  0
  3 19  2  0  0  0  0
M  END
> <From>
www.bindingDB.org

> <BindingDB Reactant_set_id>
51563800

> <Ligand InChI>
InChI=1S/C13H10N2O4/c16-10-6-5-9(11(17)14-10)15-12(18)7-3-1-2-4-8(7)13(15)19/h1-4,9H,5-6H2,(H,14,16,17)

> <Ligand InChI Key>
UEJJHQNACJXSKW-UHFFFAOYSA-N

> <BindingDB MonomerID>
50070114

> <BindingDB Ligand Name>
(+/-)-thalidomide::2-(2,6-Dioxo-piperidin-3-yl)-isoindole-1,3-dione::2-(2,6-dioxopiperidin-3-yl)isoindoline-1,3-dione::CHEMBL468::K-17::THALIDOMIDE::Thalomid::US11059801, Compound D-62::[(R,S)-2-(2,6-dioxo-3-piperidinyl)-1H-isoindole-1,3(2H)-dione

> <Target Name>
Protein cereblon

> <Target Source Organism According to Curator or DataSource>
Homo sapiens

> <Ki (nM)>
 1800

> <IC50 (nM)>


> <Kd (nM)>


> <EC50 (nM)>


> <kon (M-1-s-1)>


> <koff (s-1)>


> <pH>


> <Temp C>


> <Curation/DataSource>
ChEMBL

> <Article DOI>
10.1021/acs.jmedchem.3c01264

> <BindingDB Entry DOI>
10.7270/Q2MC94FW

> <PMID>
37683104

> <PubChem AID>


> <Patent Number>


> <Authors>
n/a

> <Date of publication>
9/28/2023

> <Date in BindingDB>
12/19/2024

> <Institution>
n/a

> <Link to Ligand in BindingDB>
http://www.bindingdb.org/bind/chemsearch/marvin/MolStructure.jsp?monomerid=50070114

> <Link to Ligand-Target Pair in BindingDB>
http://www.bindingdb.org/jsp/dbsearch/PrimarySearch_ki.jsp?energyterm=kJ/mole&tag=pol&polymerid=50007050&target=Protein+cereblon&column=ki&startPg=0&Increment=50&submit=Search

> <Link to Ligand-Target Pair in BindingDB>
http://www.bindingdb.org/jsp/dbsearch/PrimarySearch_ki.jsp?energyterm=kJ/mole&tag=r21&monomerid=50070114&enzyme=Protein+cereblon&column=ki&startPg=0&Increment=50&submit=Search

> <Ligand HET ID in PDB>
EF2    

> <PDB ID(s) for Ligand-Target Complex>
4CI1,8BC7,5AMI,5AMH,7BQU,5YIZ,7PSO,4V32,4V2Y,5OH1,5AMK,5AMJ,6R13,6R12,6R19,6R18,6R1C,6R1A,6R1W,6R0U,6R0S,5YJ0,4TZC,8OU3

> <PubChem CID of Ligand>
5426

> <PubChem SID of Ligand>
103964042

> <ChEBI ID of Ligand>
74947

> <ChEMBL ID of Ligand>
CHEMBL468

> <DrugBank ID of Ligand>
DB01041

> <IUPHAR_GRAC ID of Ligand>
7327

> <KEGG ID of Ligand>
C07910

> <ZINC ID of Ligand>
ZINC01530948

> <Number of Protein Chains in Target (bigger than 1 implies a multichain complex)>
1

> <BindingDB Target Chain Sequence>
MAGEGDQQDAAHNMGNHLPLLPAESEEEDEMEVEDQDSKEAKKPNIINFDTSLPTSHTYLGADMEEFHGRTLHDDDSCQVIPVLPQVMMILIPGQTLPLQLFHPQEVSMVRNLIQKDRTFAVLAYSNVQEREAQFGTTAEIYAYREEQDFGIEIVKVKAIGRQRFKVLELRTQSDGIQQAKVQILPECVLPSTMSAVQLESLNKCQIFPSKPVSREDQCSYKWWQKYQKRKFHCANLTSWPRWLYSLYDAETLMDRIKKQLREWDENLKDDSLPSNPIDFSYRVAACLPIDDVLRIQLLKIGSAIQRLRCELDIMNKCTSLCCKQCQETEITTKNEIFSLSLCGPMAAYVNPHGYVHETLTVYKACNLNLIGRPSTEHSWFPGYAWTVAQCKICASHIGWKFTATKKDMSPQKFWGLTRSALLPTIPDTEDEISPDKVILCL

> <PDB ID(s) of Target Chain>
8TNR,8TNQ,8TNP,8D81,8D80,8D7Z,8D7Y,8D7X,8D7W,8D7V,8D7U,8CVP,9DQD,8UH6,6BOY,6BNB,6BN9,6BN8,6BN7,6XK9,6UML,5V3O,5HXB,7U8F,8OJH,8OIZ,7LPS,4TZ4,9DJX,9DJT,8U17,8U16,8U15,8TZX,8DEY,9CUO,4M91

> <UniProt (SwissProt) Recommended Name of Target Chain>
Protein cereblon

> <UniProt (SwissProt) Entry Name of Target Chain>
CRBN_HUMAN

> <UniProt (SwissProt) Primary ID of Target Chain>
Q96SW2

> <UniProt (SwissProt) Secondary ID(s) of Target Chain>
B2R6H4 C9IZA9 C9JAH6 Q6AI62 Q6NVZ0 Q9UHW4

> <UniProt (SwissProt) Alternative ID(s) of Target Chain>


> <UniProt (TrEMBL) Submitted Name of Target Chain>


> <UniProt (TrEMBL) Entry Name of Target Chain>


> <UniProt (TrEMBL) Primary ID of Target Chain>


> <UniProt (TrEMBL) Secondary ID(s) of Target Chain>


> <UniProt (TrEMBL) Alternative ID(s) of Target Chain>


$$$$
 
     RDKit          2D

 22 24  0  0  0  0  0  0  0  0999 V2000
   30.3491  -16.4411    0.0000 C   0  0  0  0  0  0  0  0  0  0  0  0
   31.0612  -16.8542    0.0000 C   0  0  0  0  0  0  0  0  0  0  0  0
   31.7750  -16.4406    0.0000 C   0  0  0  0  0  0  0  0  0  0  0  0
   31.7722  -15.6138    0.0000 C   0  0  0  0  0  0  0  0  0  0  0  0
   30.3502  -15.6174    0.0000 C   0  0  0  0  0  0  0  0  0  0  0  0
   31.0584  -15.2097    0.0000 C   0  0  0  0  0  0  0  0  0  0  0  0
   31.0564  -14.3939    0.0000 N   0  0  0  0  0  0  0  0  0  0  0  0
   30.3469  -13.9847    0.0000 C   0  0  0  0  0  0  0  0  0  0  0  0
   29.6381  -14.4015    0.0000 C   0  0  0  0  0  0  0  0  0  0  0  0
   29.6435  -15.2160    0.0000 C   0  0  0  0  0  0  0  0  0  0  0  0
   32.4821  -15.2019    0.0000 C   0  0  0  0  0  0  0  0  0  0  0  0
   33.1959  -15.6071    0.0000 N   0  0  0  0  0  0  0  0  0  0  0  0
   32.4783  -14.3806    0.0000 O   0  0  0  0  0  0  0  0  0  0  0  0
   33.9058  -15.1952    0.0000 C   0  0  0  0  0  0  0  0  0  0  0  0
   34.6122  -15.6016    0.0000 C   0  0  0  0  0  0  0  0  0  0  0  0
   35.3200  -15.1932    0.0000 N   0  0  0  0  0  0  0  0  0  0  0  0
   35.3204  -14.3715    0.0000 C   0  0  0  0  0  0  0  0  0  0  0  0
   34.6068  -13.9599    0.0000 C   0  0  0  0  0  0  0  0  0  0  0  0
   33.8969  -14.3742    0.0000 C   0  0  0  0  0  0  0  0  0  0  0  0
   34.6138  -16.4229    0.0000 O   0  0  0  0  0  0  0  0  0  0  0  0
   36.0318  -13.9581    0.0000 O   0  0  0  0  0  0  0  0  0  0  0  0
   28.9386  -15.6295    0.0000 N   0  0  0  0  0  0  0  0  0  0  0  0
  5  1  2  0
  1  2  1  0
  2  3  2  0
  3  4  1  0
  4  6  2  0
  5  6  1  0
  6  7  1  0
  7  8  2  0
  8  9  1  0
  9 10  2  0
 10  5  1  0
  4 11  1  0
 11 12  1  0
 11 13  2  0
 12 14  1  0
 14 15  1  0
 14 19  1  0
 15 16  1  0
 16 17  1  0
 17 18  1  0
 18 19  1  0
 15 20  2  0
 17 21  2  0
 10 22  1  0
M  END
> <From>
www.bindingDB.org

> <BindingDB Reactant_set_id>
51338531

> <Ligand InChI>
InChI=1S/C15H14N4O3/c16-10-6-7-17-13-8(10)2-1-3-9(13)14(21)18-11-4-5-12(20)19-15(11)22/h1-3,6-7,11H,4-5H2,(H2,16,17)(H,18,21)(H,19,20,22)

> <Ligand InChI Key>
UGROCUUBWRTGOP-UHFFFAOYSA-N

> <BindingDB MonomerID>
50541821

> <BindingDB Ligand Name>
CHEMBL4639892

> <Target Name>
Protein cereblon

> <Target Source Organism According to Curator or DataSource>
Human

> <Ki (nM)>
 2200

> <IC50 (nM)>


> <Kd (nM)>


> <EC50 (nM)>


> <kon (M-1-s-1)>


> <koff (s-1)>


> <pH>


> <Temp C>


> <Curation/DataSource>
ChEMBL

> <Article DOI>
10.1021/acsmedchemlett.0c00214

> <BindingDB Entry DOI>
10.7270/Q2VH5SCW

> <PMID>
32550984

> <PubChem AID>


> <Patent Number>


> <Authors>
Kargbo, RB

> <Date of publication>
6/11/2020

> <Date in BindingDB>
8/13/2021

> <Institution>
Usona Institute

> <Link to Ligand in BindingDB>
http://www.bindingdb.org/bind/chemsearch/marvin/MolStructure.jsp?monomerid=50541821

> <Link to Ligand-Target Pair in BindingDB>
http://www.bindingdb.org/jsp/dbsearch/PrimarySearch_ki.jsp?energyterm=kJ/mole&tag=pol&polymerid=50007050&target=Protein+cereblon&column=ki&startPg=0&Increment=50&submit=Search

> <Link to Ligand-Target Pair in BindingDB>
http://www.bindingdb.org/jsp/dbsearch/PrimarySearch_ki.jsp?energyterm=kJ/mole&tag=r21&monomerid=50541821&enzyme=Protein+cereblon&column=ki&startPg=0&Increment=50&submit=Search

> <Ligand HET ID in PDB>


> <PDB ID(s) for Ligand-Target Complex>


> <PubChem CID of Ligand>
152000954

> <PubChem SID of Ligand>
442143384

> <ChEBI ID of Ligand>


> <ChEMBL ID of Ligand>


> <DrugBank ID of Ligand>


> <IUPHAR_GRAC ID of Ligand>


> <KEGG ID of Ligand>


> <ZINC ID of Ligand>


> <Number of Protein Chains in Target (bigger than 1 implies a multichain complex)>
1

> <BindingDB Target Chain Sequence>
MAGEGDQQDAAHNMGNHLPLLPAESEEEDEMEVEDQDSKEAKKPNIINFDTSLPTSHTYLGADMEEFHGRTLHDDDSCQVIPVLPQVMMILIPGQTLPLQLFHPQEVSMVRNLIQKDRTFAVLAYSNVQEREAQFGTTAEIYAYREEQDFGIEIVKVKAIGRQRFKVLELRTQSDGIQQAKVQILPECVLPSTMSAVQLESLNKCQIFPSKPVSREDQCSYKWWQKYQKRKFHCANLTSWPRWLYSLYDAETLMDRIKKQLREWDENLKDDSLPSNPIDFSYRVAACLPIDDVLRIQLLKIGSAIQRLRCELDIMNKCTSLCCKQCQETEITTKNEIFSLSLCGPMAAYVNPHGYVHETLTVYKACNLNLIGRPSTEHSWFPGYAWTVAQCKICASHIGWKFTATKKDMSPQKFWGLTRSALLPTIPDTEDEISPDKVILCL

> <PDB ID(s) of Target Chain>
4TZ4,5HXB,5V3O,6UML,6XK9,7LPS,7U8F,8CVP,8D7U,8D7V,8D7W,8D7X,8D7Y,8D7Z,8D80,8D81,8DEY,8OIZ,8OJH

> <UniProt (SwissProt) Recommended Name of Target Chain>
Protein cereblon

> <UniProt (SwissProt) Entry Name of Target Chain>
CRBN_HUMAN

> <UniProt (SwissProt) Primary ID of Target Chain>
Q96SW2

> <UniProt (SwissProt) Secondary ID(s) of Target Chain>
B2R6H4 C9IZA9 C9JAH6 Q6AI62 Q6NVZ0 Q9UHW4

> <UniProt (SwissProt) Alternative ID(s) of Target Chain>


> <UniProt (TrEMBL) Submitted Name of Target Chain>


> <UniProt (TrEMBL) Entry Name of Target Chain>


> <UniProt (TrEMBL) Primary ID of Target Chain>


> <UniProt (TrEMBL) Secondary ID(s) of Target Chain>


> <UniProt (TrEMBL) Alternative ID(s) of Target Chain>


$$$$

     RDKit          2D

 22 25  0  0  0  0  0  0  0  0999 V2000
    2.7760    0.0000    0.0000 C   0  0  0  0  0  0  0  0  0  0  0  0
    1.2760    0.0000    0.0000 N   0  0  0  0  0  0  0  0  0  0  0  0
    0.3943    1.2135    0.0000 C   0  0  0  0  0  0  0  0  0  0  0  0
   -1.0323    0.7500    0.0000 C   0  0  0  0  0  0  0  0  0  0  0  0
   -2.3313    1.5000    0.0000 C   0  0  0  0  0  0  0  0  0  0  0  0
   -3.6304    0.7500    0.0000 C   0  0  0  0  0  0  0  0  0  0  0  0
   -3.6304   -0.7500    0.0000 C   0  0  0  0  0  0  0  0  0  0  0  0
   -2.3313   -1.5000    0.0000 C   0  0  0  0  0  0  0  0  0  0  0  0
   -1.0323   -0.7500    0.0000 C   0  0  0  0  0  0  0  0  0  0  0  0
    0.3943   -1.2135    0.0000 C   0  0  0  0  0  0  0  0  0  0  0  0
   -5.0569   -1.2135    0.0000 C   0  0  0  0  0  0  0  0  0  0  0  0
   -5.5205   -2.6401    0.0000 O   0  0  0  0  0  0  0  0  0  0  0  0
   -5.9386    0.0000    0.0000 N   0  0  0  0  0  0  0  0  0  0  0  0
   -7.4386    0.0000    0.0000 C   0  0  0  0  0  0  0  0  0  0  0  0
   -8.1886    1.2990    0.0000 C   0  0  0  0  0  0  0  0  0  0  0  0
   -9.6886    1.2990    0.0000 C   0  0  0  0  0  0  0  0  0  0  0  0
  -10.4386   -0.0000    0.0000 C   0  0  0  0  0  0  0  0  0  0  0  0
  -11.9386    0.0000    0.0000 O   0  0  0  0  0  0  0  0  0  0  0  0
   -9.6886   -1.2990    0.0000 N   0  0  0  0  0  0  0  0  0  0  0  0
   -8.1886   -1.2990    0.0000 C   0  0  0  0  0  0  0  0  0  0  0  0
   -7.4386   -2.5981    0.0000 O   0  0  0  0  0  0  0  0  0  0  0  0
   -5.0569    1.2135    0.0000 C   0  0  0  0  0  0  0  0  0  0  0  0
  1  2  1  0
  2  3  1  0
  3  4  1  0
  4  5  2  0
  5  6  1  0
  6  7  2  0
  7  8  1  0
  8  9  2  0
  9 10  1  0
  7 11  1  0
 11 12  2  0
 11 13  1  0
 13 14  1  0
 14 15  1  0
 15 16  1  0
 16 17  1  0
 17 18  2  0
 17 19  1  0
 19 20  1  0
 20 21  2  0
 13 22  1  0
 10  2  1  0
 20 14  1  0
  9  4  1  0
 22  6  1  0
M  END
> <From>
www.bindingDB.org

> <BindingDB Reactant_set_id>
51603516

> <Ligand InChI>
InChI=1S/C16H17N3O3/c1-18-6-9-4-11-8-19(13-2-3-14(20)17-15(13)21)16(22)12(11)5-10(9)7-18/h4-5,13H,2-3,6-8H2,1H3,(H,17,20,21)

> <Ligand InChI Key>
PRTGVDSIUYJKFP-UHFFFAOYSA-N

> <BindingDB MonomerID>
50646099

> <BindingDB Ligand Name>
CHEMBL5590084

> <Target Name>
Protein cereblon

> <Target Source Organism According to Curator or DataSource>
Human

> <Ki (nM)>
 2700

> <IC50 (nM)>


> <Kd (nM)>


> <EC50 (nM)>


> <kon (M-1-s-1)>


> <koff (s-1)>


> <pH>


> <Temp C>


> <Curation/DataSource>
ChEMBL

> <Article DOI>


> <BindingDB Entry DOI>
10.7270/Q20C51FJ

> <PMID>
39132814

> <PubChem AID>


> <Patent Number>


> <Authors>
Wang, C; Wang, M; Wang, Y; Rej, RK; Aguilar, A; Xu, T; Bai, L; Tošović, J; McEachern, D; Li, Q; Sarkari, F; Wen, B; Sun, D; Wang, S

> <Date of publication>
//0

> <Date in BindingDB>
10/12/2025

> <Institution>
University of Michigan

> <Link to Ligand in BindingDB>
http://www.bindingdb.org/bind/chemsearch/marvin/MolStructure.jsp?monomerid=50646099

> <Link to Ligand-Target Pair in BindingDB>
http://www.bindingdb.org/rwd/jsp/dbsearch/PrimarySearch_ki.jsp?energyterm=kJ/mole&tag=pol&polymerid=50007050&target=Protein+cereblon&column=ki&startPg=0&Increment=50&submit=Search

> <Link to Ligand-Target Pair in BindingDB>
http://www.bindingdb.org/rwd/jsp/dbsearch/PrimarySearch_ki.jsp?energyterm=kJ/mole&tag=r21&monomerid=50646099&enzyme=Protein+cereblon&column=ki&startPg=0&Increment=50&submit=Search

> <Ligand HET ID in PDB>


> <PDB ID(s) for Ligand-Target Complex>


> <PubChem CID of Ligand>
170390722

> <PubChem SID of Ligand>
519661501

> <ChEBI ID of Ligand>


> <ChEMBL ID of Ligand>


> <DrugBank ID of Ligand>


> <IUPHAR_GRAC ID of Ligand>


> <KEGG ID of Ligand>


> <ZINC ID of Ligand>


> <Number of Protein Chains in Target (bigger than 1 implies a multichain complex)>
1

> <BindingDB Target Chain Sequence>
MAGEGDQQDAAHNMGNHLPLLPAESEEEDEMEVEDQDSKEAKKPNIINFDTSLPTSHTYLGADMEEFHGRTLHDDDSCQVIPVLPQVMMILIPGQTLPLQLFHPQEVSMVRNLIQKDRTFAVLAYSNVQEREAQFGTTAEIYAYREEQDFGIEIVKVKAIGRQRFKVLELRTQSDGIQQAKVQILPECVLPSTMSAVQLESLNKCQIFPSKPVSREDQCSYKWWQKYQKRKFHCANLTSWPRWLYSLYDAETLMDRIKKQLREWDENLKDDSLPSNPIDFSYRVAACLPIDDVLRIQLLKIGSAIQRLRCELDIMNKCTSLCCKQCQETEITTKNEIFSLSLCGPMAAYVNPHGYVHETLTVYKACNLNLIGRPSTEHSWFPGYAWTVAQCKICASHIGWKFTATKKDMSPQKFWGLTRSALLPTIPDTEDEISPDKVILCL

> <PDB ID(s) of Target Chain>
9DUR,8TNR,8TNQ,8TNP,9DWW,9DWV,9NGT,9NFR,9NFQ,8D81,8D80,8D7Z,8D7Y,8D7X,8D7W,8D7V,8D7U,8CVP,9Q2D,9Q03,9DQD,8UH6,9SAI,9SAF,9H59,9E2U,6BOY,6BNB,6BN9,6BN8,6BN7,9OUL,9Y7D,6XK9,6UML,5V3O,5HXB,9HNE,9D0X,9D0W,7U8F,9FJX,8OJH,8OIZ,7LPS,9SFM,9OTY,4TZ4,9DJX,9DJT,8U17,8U16,8U15,8TZX,8DEY,9CUO,4M91

> <UniProt (SwissProt) Recommended Name of Target Chain>
Protein cereblon

> <UniProt (SwissProt) Entry Name of Target Chain>
CRBN_HUMAN

> <UniProt (SwissProt) Primary ID of Target Chain>
Q96SW2

> <UniProt (SwissProt) Secondary ID(s) of Target Chain>
B2R6H4 C9IZA9 C9JAH6 Q6AI62 Q6NVZ0 Q9UHW4

> <UniProt (SwissProt) Alternative ID(s) of Target Chain>


> <UniProt (TrEMBL) Submitted Name of Target Chain>


> <UniProt (TrEMBL) Entry Name of Target Chain>


> <UniProt (TrEMBL) Primary ID of Target Chain>


> <UniProt (TrEMBL) Secondary ID(s) of Target Chain>


> <UniProt (TrEMBL) Alternative ID(s) of Target Chain>


$$$$

     RDKit          2D

 24 26  0  0  0  0  0  0  0  0999 V2000
   -3.5736    1.2902    0.0000 C   0  0  0  0  0  0  0  0  0  0  0  0
   -2.1470    1.7537    0.0000 C   0  0  0  0  0  0  0  0  0  0  0  0
   -1.8351    3.2209    0.0000 C   0  0  0  0  0  0  0  0  0  0  0  0
   -0.4086    3.6844    0.0000 C   0  0  0  0  0  0  0  0  0  0  0  0
    0.7062    2.6807    0.0000 C   0  0  0  0  0  0  0  0  0  0  0  0
    2.1328    3.1443    0.0000 N   0  0  0  0  0  0  0  0  0  0  0  0
    2.4446    4.6115    0.0000 S   0  0  0  0  0  0  0  0  0  0  0  0
    0.9774    4.9234    0.0000 O   0  0  0  0  0  0  0  0  0  0  0  0
    3.9118    4.2996    0.0000 O   0  0  0  0  0  0  0  0  0  0  0  0
    2.7565    6.0787    0.0000 C   0  0  0  0  0  0  0  0  0  0  0  0
    4.1831    6.5422    0.0000 C   0  0  0  0  0  0  0  0  0  0  0  0
    4.4949    8.0095    0.0000 C   0  0  0  0  0  0  0  0  0  0  0  0
    3.3802    9.0132    0.0000 C   0  0  0  0  0  0  0  0  0  0  0  0
    1.9536    8.5496    0.0000 C   0  0  0  0  0  0  0  0  0  0  0  0
    0.8389    9.5533    0.0000 C   0  0  0  0  0  0  0  0  0  0  0  0
   -0.2758   10.5570    0.0000 N   0  0  0  0  0  0  0  0  0  0  0  0
    1.6418    7.0824    0.0000 C   0  0  0  0  0  0  0  0  0  0  0  0
    0.3943    1.2135    0.0000 C   0  0  0  0  0  0  0  0  0  0  0  0
    1.2760    0.0000    0.0000 N   0  0  0  0  0  0  0  0  0  0  0  0
    0.3943   -1.2135    0.0000 C   0  0  0  0  0  0  0  0  0  0  0  0
   -1.0323   -0.7500    0.0000 C   0  0  0  0  0  0  0  0  0  0  0  0
   -2.2458   -1.6317    0.0000 C   0  0  0  0  0  0  0  0  0  0  0  0
   -3.4593   -2.5134    0.0000 N   0  0  0  0  0  0  0  0  0  0  0  0
   -1.0323    0.7500    0.0000 C   0  0  0  0  0  0  0  0  0  0  0  0
  1  2  1  0
  2  3  2  0
  3  4  1  0
  4  5  2  0
  5  6  1  0
  6  7  1  0
  7  8  2  0
  7  9  2  0
  7 10  1  0
 10 11  2  0
 11 12  1  0
 12 13  2  0
 13 14  1  0
 14 15  1  0
 15 16  3  0
 14 17  2  0
  5 18  1  0
 18 19  1  0
 19 20  1  0
 20 21  2  0
 21 22  1  0
 22 23  3  0
 21 24  1  0
 24  2  1  0
 17 10  1  0
 24 18  2  0
M  END
> <From>
www.bindingDB.org

> <BindingDB Reactant_set_id>
51579780

> <Ligand InChI>
InChI=1S/C17H12N4O2S/c1-11-5-6-15(17-16(11)13(9-19)10-20-17)21-24(22,23)14-4-2-3-12(7-14)8-18/h2-7,10,20-21H,1H3

> <Ligand InChI Key>
LWGUASZLXHYWIV-UHFFFAOYSA-N

> <BindingDB MonomerID>
50635842

> <BindingDB Ligand Name>
E-7820::E7820::ER-68203-00

> <Target Name>
Protein cereblon

> <Target Source Organism According to Curator or DataSource>
Human

> <Ki (nM)>
 2900

> <IC50 (nM)>


> <Kd (nM)>


> <EC50 (nM)>


> <kon (M-1-s-1)>


> <koff (s-1)>


> <pH>


> <Temp C>


> <Curation/DataSource>
ChEMBL

> <Article DOI>


> <BindingDB Entry DOI>
10.7270/Q21V5KJN

> <PMID>
37984298

> <PubChem AID>


> <Patent Number>


> <Authors>
Jiang, W; Jiang, Y; Luo, Y; Qiao, W; Yang, T

> <Date of publication>
//0

> <Date in BindingDB>
10/11/2025

> <Institution>
Sichuan University

> <Link to Ligand in BindingDB>
http://www.bindingdb.org/bind/chemsearch/marvin/MolStructure.jsp?monomerid=50635842

> <Link to Ligand-Target Pair in BindingDB>
http://www.bindingdb.org/rwd/jsp/dbsearch/PrimarySearch_ki.jsp?energyterm=kJ/mole&tag=pol&polymerid=50007050&target=Protein+cereblon&column=ki&startPg=0&Increment=50&submit=Search

> <Link to Ligand-Target Pair in BindingDB>
http://www.bindingdb.org/rwd/jsp/dbsearch/PrimarySearch_ki.jsp?energyterm=kJ/mole&tag=r21&monomerid=50635842&enzyme=Protein+cereblon&column=ki&startPg=0&Increment=50&submit=Search

> <Ligand HET ID in PDB>
O6M

> <PDB ID(s) for Ligand-Target Complex>
6PAI,6Q0R

> <PubChem CID of Ligand>
196970

> <PubChem SID of Ligand>
519656245

> <ChEBI ID of Ligand>


> <ChEMBL ID of Ligand>


> <DrugBank ID of Ligand>


> <IUPHAR_GRAC ID of Ligand>


> <KEGG ID of Ligand>


> <ZINC ID of Ligand>


> <Number of Protein Chains in Target (bigger than 1 implies a multichain complex)>
1

> <BindingDB Target Chain Sequence>
MAGEGDQQDAAHNMGNHLPLLPAESEEEDEMEVEDQDSKEAKKPNIINFDTSLPTSHTYLGADMEEFHGRTLHDDDSCQVIPVLPQVMMILIPGQTLPLQLFHPQEVSMVRNLIQKDRTFAVLAYSNVQEREAQFGTTAEIYAYREEQDFGIEIVKVKAIGRQRFKVLELRTQSDGIQQAKVQILPECVLPSTMSAVQLESLNKCQIFPSKPVSREDQCSYKWWQKYQKRKFHCANLTSWPRWLYSLYDAETLMDRIKKQLREWDENLKDDSLPSNPIDFSYRVAACLPIDDVLRIQLLKIGSAIQRLRCELDIMNKCTSLCCKQCQETEITTKNEIFSLSLCGPMAAYVNPHGYVHETLTVYKACNLNLIGRPSTEHSWFPGYAWTVAQCKICASHIGWKFTATKKDMSPQKFWGLTRSALLPTIPDTEDEISPDKVILCL

> <PDB ID(s) of Target Chain>
9DUR,8TNR,8TNQ,8TNP,9DWW,9DWV,9NGT,9NFR,9NFQ,8D81,8D80,8D7Z,8D7Y,8D7X,8D7W,8D7V,8D7U,8CVP,9Q2D,9Q03,9DQD,8UH6,9SAI,9SAF,9H59,9E2U,6BOY,6BNB,6BN9,6BN8,6BN7,9OUL,9Y7D,6XK9,6UML,5V3O,5HXB,9HNE,9D0X,9D0W,7U8F,9FJX,8OJH,8OIZ,7LPS,9SFM,9OTY,4TZ4,9DJX,9DJT,8U17,8U16,8U15,8TZX,8DEY,9CUO,4M91

> <UniProt (SwissProt) Recommended Name of Target Chain>
Protein cereblon

> <UniProt (SwissProt) Entry Name of Target Chain>
CRBN_HUMAN

> <UniProt (SwissProt) Primary ID of Target Chain>
Q96SW2

> <UniProt (SwissProt) Secondary ID(s) of Target Chain>
B2R6H4 C9IZA9 C9JAH6 Q6AI62 Q6NVZ0 Q9UHW4

> <UniProt (SwissProt) Alternative ID(s) of Target Chain>


> <UniProt (TrEMBL) Submitted Name of Target Chain>


> <UniProt (TrEMBL) Entry Name of Target Chain>


> <UniProt (TrEMBL) Primary ID of Target Chain>


> <UniProt (TrEMBL) Secondary ID(s) of Target Chain>


> <UniProt (TrEMBL) Alternative ID(s) of Target Chain>


$$$$
 
     RDKit          2D

 19 20  0  0  0  0  0  0  0  0999 V2000
   -2.8565   -0.6173    0.0000 C   0  0  0  0  0  0  0  0  0  0  0  0
   -2.1420   -0.2048    0.0000 C   0  0  0  0  0  0  0  0  0  0  0  0
   -1.4275   -0.6173    0.0000 C   0  0  0  0  0  0  0  0  0  0  0  0
   -1.4275   -1.4423    0.0000 C   0  0  0  0  0  0  0  0  0  0  0  0
   -2.1420   -1.8548    0.0000 N   0  0  0  0  0  0  0  0  0  0  0  0
   -2.8565   -1.4423    0.0000 C   0  0  0  0  0  0  0  0  0  0  0  0
   -3.5707   -1.8547    0.0000 O   0  0  0  0  0  0  0  0  0  0  0  0
   -0.7133   -1.8547    0.0000 O   0  0  0  0  0  0  0  0  0  0  0  0
   -0.7133   -0.2050    0.0000 C   0  0  0  0  0  0  0  0  0  0  0  0
    0.0009   -0.6173    0.0000 S   0  0  0  0  0  0  0  0  0  0  0  0
    0.7151   -0.2050    0.0000 C   0  0  0  0  0  0  0  0  0  0  0  0
    0.7153    0.6197    0.0000 C   0  0  0  0  0  0  0  0  0  0  0  0
    1.4277    1.0302    0.0000 C   0  0  0  0  0  0  0  0  0  0  0  0
    2.1422    0.6177    0.0000 C   0  0  0  0  0  0  0  0  0  0  0  0
    2.1438   -0.2029    0.0000 C   0  0  0  0  0  0  0  0  0  0  0  0
    1.4324   -0.6191    0.0000 C   0  0  0  0  0  0  0  0  0  0  0  0
    2.8565    1.0301    0.0000 N   0  0  0  0  0  0  0  0  0  0  0  0
    3.5707    0.6177    0.0000 O   0  0  0  0  0  0  0  0  0  0  0  0
    2.8565    1.8548    0.0000 O   0  0  0  0  0  0  0  0  0  0  0  0
  1  2  1  0
  3  2  1  0
  4  3  1  0
  5  4  1  0
  1  6  1  0
  6  5  1  0
  6  7  2  0
  4  8  2  0
  3  9  1  0
  9 10  1  0
 10 11  1  0
 12 11  2  0
 13 12  1  0
 14 13  2  0
 15 14  1  0
 16 15  2  0
 11 16  1  0
 17 14  1  0
 17 18  1  0
 17 19  2  0
M  CHG  2  17   1  18  -1
M  END
> <From>
www.bindingDB.org

> <BindingDB Reactant_set_id>
51553736

> <Ligand InChI>
InChI=1S/C12H12N2O4S/c15-11-6-1-8(12(16)13-11)7-19-10-4-2-9(3-5-10)14(17)18/h2-5,8H,1,6-7H2,(H,13,15,16)

> <Ligand InChI Key>
JLJZGQKXOQGZFH-UHFFFAOYSA-N

> <BindingDB MonomerID>
50625129

> <BindingDB Ligand Name>
CHEMBL5435497

> <Target Name>
Protein cereblon

> <Target Source Organism According to Curator or DataSource>
Homo sapiens

> <Ki (nM)>
 3000

> <IC50 (nM)>


> <Kd (nM)>


> <EC50 (nM)>


> <kon (M-1-s-1)>


> <koff (s-1)>


> <pH>


> <Temp C>


> <Curation/DataSource>
ChEMBL

> <Article DOI>
10.1016/j.ejmech.2022.114990

> <BindingDB Entry DOI>
10.7270/Q2F1944V

> <PMID>
36476642

> <PubChem AID>


> <Patent Number>


> <Authors>
n/a

> <Date of publication>
1/15/2023

> <Date in BindingDB>
12/18/2024

> <Institution>
n/a

> <Link to Ligand in BindingDB>
http://www.bindingdb.org/bind/chemsearch/marvin/MolStructure.jsp?monomerid=50625129

> <Link to Ligand-Target Pair in BindingDB>
http://www.bindingdb.org/jsp/dbsearch/PrimarySearch_ki.jsp?energyterm=kJ/mole&tag=pol&polymerid=50007050&target=Protein+cereblon&column=ki&startPg=0&Increment=50&submit=Search

> <Link to Ligand-Target Pair in BindingDB>
http://www.bindingdb.org/jsp/dbsearch/PrimarySearch_ki.jsp?energyterm=kJ/mole&tag=r21&monomerid=50625129&enzyme=Protein+cereblon&column=ki&startPg=0&Increment=50&submit=Search

> <Ligand HET ID in PDB>


> <PDB ID(s) for Ligand-Target Complex>


> <PubChem CID>


> <PubChem SID>


> <ChEBI ID of Ligand>


> <ChEMBL ID of Ligand>


> <DrugBank ID of Ligand>


> <IUPHAR_GRAC ID of Ligand>


> <KEGG ID of Ligand>


> <ZINC ID of Ligand>


> <Number of Protein Chains in Target (bigger than 1 implies a multichain complex)>
1

> <BindingDB Target Chain Sequence>
MAGEGDQQDAAHNMGNHLPLLPAESEEEDEMEVEDQDSKEAKKPNIINFDTSLPTSHTYLGADMEEFHGRTLHDDDSCQVIPVLPQVMMILIPGQTLPLQLFHPQEVSMVRNLIQKDRTFAVLAYSNVQEREAQFGTTAEIYAYREEQDFGIEIVKVKAIGRQRFKVLELRTQSDGIQQAKVQILPECVLPSTMSAVQLESLNKCQIFPSKPVSREDQCSYKWWQKYQKRKFHCANLTSWPRWLYSLYDAETLMDRIKKQLREWDENLKDDSLPSNPIDFSYRVAACLPIDDVLRIQLLKIGSAIQRLRCELDIMNKCTSLCCKQCQETEITTKNEIFSLSLCGPMAAYVNPHGYVHETLTVYKACNLNLIGRPSTEHSWFPGYAWTVAQCKICASHIGWKFTATKKDMSPQKFWGLTRSALLPTIPDTEDEISPDKVILCL

> <PDB ID(s) of Target Chain>
8TNR,8TNQ,8TNP,8D81,8D80,8D7Z,8D7Y,8D7X,8D7W,8D7V,8D7U,8CVP,9DQD,8UH6,6BOY,6BNB,6BN9,6BN8,6BN7,6XK9,6UML,5V3O,5HXB,7U8F,8OJH,8OIZ,7LPS,4TZ4,9DJX,9DJT,8U17,8U16,8U15,8TZX,8DEY,9CUO,4M91

> <UniProt (SwissProt) Recommended Name of Target Chain>
Protein cereblon

> <UniProt (SwissProt) Entry Name of Target Chain>
CRBN_HUMAN

> <UniProt (SwissProt) Primary ID of Target Chain>
Q96SW2

> <UniProt (SwissProt) Secondary ID(s) of Target Chain>
B2R6H4 C9IZA9 C9JAH6 Q6AI62 Q6NVZ0 Q9UHW4

> <UniProt (SwissProt) Alternative ID(s) of Target Chain>


> <UniProt (TrEMBL) Submitted Name of Target Chain>


> <UniProt (TrEMBL) Entry Name of Target Chain>


> <UniProt (TrEMBL) Primary ID of Target Chain>


> <UniProt (TrEMBL) Secondary ID(s) of Target Chain>


> <UniProt (TrEMBL) Alternative ID(s) of Target Chain>


$$$$
 
     RDKit          2D

 20 21  0  0  0  0  0  0  0  0999 V2000
   -2.5015    0.2079    0.0000 C   0  0  0  0  0  0  0  0  0  0  0  0
   -1.7871    0.6204    0.0000 C   0  0  0  0  0  0  0  0  0  0  0  0
   -1.0726    0.2079    0.0000 C   0  0  0  0  0  0  0  0  0  0  0  0
   -1.0726   -0.6170    0.0000 C   0  0  0  0  0  0  0  0  0  0  0  0
   -1.7871   -1.0295    0.0000 N   0  0  0  0  0  0  0  0  0  0  0  0
   -2.5015   -0.6170    0.0000 C   0  0  0  0  0  0  0  0  0  0  0  0
   -3.2158   -1.0294    0.0000 O   0  0  0  0  0  0  0  0  0  0  0  0
   -0.3584   -1.0294    0.0000 O   0  0  0  0  0  0  0  0  0  0  0  0
   -0.3584    0.6203    0.0000 C   0  0  0  0  0  0  0  0  0  0  0  0
    0.3558    0.2079    0.0000 S   0  0  0  0  0  0  0  0  0  0  0  0
    1.0700    0.6203    0.0000 C   0  0  0  0  0  0  0  0  0  0  0  0
    1.0702    1.4450    0.0000 C   0  0  0  0  0  0  0  0  0  0  0  0
    1.7827    1.8555    0.0000 C   0  0  0  0  0  0  0  0  0  0  0  0
    2.4971    1.4430    0.0000 C   0  0  0  0  0  0  0  0  0  0  0  0
    2.4987    0.6224    0.0000 C   0  0  0  0  0  0  0  0  0  0  0  0
    1.7873    0.2062    0.0000 C   0  0  0  0  0  0  0  0  0  0  0  0
    1.7873   -0.6185    0.0000 N   0  0  0  0  0  0  0  0  0  0  0  0
    2.5015   -1.0308    0.0000 C   0  0  0  0  0  0  0  0  0  0  0  0
    2.5015   -1.8555    0.0000 O   0  0  0  0  0  0  0  0  0  0  0  0
    3.2158   -0.6185    0.0000 C   0  0  0  0  0  0  0  0  0  0  0  0
  1  2  1  0
  3  2  1  0
  4  3  1  0
  5  4  1  0
  1  6  1  0
  6  5  1  0
  6  7  2  0
  4  8  2  0
  3  9  1  0
  9 10  1  0
 10 11  1  0
 12 11  2  0
 13 12  1  0
 14 13  2  0
 15 14  1  0
 16 15  2  0
 11 16  1  0
 16 17  1  0
 17 18  1  0
 18 19  2  0
 18 20  1  0
M  END
> <From>
www.bindingDB.org

> <BindingDB Reactant_set_id>
51553745

> <Ligand InChI>
InChI=1S/C14H16N2O3S/c1-9(17)15-11-4-2-3-5-12(11)20-8-10-6-7-13(18)16-14(10)19/h2-5,10H,6-8H2,1H3,(H,15,17)(H,16,18,19)

> <Ligand InChI Key>
UELXYEXGBZIFJJ-UHFFFAOYSA-N

> <BindingDB MonomerID>
50625138

> <BindingDB Ligand Name>
CHEMBL5436622

> <Target Name>
Protein cereblon

> <Target Source Organism According to Curator or DataSource>
Homo sapiens

> <Ki (nM)>
 3000

> <IC50 (nM)>


> <Kd (nM)>


> <EC50 (nM)>


> <kon (M-1-s-1)>


> <koff (s-1)>


> <pH>


> <Temp C>


> <Curation/DataSource>
ChEMBL

> <Article DOI>
10.1016/j.ejmech.2022.114990

> <BindingDB Entry DOI>
10.7270/Q2F1944V

> <PMID>
36476642

> <PubChem AID>


> <Patent Number>


> <Authors>
n/a

> <Date of publication>
1/15/2023

> <Date in BindingDB>
12/18/2024

> <Institution>
n/a

> <Link to Ligand in BindingDB>
http://www.bindingdb.org/bind/chemsearch/marvin/MolStructure.jsp?monomerid=50625138

> <Link to Ligand-Target Pair in BindingDB>
http://www.bindingdb.org/jsp/dbsearch/PrimarySearch_ki.jsp?energyterm=kJ/mole&tag=pol&polymerid=50007050&target=Protein+cereblon&column=ki&startPg=0&Increment=50&submit=Search

> <Link to Ligand-Target Pair in BindingDB>
http://www.bindingdb.org/jsp/dbsearch/PrimarySearch_ki.jsp?energyterm=kJ/mole&tag=r21&monomerid=50625138&enzyme=Protein+cereblon&column=ki&startPg=0&Increment=50&submit=Search

> <Ligand HET ID in PDB>


> <PDB ID(s) for Ligand-Target Complex>


> <PubChem CID>


> <PubChem SID>


> <ChEBI ID of Ligand>


> <ChEMBL ID of Ligand>


> <DrugBank ID of Ligand>


> <IUPHAR_GRAC ID of Ligand>


> <KEGG ID of Ligand>


> <ZINC ID of Ligand>


> <Number of Protein Chains in Target (bigger than 1 implies a multichain complex)>
1

> <BindingDB Target Chain Sequence>
MAGEGDQQDAAHNMGNHLPLLPAESEEEDEMEVEDQDSKEAKKPNIINFDTSLPTSHTYLGADMEEFHGRTLHDDDSCQVIPVLPQVMMILIPGQTLPLQLFHPQEVSMVRNLIQKDRTFAVLAYSNVQEREAQFGTTAEIYAYREEQDFGIEIVKVKAIGRQRFKVLELRTQSDGIQQAKVQILPECVLPSTMSAVQLESLNKCQIFPSKPVSREDQCSYKWWQKYQKRKFHCANLTSWPRWLYSLYDAETLMDRIKKQLREWDENLKDDSLPSNPIDFSYRVAACLPIDDVLRIQLLKIGSAIQRLRCELDIMNKCTSLCCKQCQETEITTKNEIFSLSLCGPMAAYVNPHGYVHETLTVYKACNLNLIGRPSTEHSWFPGYAWTVAQCKICASHIGWKFTATKKDMSPQKFWGLTRSALLPTIPDTEDEISPDKVILCL

> <PDB ID(s) of Target Chain>
8TNR,8TNQ,8TNP,8D81,8D80,8D7Z,8D7Y,8D7X,8D7W,8D7V,8D7U,8CVP,9DQD,8UH6,6BOY,6BNB,6BN9,6BN8,6BN7,6XK9,6UML,5V3O,5HXB,7U8F,8OJH,8OIZ,7LPS,4TZ4,9DJX,9DJT,8U17,8U16,8U15,8TZX,8DEY,9CUO,4M91

> <UniProt (SwissProt) Recommended Name of Target Chain>
Protein cereblon

> <UniProt (SwissProt) Entry Name of Target Chain>
CRBN_HUMAN

> <UniProt (SwissProt) Primary ID of Target Chain>
Q96SW2

> <UniProt (SwissProt) Secondary ID(s) of Target Chain>
B2R6H4 C9IZA9 C9JAH6 Q6AI62 Q6NVZ0 Q9UHW4

> <UniProt (SwissProt) Alternative ID(s) of Target Chain>


> <UniProt (TrEMBL) Submitted Name of Target Chain>


> <UniProt (TrEMBL) Entry Name of Target Chain>


> <UniProt (TrEMBL) Primary ID of Target Chain>


> <UniProt (TrEMBL) Secondary ID(s) of Target Chain>


> <UniProt (TrEMBL) Alternative ID(s) of Target Chain>


$$$$
 
     RDKit          2D

 20 21  0  0  0  0  0  0  0  0999 V2000
   -3.2138   -0.2050    0.0000 C   0  0  0  0  0  0  0  0  0  0  0  0
   -2.4993    0.2074    0.0000 C   0  0  0  0  0  0  0  0  0  0  0  0
   -1.7848   -0.2050    0.0000 C   0  0  0  0  0  0  0  0  0  0  0  0
   -1.7848   -1.0301    0.0000 C   0  0  0  0  0  0  0  0  0  0  0  0
   -2.4993   -1.4426    0.0000 N   0  0  0  0  0  0  0  0  0  0  0  0
   -3.2138   -1.0301    0.0000 C   0  0  0  0  0  0  0  0  0  0  0  0
   -3.9281   -1.4425    0.0000 O   0  0  0  0  0  0  0  0  0  0  0  0
   -1.0705   -1.4425    0.0000 O   0  0  0  0  0  0  0  0  0  0  0  0
   -1.0705    0.2073    0.0000 C   0  0  0  0  0  0  0  0  0  0  0  0
   -0.3562   -0.2050    0.0000 S   0  0  0  0  0  0  0  0  0  0  0  0
    0.3580    0.2073    0.0000 C   0  0  0  0  0  0  0  0  0  0  0  0
    0.3582    1.0321    0.0000 C   0  0  0  0  0  0  0  0  0  0  0  0
    1.0707    1.4426    0.0000 C   0  0  0  0  0  0  0  0  0  0  0  0
    1.7853    1.0301    0.0000 C   0  0  0  0  0  0  0  0  0  0  0  0
    1.7868    0.2094    0.0000 C   0  0  0  0  0  0  0  0  0  0  0  0
    1.0753   -0.2068    0.0000 C   0  0  0  0  0  0  0  0  0  0  0  0
    2.4995    1.4425    0.0000 N   0  0  0  0  0  0  0  0  0  0  0  0
    3.2138    1.0301    0.0000 C   0  0  0  0  0  0  0  0  0  0  0  0
    3.9281    1.4425    0.0000 C   0  0  0  0  0  0  0  0  0  0  0  0
    3.2138    0.2053    0.0000 O   0  0  0  0  0  0  0  0  0  0  0  0
  1  2  1  0
  3  2  1  0
  4  3  1  0
  5  4  1  0
  1  6  1  0
  6  5  1  0
  6  7  2  0
  4  8  2  0
  3  9  1  0
  9 10  1  0
 10 11  1  0
 12 11  2  0
 13 12  1  0
 14 13  2  0
 15 14  1  0
 16 15  2  0
 11 16  1  0
 14 17  1  0
 17 18  1  0
 18 19  1  0
 18 20  2  0
M  END
> <From>
www.bindingDB.org

> <BindingDB Reactant_set_id>
51553747

> <Ligand InChI>
InChI=1S/C14H16N2O3S/c1-9(17)15-11-3-5-12(6-4-11)20-8-10-2-7-13(18)16-14(10)19/h3-6,10H,2,7-8H2,1H3,(H,15,17)(H,16,18,19)

> <Ligand InChI Key>
JHMBNUXUWSOKCO-UHFFFAOYSA-N

> <BindingDB MonomerID>
50625140

> <BindingDB Ligand Name>
CHEMBL5419709

> <Target Name>
Protein cereblon

> <Target Source Organism According to Curator or DataSource>
Homo sapiens

> <Ki (nM)>
 3000

> <IC50 (nM)>


> <Kd (nM)>


> <EC50 (nM)>


> <kon (M-1-s-1)>


> <koff (s-1)>


> <pH>


> <Temp C>


> <Curation/DataSource>
ChEMBL

> <Article DOI>
10.1016/j.ejmech.2022.114990

> <BindingDB Entry DOI>
10.7270/Q2F1944V

> <PMID>
36476642

> <PubChem AID>


> <Patent Number>


> <Authors>
n/a

> <Date of publication>
1/15/2023

> <Date in BindingDB>
12/18/2024

> <Institution>
n/a

> <Link to Ligand in BindingDB>
http://www.bindingdb.org/bind/chemsearch/marvin/MolStructure.jsp?monomerid=50625140

> <Link to Ligand-Target Pair in BindingDB>
http://www.bindingdb.org/jsp/dbsearch/PrimarySearch_ki.jsp?energyterm=kJ/mole&tag=pol&polymerid=50007050&target=Protein+cereblon&column=ki&startPg=0&Increment=50&submit=Search

> <Link to Ligand-Target Pair in BindingDB>
http://www.bindingdb.org/jsp/dbsearch/PrimarySearch_ki.jsp?energyterm=kJ/mole&tag=r21&monomerid=50625140&enzyme=Protein+cereblon&column=ki&startPg=0&Increment=50&submit=Search

> <Ligand HET ID in PDB>


> <PDB ID(s) for Ligand-Target Complex>


> <PubChem CID>


> <PubChem SID>


> <ChEBI ID of Ligand>


> <ChEMBL ID of Ligand>


> <DrugBank ID of Ligand>


> <IUPHAR_GRAC ID of Ligand>


> <KEGG ID of Ligand>


> <ZINC ID of Ligand>


> <Number of Protein Chains in Target (bigger than 1 implies a multichain complex)>
1

> <BindingDB Target Chain Sequence>
MAGEGDQQDAAHNMGNHLPLLPAESEEEDEMEVEDQDSKEAKKPNIINFDTSLPTSHTYLGADMEEFHGRTLHDDDSCQVIPVLPQVMMILIPGQTLPLQLFHPQEVSMVRNLIQKDRTFAVLAYSNVQEREAQFGTTAEIYAYREEQDFGIEIVKVKAIGRQRFKVLELRTQSDGIQQAKVQILPECVLPSTMSAVQLESLNKCQIFPSKPVSREDQCSYKWWQKYQKRKFHCANLTSWPRWLYSLYDAETLMDRIKKQLREWDENLKDDSLPSNPIDFSYRVAACLPIDDVLRIQLLKIGSAIQRLRCELDIMNKCTSLCCKQCQETEITTKNEIFSLSLCGPMAAYVNPHGYVHETLTVYKACNLNLIGRPSTEHSWFPGYAWTVAQCKICASHIGWKFTATKKDMSPQKFWGLTRSALLPTIPDTEDEISPDKVILCL

> <PDB ID(s) of Target Chain>
8TNR,8TNQ,8TNP,8D81,8D80,8D7Z,8D7Y,8D7X,8D7W,8D7V,8D7U,8CVP,9DQD,8UH6,6BOY,6BNB,6BN9,6BN8,6BN7,6XK9,6UML,5V3O,5HXB,7U8F,8OJH,8OIZ,7LPS,4TZ4,9DJX,9DJT,8U17,8U16,8U15,8TZX,8DEY,9CUO,4M91

> <UniProt (SwissProt) Recommended Name of Target Chain>
Protein cereblon

> <UniProt (SwissProt) Entry Name of Target Chain>
CRBN_HUMAN

> <UniProt (SwissProt) Primary ID of Target Chain>
Q96SW2

> <UniProt (SwissProt) Secondary ID(s) of Target Chain>
B2R6H4 C9IZA9 C9JAH6 Q6AI62 Q6NVZ0 Q9UHW4

> <UniProt (SwissProt) Alternative ID(s) of Target Chain>


> <UniProt (TrEMBL) Submitted Name of Target Chain>


> <UniProt (TrEMBL) Entry Name of Target Chain>


> <UniProt (TrEMBL) Primary ID of Target Chain>


> <UniProt (TrEMBL) Secondary ID(s) of Target Chain>


> <UniProt (TrEMBL) Alternative ID(s) of Target Chain>


$$$$
 
     RDKit          2D

 17 18  0  0  0  0  0  0  0  0999 V2000
   -2.5002   -0.2050    0.0000 C   0  0  0  0  0  0  0  0  0  0  0  0
   -1.7857    0.2074    0.0000 C   0  0  0  0  0  0  0  0  0  0  0  0
   -1.0713   -0.2050    0.0000 C   0  0  0  0  0  0  0  0  0  0  0  0
   -1.0713   -1.0301    0.0000 C   0  0  0  0  0  0  0  0  0  0  0  0
   -1.7857   -1.4425    0.0000 N   0  0  0  0  0  0  0  0  0  0  0  0
   -2.5002   -1.0301    0.0000 C   0  0  0  0  0  0  0  0  0  0  0  0
   -3.2145   -1.4425    0.0000 O   0  0  0  0  0  0  0  0  0  0  0  0
   -0.3570   -1.4425    0.0000 O   0  0  0  0  0  0  0  0  0  0  0  0
   -0.3570    0.2073    0.0000 C   0  0  0  0  0  0  0  0  0  0  0  0
    0.3572   -0.2050    0.0000 S   0  0  0  0  0  0  0  0  0  0  0  0
    1.0714    0.2073    0.0000 C   0  0  0  0  0  0  0  0  0  0  0  0
    1.0717    1.0321    0.0000 C   0  0  0  0  0  0  0  0  0  0  0  0
    1.7842    1.4425    0.0000 C   0  0  0  0  0  0  0  0  0  0  0  0
    2.4986    1.0301    0.0000 C   0  0  0  0  0  0  0  0  0  0  0  0
    2.5002    0.2094    0.0000 C   0  0  0  0  0  0  0  0  0  0  0  0
    1.7888   -0.2068    0.0000 C   0  0  0  0  0  0  0  0  0  0  0  0
    3.2145   -0.2029    0.0000 N   0  0  0  0  0  0  0  0  0  0  0  0
  1  2  1  0
  3  2  1  0
  4  3  1  0
  5  4  1  0
  1  6  1  0
  6  5  1  0
  6  7  2  0
  4  8  2  0
  3  9  1  0
  9 10  1  0
 10 11  1  0
 12 11  2  0
 13 12  1  0
 14 13  2  0
 15 14  1  0
 16 15  2  0
 11 16  1  0
 15 17  1  0
M  END
> <From>
www.bindingDB.org

> <BindingDB Reactant_set_id>
51553743

> <Ligand InChI>
InChI=1S/C12H14N2O2S/c13-9-2-1-3-10(6-9)17-7-8-4-5-11(15)14-12(8)16/h1-3,6,8H,4-5,7,13H2,(H,14,15,16)

> <Ligand InChI Key>
YGPLIXYOXPSSRZ-UHFFFAOYSA-N

> <BindingDB MonomerID>
50625136

> <BindingDB Ligand Name>
CHEMBL5397580

> <Target Name>
Protein cereblon

> <Target Source Organism According to Curator or DataSource>
Homo sapiens

> <Ki (nM)>
 3100

> <IC50 (nM)>


> <Kd (nM)>


> <EC50 (nM)>


> <kon (M-1-s-1)>


> <koff (s-1)>


> <pH>


> <Temp C>


> <Curation/DataSource>
ChEMBL

> <Article DOI>
10.1016/j.ejmech.2022.114990

> <BindingDB Entry DOI>
10.7270/Q2F1944V

> <PMID>
36476642

> <PubChem AID>


> <Patent Number>


> <Authors>
n/a

> <Date of publication>
1/15/2023

> <Date in BindingDB>
12/18/2024

> <Institution>
n/a

> <Link to Ligand in BindingDB>
http://www.bindingdb.org/bind/chemsearch/marvin/MolStructure.jsp?monomerid=50625136

> <Link to Ligand-Target Pair in BindingDB>
http://www.bindingdb.org/jsp/dbsearch/PrimarySearch_ki.jsp?energyterm=kJ/mole&tag=pol&polymerid=50007050&target=Protein+cereblon&column=ki&startPg=0&Increment=50&submit=Search

> <Link to Ligand-Target Pair in BindingDB>
http://www.bindingdb.org/jsp/dbsearch/PrimarySearch_ki.jsp?energyterm=kJ/mole&tag=r21&monomerid=50625136&enzyme=Protein+cereblon&column=ki&startPg=0&Increment=50&submit=Search

> <Ligand HET ID in PDB>
MW6    

> <PDB ID(s) for Ligand-Target Complex>
8AOP

> <PubChem CID>


> <PubChem SID>


> <ChEBI ID of Ligand>


> <ChEMBL ID of Ligand>


> <DrugBank ID of Ligand>


> <IUPHAR_GRAC ID of Ligand>


> <KEGG ID of Ligand>


> <ZINC ID of Ligand>


> <Number of Protein Chains in Target (bigger than 1 implies a multichain complex)>
1

> <BindingDB Target Chain Sequence>
MAGEGDQQDAAHNMGNHLPLLPAESEEEDEMEVEDQDSKEAKKPNIINFDTSLPTSHTYLGADMEEFHGRTLHDDDSCQVIPVLPQVMMILIPGQTLPLQLFHPQEVSMVRNLIQKDRTFAVLAYSNVQEREAQFGTTAEIYAYREEQDFGIEIVKVKAIGRQRFKVLELRTQSDGIQQAKVQILPECVLPSTMSAVQLESLNKCQIFPSKPVSREDQCSYKWWQKYQKRKFHCANLTSWPRWLYSLYDAETLMDRIKKQLREWDENLKDDSLPSNPIDFSYRVAACLPIDDVLRIQLLKIGSAIQRLRCELDIMNKCTSLCCKQCQETEITTKNEIFSLSLCGPMAAYVNPHGYVHETLTVYKACNLNLIGRPSTEHSWFPGYAWTVAQCKICASHIGWKFTATKKDMSPQKFWGLTRSALLPTIPDTEDEISPDKVILCL

> <PDB ID(s) of Target Chain>
8TNR,8TNQ,8TNP,8D81,8D80,8D7Z,8D7Y,8D7X,8D7W,8D7V,8D7U,8CVP,9DQD,8UH6,6BOY,6BNB,6BN9,6BN8,6BN7,6XK9,6UML,5V3O,5HXB,7U8F,8OJH,8OIZ,7LPS,4TZ4,9DJX,9DJT,8U17,8U16,8U15,8TZX,8DEY,9CUO,4M91

> <UniProt (SwissProt) Recommended Name of Target Chain>
Protein cereblon

> <UniProt (SwissProt) Entry Name of Target Chain>
CRBN_HUMAN

> <UniProt (SwissProt) Primary ID of Target Chain>
Q96SW2

> <UniProt (SwissProt) Secondary ID(s) of Target Chain>
B2R6H4 C9IZA9 C9JAH6 Q6AI62 Q6NVZ0 Q9UHW4

> <UniProt (SwissProt) Alternative ID(s) of Target Chain>


> <UniProt (TrEMBL) Submitted Name of Target Chain>


> <UniProt (TrEMBL) Entry Name of Target Chain>


> <UniProt (TrEMBL) Primary ID of Target Chain>


> <UniProt (TrEMBL) Secondary ID(s) of Target Chain>


> <UniProt (TrEMBL) Alternative ID(s) of Target Chain>


$$$$
 
     RDKit          2D

 20 21  0  0  0  0  0  0  0  0999 V2000
   -3.2142   -0.2050    0.0000 C   0  0  0  0  0  0  0  0  0  0  0  0
   -2.4998    0.2074    0.0000 C   0  0  0  0  0  0  0  0  0  0  0  0
   -1.7854   -0.2050    0.0000 C   0  0  0  0  0  0  0  0  0  0  0  0
   -1.7854   -1.0300    0.0000 C   0  0  0  0  0  0  0  0  0  0  0  0
   -2.4998   -1.4424    0.0000 N   0  0  0  0  0  0  0  0  0  0  0  0
   -3.2142   -1.0300    0.0000 C   0  0  0  0  0  0  0  0  0  0  0  0
   -3.9284   -1.4423    0.0000 O   0  0  0  0  0  0  0  0  0  0  0  0
   -1.0712   -1.4423    0.0000 O   0  0  0  0  0  0  0  0  0  0  0  0
   -1.0712    0.2073    0.0000 C   0  0  0  0  0  0  0  0  0  0  0  0
   -0.3569   -0.2050    0.0000 S   0  0  0  0  0  0  0  0  0  0  0  0
    0.3571    0.2073    0.0000 C   0  0  0  0  0  0  0  0  0  0  0  0
    0.3574    1.0320    0.0000 C   0  0  0  0  0  0  0  0  0  0  0  0
    1.0698    1.4424    0.0000 C   0  0  0  0  0  0  0  0  0  0  0  0
    1.7843    1.0300    0.0000 C   0  0  0  0  0  0  0  0  0  0  0  0
    1.7858    0.2094    0.0000 C   0  0  0  0  0  0  0  0  0  0  0  0
    1.0744   -0.2068    0.0000 C   0  0  0  0  0  0  0  0  0  0  0  0
    2.5000   -0.2029    0.0000 N   0  0  0  0  0  0  0  0  0  0  0  0
    3.2142    0.2094    0.0000 C   0  0  0  0  0  0  0  0  0  0  0  0
    3.9284   -0.2029    0.0000 C   0  0  0  0  0  0  0  0  0  0  0  0
    3.2142    1.0341    0.0000 O   0  0  0  0  0  0  0  0  0  0  0  0
  1  2  1  0
  3  2  1  0
  4  3  1  0
  5  4  1  0
  1  6  1  0
  6  5  1  0
  6  7  2  0
  4  8  2  0
  3  9  1  0
  9 10  1  0
 10 11  1  0
 12 11  2  0
 13 12  1  0
 14 13  2  0
 15 14  1  0
 16 15  2  0
 11 16  1  0
 15 17  1  0
 17 18  1  0
 18 19  1  0
 18 20  2  0
M  END
> <From>
www.bindingDB.org

> <BindingDB Reactant_set_id>
51553746

> <Ligand InChI>
InChI=1S/C14H16N2O3S/c1-9(17)15-11-3-2-4-12(7-11)20-8-10-5-6-13(18)16-14(10)19/h2-4,7,10H,5-6,8H2,1H3,(H,15,17)(H,16,18,19)

> <Ligand InChI Key>
BGHAVCLWQUSZNI-UHFFFAOYSA-N

> <BindingDB MonomerID>
50625139

> <BindingDB Ligand Name>
CHEMBL5434742

> <Target Name>
Protein cereblon

> <Target Source Organism According to Curator or DataSource>
Homo sapiens

> <Ki (nM)>
 3300

> <IC50 (nM)>


> <Kd (nM)>


> <EC50 (nM)>


> <kon (M-1-s-1)>


> <koff (s-1)>


> <pH>


> <Temp C>


> <Curation/DataSource>
ChEMBL

> <Article DOI>
10.1016/j.ejmech.2022.114990

> <BindingDB Entry DOI>
10.7270/Q2F1944V

> <PMID>
36476642

> <PubChem AID>


> <Patent Number>


> <Authors>
n/a

> <Date of publication>
1/15/2023

> <Date in BindingDB>
12/18/2024

> <Institution>
n/a

> <Link to Ligand in BindingDB>
http://www.bindingdb.org/bind/chemsearch/marvin/MolStructure.jsp?monomerid=50625139

> <Link to Ligand-Target Pair in BindingDB>
http://www.bindingdb.org/jsp/dbsearch/PrimarySearch_ki.jsp?energyterm=kJ/mole&tag=pol&polymerid=50007050&target=Protein+cereblon&column=ki&startPg=0&Increment=50&submit=Search

> <Link to Ligand-Target Pair in BindingDB>
http://www.bindingdb.org/jsp/dbsearch/PrimarySearch_ki.jsp?energyterm=kJ/mole&tag=r21&monomerid=50625139&enzyme=Protein+cereblon&column=ki&startPg=0&Increment=50&submit=Search

> <Ligand HET ID in PDB>


> <PDB ID(s) for Ligand-Target Complex>


> <PubChem CID>


> <PubChem SID>


> <ChEBI ID of Ligand>


> <ChEMBL ID of Ligand>


> <DrugBank ID of Ligand>


> <IUPHAR_GRAC ID of Ligand>


> <KEGG ID of Ligand>


> <ZINC ID of Ligand>


> <Number of Protein Chains in Target (bigger than 1 implies a multichain complex)>
1

> <BindingDB Target Chain Sequence>
MAGEGDQQDAAHNMGNHLPLLPAESEEEDEMEVEDQDSKEAKKPNIINFDTSLPTSHTYLGADMEEFHGRTLHDDDSCQVIPVLPQVMMILIPGQTLPLQLFHPQEVSMVRNLIQKDRTFAVLAYSNVQEREAQFGTTAEIYAYREEQDFGIEIVKVKAIGRQRFKVLELRTQSDGIQQAKVQILPECVLPSTMSAVQLESLNKCQIFPSKPVSREDQCSYKWWQKYQKRKFHCANLTSWPRWLYSLYDAETLMDRIKKQLREWDENLKDDSLPSNPIDFSYRVAACLPIDDVLRIQLLKIGSAIQRLRCELDIMNKCTSLCCKQCQETEITTKNEIFSLSLCGPMAAYVNPHGYVHETLTVYKACNLNLIGRPSTEHSWFPGYAWTVAQCKICASHIGWKFTATKKDMSPQKFWGLTRSALLPTIPDTEDEISPDKVILCL

> <PDB ID(s) of Target Chain>
8TNR,8TNQ,8TNP,8D81,8D80,8D7Z,8D7Y,8D7X,8D7W,8D7V,8D7U,8CVP,9DQD,8UH6,6BOY,6BNB,6BN9,6BN8,6BN7,6XK9,6UML,5V3O,5HXB,7U8F,8OJH,8OIZ,7LPS,4TZ4,9DJX,9DJT,8U17,8U16,8U15,8TZX,8DEY,9CUO,4M91

> <UniProt (SwissProt) Recommended Name of Target Chain>
Protein cereblon

> <UniProt (SwissProt) Entry Name of Target Chain>
CRBN_HUMAN

> <UniProt (SwissProt) Primary ID of Target Chain>
Q96SW2

> <UniProt (SwissProt) Secondary ID(s) of Target Chain>
B2R6H4 C9IZA9 C9JAH6 Q6AI62 Q6NVZ0 Q9UHW4

> <UniProt (SwissProt) Alternative ID(s) of Target Chain>


> <UniProt (TrEMBL) Submitted Name of Target Chain>


> <UniProt (TrEMBL) Entry Name of Target Chain>


> <UniProt (TrEMBL) Primary ID of Target Chain>


> <UniProt (TrEMBL) Secondary ID(s) of Target Chain>


> <UniProt (TrEMBL) Alternative ID(s) of Target Chain>


$$$$
134780
  Mrv0541 01031813182D          

 20 22  0  0  1  0            999 V2000
    5.1662   -1.6578    0.0000 O   0  0  0  0  0  0  0  0  0  0  0  0
    4.1159    1.2193    0.0000 O   0  0  0  0  0  0  0  0  0  0  0  0
    4.1159   -1.6769    0.0000 O   0  0  0  0  0  0  0  0  0  0  0  0
    7.6412   -0.2289    0.0000 O   0  0  0  0  0  0  0  0  0  0  0  0
    4.3412   -0.2289    0.0000 N   0  0  0  0  0  0  0  0  0  0  0  0
    6.4037   -0.9433    0.0000 N   0  0  0  0  0  0  0  0  0  0  0  0
    2.3645    1.4212    0.0000 N   0  0  0  0  0  0  0  0  0  0  0  0
    5.1662   -0.2289    0.0000 C   0  0  0  0  0  0  0  0  0  0  0  0
    5.5787    0.4857    0.0000 C   0  0  0  0  0  0  0  0  0  0  0  0
    6.4037    0.4857    0.0000 C   0  0  0  0  0  0  0  0  0  0  0  0
    5.5787   -0.9433    0.0000 C   0  0  0  0  0  0  0  0  0  0  0  0
    3.8597    0.4351    0.0000 C   0  0  0  0  0  0  0  0  0  0  0  0
    3.8597   -0.8928    0.0000 C   0  0  0  0  0  0  0  0  0  0  0  0
    3.0790    0.1836    0.0000 C   0  0  0  0  0  0  0  0  0  0  0  0
    3.0790   -0.6414    0.0000 C   0  0  0  0  0  0  0  0  0  0  0  0
    6.8162   -0.2289    0.0000 C   0  0  0  0  0  0  0  0  0  0  0  0
    2.3645    0.5962    0.0000 C   0  0  0  0  0  0  0  0  0  0  0  0
    2.3645   -1.0539    0.0000 C   0  0  0  0  0  0  0  0  0  0  0  0
    1.6500    0.1836    0.0000 C   0  0  0  0  0  0  0  0  0  0  0  0
    1.6500   -0.6414    0.0000 C   0  0  0  0  0  0  0  0  0  0  0  0
  1 11  2  0  0  0  0
  2 12  2  0  0  0  0
  3 13  2  0  0  0  0
  4 16  2  0  0  0  0
  5  8  1  0  0  0  0
  5 12  1  0  0  0  0
  5 13  1  0  0  0  0
  6 11  1  0  0  0  0
  6 16  1  0  0  0  0
  7 17  1  0  0  0  0
  8  9  1  0  0  0  0
  8 11  1  0  0  0  0
  9 10  1  0  0  0  0
 10 16  1  0  0  0  0
 12 14  1  0  0  0  0
 13 15  1  0  0  0  0
 14 15  4  0  0  0  0
 14 17  4  0  0  0  0
 15 18  4  0  0  0  0
 17 19  4  0  0  0  0
 18 20  4  0  0  0  0
 19 20  4  0  0  0  0
M  END
> <From>
www.bindingDB.org

> <BindingDB Reactant_set_id>
51567932

> <Ligand InChI>
InChI=1S/C13H11N3O4/c14-7-3-1-2-6-10(7)13(20)16(12(6)19)8-4-5-9(17)15-11(8)18/h1-3,8H,4-5,14H2,(H,15,17,18)

> <Ligand InChI Key>
UVSMNLNDYGZFPF-UHFFFAOYSA-N

> <BindingDB MonomerID>
65456

> <BindingDB Ligand Name>
19171-19-8::4-amino-2-(2,6-dioxopiperidin-3-yl)isoindoline-1,3-dione::Actimid::CC-4047::Pomalyst::US11059801, Compound D-4::US20230271966, Compound Pomalidomide::US9694015, 6.2::pomalidomide

> <Target Name>
Protein cereblon

> <Target Source Organism According to Curator or DataSource>
Homo sapiens

> <Ki (nM)>
 3300

> <IC50 (nM)>


> <Kd (nM)>


> <EC50 (nM)>


> <kon (M-1-s-1)>


> <koff (s-1)>


> <pH>


> <Temp C>


> <Curation/DataSource>
ChEMBL

> <Article DOI>
10.1021/acs.jmedchem.3c00851

> <BindingDB Entry DOI>
10.7270/Q2PK0MM6

> <PMID>
37902300

> <PubChem AID>


> <Patent Number>


> <Authors>
n/a

> <Date of publication>
11/9/2023

> <Date in BindingDB>
12/20/2024

> <Institution>
n/a

> <Link to Ligand in BindingDB>
http://www.bindingdb.org/bind/chemsearch/marvin/MolStructure.jsp?monomerid=65456

> <Link to Ligand-Target Pair in BindingDB>
http://www.bindingdb.org/jsp/dbsearch/PrimarySearch_ki.jsp?energyterm=kJ/mole&tag=pol&polymerid=50007050&target=Protein+cereblon&column=ki&startPg=0&Increment=50&submit=Search

> <Link to Ligand-Target Pair in BindingDB>
http://www.bindingdb.org/jsp/dbsearch/PrimarySearch_ki.jsp?energyterm=kJ/mole&tag=r21&monomerid=65456&enzyme=Protein+cereblon&column=ki&startPg=0&Increment=50&submit=Search

> <Ligand HET ID in PDB>
Y70    

> <PDB ID(s) for Ligand-Target Complex>
7SZA

> <PubChem CID of Ligand>
134780

> <PubChem SID of Ligand>
350083086

> <ChEBI ID of Ligand>


> <ChEMBL ID of Ligand>


> <DrugBank ID of Ligand>
DB08910

> <IUPHAR_GRAC ID of Ligand>


> <KEGG ID of Ligand>


> <ZINC ID of Ligand>
ZINC15953204

> <Number of Protein Chains in Target (bigger than 1 implies a multichain complex)>
1

> <BindingDB Target Chain Sequence>
MAGEGDQQDAAHNMGNHLPLLPAESEEEDEMEVEDQDSKEAKKPNIINFDTSLPTSHTYLGADMEEFHGRTLHDDDSCQVIPVLPQVMMILIPGQTLPLQLFHPQEVSMVRNLIQKDRTFAVLAYSNVQEREAQFGTTAEIYAYREEQDFGIEIVKVKAIGRQRFKVLELRTQSDGIQQAKVQILPECVLPSTMSAVQLESLNKCQIFPSKPVSREDQCSYKWWQKYQKRKFHCANLTSWPRWLYSLYDAETLMDRIKKQLREWDENLKDDSLPSNPIDFSYRVAACLPIDDVLRIQLLKIGSAIQRLRCELDIMNKCTSLCCKQCQETEITTKNEIFSLSLCGPMAAYVNPHGYVHETLTVYKACNLNLIGRPSTEHSWFPGYAWTVAQCKICASHIGWKFTATKKDMSPQKFWGLTRSALLPTIPDTEDEISPDKVILCL

> <PDB ID(s) of Target Chain>
8TNR,8TNQ,8TNP,8D81,8D80,8D7Z,8D7Y,8D7X,8D7W,8D7V,8D7U,8CVP,9DQD,8UH6,6BOY,6BNB,6BN9,6BN8,6BN7,6XK9,6UML,5V3O,5HXB,7U8F,8OJH,8OIZ,7LPS,4TZ4,9DJX,9DJT,8U17,8U16,8U15,8TZX,8DEY,9CUO,4M91

> <UniProt (SwissProt) Recommended Name of Target Chain>
Protein cereblon

> <UniProt (SwissProt) Entry Name of Target Chain>
CRBN_HUMAN

> <UniProt (SwissProt) Primary ID of Target Chain>
Q96SW2

> <UniProt (SwissProt) Secondary ID(s) of Target Chain>
B2R6H4 C9IZA9 C9JAH6 Q6AI62 Q6NVZ0 Q9UHW4

> <UniProt (SwissProt) Alternative ID(s) of Target Chain>


> <UniProt (TrEMBL) Submitted Name of Target Chain>


> <UniProt (TrEMBL) Entry Name of Target Chain>


> <UniProt (TrEMBL) Primary ID of Target Chain>


> <UniProt (TrEMBL) Secondary ID(s) of Target Chain>


> <UniProt (TrEMBL) Alternative ID(s) of Target Chain>


$$$$
 
     RDKit          2D

 19 20  0  0  0  0  0  0  0  0999 V2000
   -2.1444   -0.2043    0.0000 C   0  0  0  0  0  0  0  0  0  0  0  0
   -1.4299    0.2081    0.0000 C   0  0  0  0  0  0  0  0  0  0  0  0
   -0.7155   -0.2043    0.0000 C   0  0  0  0  0  0  0  0  0  0  0  0
   -0.7155   -1.0293    0.0000 C   0  0  0  0  0  0  0  0  0  0  0  0
   -1.4299   -1.4418    0.0000 N   0  0  0  0  0  0  0  0  0  0  0  0
   -2.1444   -1.0293    0.0000 C   0  0  0  0  0  0  0  0  0  0  0  0
   -2.8586   -1.4416    0.0000 O   0  0  0  0  0  0  0  0  0  0  0  0
   -0.0013   -1.4416    0.0000 O   0  0  0  0  0  0  0  0  0  0  0  0
   -0.0013    0.2080    0.0000 C   0  0  0  0  0  0  0  0  0  0  0  0
    0.7129   -0.2043    0.0000 S   0  0  0  0  0  0  0  0  0  0  0  0
    1.4271    0.2080    0.0000 C   0  0  0  0  0  0  0  0  0  0  0  0
    1.4274    1.0327    0.0000 C   0  0  0  0  0  0  0  0  0  0  0  0
    2.1399    1.4432    0.0000 C   0  0  0  0  0  0  0  0  0  0  0  0
    2.8543    1.0307    0.0000 C   0  0  0  0  0  0  0  0  0  0  0  0
    2.8558    0.2101    0.0000 C   0  0  0  0  0  0  0  0  0  0  0  0
    2.1444   -0.2061    0.0000 C   0  0  0  0  0  0  0  0  0  0  0  0
    2.1444   -1.0308    0.0000 N   0  0  0  0  0  0  0  0  0  0  0  0
    1.4302   -1.4432    0.0000 O   0  0  0  0  0  0  0  0  0  0  0  0
    2.8586   -1.4432    0.0000 O   0  0  0  0  0  0  0  0  0  0  0  0
  1  2  1  0
  3  2  1  0
  4  3  1  0
  5  4  1  0
  1  6  1  0
  6  5  1  0
  6  7  2  0
  4  8  2  0
  3  9  1  0
  9 10  1  0
 10 11  1  0
 12 11  2  0
 13 12  1  0
 14 13  2  0
 15 14  1  0
 16 15  2  0
 11 16  1  0
 17 16  1  0
 17 18  1  0
 17 19  2  0
M  CHG  2  17   1  18  -1
M  END
> <From>
www.bindingDB.org

> <BindingDB Reactant_set_id>
51553734

> <Ligand InChI>
InChI=1S/C12H12N2O4S/c15-11-6-5-8(12(16)13-11)7-19-10-4-2-1-3-9(10)14(17)18/h1-4,8H,5-7H2,(H,13,15,16)

> <Ligand InChI Key>
ZJHBTYOIMUAONL-UHFFFAOYSA-N

> <BindingDB MonomerID>
50625127

> <BindingDB Ligand Name>
CHEMBL5439702

> <Target Name>
Protein cereblon

> <Target Source Organism According to Curator or DataSource>
Homo sapiens

> <Ki (nM)>
 3400

> <IC50 (nM)>


> <Kd (nM)>


> <EC50 (nM)>


> <kon (M-1-s-1)>


> <koff (s-1)>


> <pH>


> <Temp C>


> <Curation/DataSource>
ChEMBL

> <Article DOI>
10.1016/j.ejmech.2022.114990

> <BindingDB Entry DOI>
10.7270/Q2F1944V

> <PMID>
36476642

> <PubChem AID>


> <Patent Number>


> <Authors>
n/a

> <Date of publication>
1/15/2023

> <Date in BindingDB>
12/18/2024

> <Institution>
n/a

> <Link to Ligand in BindingDB>
http://www.bindingdb.org/bind/chemsearch/marvin/MolStructure.jsp?monomerid=50625127

> <Link to Ligand-Target Pair in BindingDB>
http://www.bindingdb.org/jsp/dbsearch/PrimarySearch_ki.jsp?energyterm=kJ/mole&tag=pol&polymerid=50007050&target=Protein+cereblon&column=ki&startPg=0&Increment=50&submit=Search

> <Link to Ligand-Target Pair in BindingDB>
http://www.bindingdb.org/jsp/dbsearch/PrimarySearch_ki.jsp?energyterm=kJ/mole&tag=r21&monomerid=50625127&enzyme=Protein+cereblon&column=ki&startPg=0&Increment=50&submit=Search

> <Ligand HET ID in PDB>


> <PDB ID(s) for Ligand-Target Complex>


> <PubChem CID>


> <PubChem SID>


> <ChEBI ID of Ligand>


> <ChEMBL ID of Ligand>


> <DrugBank ID of Ligand>


> <IUPHAR_GRAC ID of Ligand>


> <KEGG ID of Ligand>


> <ZINC ID of Ligand>


> <Number of Protein Chains in Target (bigger than 1 implies a multichain complex)>
1

> <BindingDB Target Chain Sequence>
MAGEGDQQDAAHNMGNHLPLLPAESEEEDEMEVEDQDSKEAKKPNIINFDTSLPTSHTYLGADMEEFHGRTLHDDDSCQVIPVLPQVMMILIPGQTLPLQLFHPQEVSMVRNLIQKDRTFAVLAYSNVQEREAQFGTTAEIYAYREEQDFGIEIVKVKAIGRQRFKVLELRTQSDGIQQAKVQILPECVLPSTMSAVQLESLNKCQIFPSKPVSREDQCSYKWWQKYQKRKFHCANLTSWPRWLYSLYDAETLMDRIKKQLREWDENLKDDSLPSNPIDFSYRVAACLPIDDVLRIQLLKIGSAIQRLRCELDIMNKCTSLCCKQCQETEITTKNEIFSLSLCGPMAAYVNPHGYVHETLTVYKACNLNLIGRPSTEHSWFPGYAWTVAQCKICASHIGWKFTATKKDMSPQKFWGLTRSALLPTIPDTEDEISPDKVILCL

> <PDB ID(s) of Target Chain>
8TNR,8TNQ,8TNP,8D81,8D80,8D7Z,8D7Y,8D7X,8D7W,8D7V,8D7U,8CVP,9DQD,8UH6,6BOY,6BNB,6BN9,6BN8,6BN7,6XK9,6UML,5V3O,5HXB,7U8F,8OJH,8OIZ,7LPS,4TZ4,9DJX,9DJT,8U17,8U16,8U15,8TZX,8DEY,9CUO,4M91

> <UniProt (SwissProt) Recommended Name of Target Chain>
Protein cereblon

> <UniProt (SwissProt) Entry Name of Target Chain>
CRBN_HUMAN

> <UniProt (SwissProt) Primary ID of Target Chain>
Q96SW2

> <UniProt (SwissProt) Secondary ID(s) of Target Chain>
B2R6H4 C9IZA9 C9JAH6 Q6AI62 Q6NVZ0 Q9UHW4

> <UniProt (SwissProt) Alternative ID(s) of Target Chain>


> <UniProt (TrEMBL) Submitted Name of Target Chain>


> <UniProt (TrEMBL) Entry Name of Target Chain>


> <UniProt (TrEMBL) Primary ID of Target Chain>


> <UniProt (TrEMBL) Secondary ID(s) of Target Chain>


> <UniProt (TrEMBL) Alternative ID(s) of Target Chain>


$$$$
 
     RDKit          2D

 17 18  0  0  0  0  0  0  0  0999 V2000
   -2.4993   -0.2050    0.0000 C   0  0  0  0  0  0  0  0  0  0  0  0
   -1.7849    0.2074    0.0000 C   0  0  0  0  0  0  0  0  0  0  0  0
   -1.0704   -0.2050    0.0000 C   0  0  0  0  0  0  0  0  0  0  0  0
   -1.0704   -1.0300    0.0000 C   0  0  0  0  0  0  0  0  0  0  0  0
   -1.7849   -1.4425    0.0000 N   0  0  0  0  0  0  0  0  0  0  0  0
   -2.4993   -1.0300    0.0000 C   0  0  0  0  0  0  0  0  0  0  0  0
   -3.2136   -1.4424    0.0000 O   0  0  0  0  0  0  0  0  0  0  0  0
   -0.3562   -1.4424    0.0000 O   0  0  0  0  0  0  0  0  0  0  0  0
   -0.3562    0.2072    0.0000 C   0  0  0  0  0  0  0  0  0  0  0  0
    0.3580   -0.2050    0.0000 S   0  0  0  0  0  0  0  0  0  0  0  0
    1.0722    0.2072    0.0000 C   0  0  0  0  0  0  0  0  0  0  0  0
    1.0724    1.0320    0.0000 C   0  0  0  0  0  0  0  0  0  0  0  0
    1.7849    1.4425    0.0000 C   0  0  0  0  0  0  0  0  0  0  0  0
    2.4993    1.0300    0.0000 C   0  0  0  0  0  0  0  0  0  0  0  0
    2.5009    0.2094    0.0000 C   0  0  0  0  0  0  0  0  0  0  0  0
    1.7895   -0.2068    0.0000 C   0  0  0  0  0  0  0  0  0  0  0  0
    3.2136    1.4424    0.0000 Br  0  0  0  0  0  0  0  0  0  0  0  0
  1  2  1  0
  3  2  1  0
  4  3  1  0
  5  4  1  0
  1  6  1  0
  6  5  1  0
  6  7  2  0
  4  8  2  0
  3  9  1  0
  9 10  1  0
 10 11  1  0
 12 11  2  0
 13 12  1  0
 14 13  2  0
 15 14  1  0
 16 15  2  0
 11 16  1  0
 14 17  1  0
M  END
> <From>
www.bindingDB.org

> <BindingDB Reactant_set_id>
51553730

> <Ligand InChI>
InChI=1S/C12H12BrNO2S/c13-9-2-4-10(5-3-9)17-7-8-1-6-11(15)14-12(8)16/h2-5,8H,1,6-7H2,(H,14,15,16)

> <Ligand InChI Key>
OEVFVTRIZJFTEW-UHFFFAOYSA-N

> <BindingDB MonomerID>
50625123

> <BindingDB Ligand Name>
CHEMBL5418463

> <Target Name>
Protein cereblon

> <Target Source Organism According to Curator or DataSource>
Homo sapiens

> <Ki (nM)>
 3500

> <IC50 (nM)>


> <Kd (nM)>


> <EC50 (nM)>


> <kon (M-1-s-1)>


> <koff (s-1)>


> <pH>


> <Temp C>


> <Curation/DataSource>
ChEMBL

> <Article DOI>
10.1016/j.ejmech.2022.114990

> <BindingDB Entry DOI>
10.7270/Q2F1944V

> <PMID>
36476642

> <PubChem AID>


> <Patent Number>


> <Authors>
n/a

> <Date of publication>
1/15/2023

> <Date in BindingDB>
12/18/2024

> <Institution>
n/a

> <Link to Ligand in BindingDB>
http://www.bindingdb.org/bind/chemsearch/marvin/MolStructure.jsp?monomerid=50625123

> <Link to Ligand-Target Pair in BindingDB>
http://www.bindingdb.org/jsp/dbsearch/PrimarySearch_ki.jsp?energyterm=kJ/mole&tag=pol&polymerid=50007050&target=Protein+cereblon&column=ki&startPg=0&Increment=50&submit=Search

> <Link to Ligand-Target Pair in BindingDB>
http://www.bindingdb.org/jsp/dbsearch/PrimarySearch_ki.jsp?energyterm=kJ/mole&tag=r21&monomerid=50625123&enzyme=Protein+cereblon&column=ki&startPg=0&Increment=50&submit=Search

> <Ligand HET ID in PDB>


> <PDB ID(s) for Ligand-Target Complex>


> <PubChem CID>


> <PubChem SID>


> <ChEBI ID of Ligand>


> <ChEMBL ID of Ligand>


> <DrugBank ID of Ligand>


> <IUPHAR_GRAC ID of Ligand>


> <KEGG ID of Ligand>


> <ZINC ID of Ligand>


> <Number of Protein Chains in Target (bigger than 1 implies a multichain complex)>
1

> <BindingDB Target Chain Sequence>
MAGEGDQQDAAHNMGNHLPLLPAESEEEDEMEVEDQDSKEAKKPNIINFDTSLPTSHTYLGADMEEFHGRTLHDDDSCQVIPVLPQVMMILIPGQTLPLQLFHPQEVSMVRNLIQKDRTFAVLAYSNVQEREAQFGTTAEIYAYREEQDFGIEIVKVKAIGRQRFKVLELRTQSDGIQQAKVQILPECVLPSTMSAVQLESLNKCQIFPSKPVSREDQCSYKWWQKYQKRKFHCANLTSWPRWLYSLYDAETLMDRIKKQLREWDENLKDDSLPSNPIDFSYRVAACLPIDDVLRIQLLKIGSAIQRLRCELDIMNKCTSLCCKQCQETEITTKNEIFSLSLCGPMAAYVNPHGYVHETLTVYKACNLNLIGRPSTEHSWFPGYAWTVAQCKICASHIGWKFTATKKDMSPQKFWGLTRSALLPTIPDTEDEISPDKVILCL

> <PDB ID(s) of Target Chain>
8TNR,8TNQ,8TNP,8D81,8D80,8D7Z,8D7Y,8D7X,8D7W,8D7V,8D7U,8CVP,9DQD,8UH6,6BOY,6BNB,6BN9,6BN8,6BN7,6XK9,6UML,5V3O,5HXB,7U8F,8OJH,8OIZ,7LPS,4TZ4,9DJX,9DJT,8U17,8U16,8U15,8TZX,8DEY,9CUO,4M91

> <UniProt (SwissProt) Recommended Name of Target Chain>
Protein cereblon

> <UniProt (SwissProt) Entry Name of Target Chain>
CRBN_HUMAN

> <UniProt (SwissProt) Primary ID of Target Chain>
Q96SW2

> <UniProt (SwissProt) Secondary ID(s) of Target Chain>
B2R6H4 C9IZA9 C9JAH6 Q6AI62 Q6NVZ0 Q9UHW4

> <UniProt (SwissProt) Alternative ID(s) of Target Chain>


> <UniProt (TrEMBL) Submitted Name of Target Chain>


> <UniProt (TrEMBL) Entry Name of Target Chain>


> <UniProt (TrEMBL) Primary ID of Target Chain>


> <UniProt (TrEMBL) Secondary ID(s) of Target Chain>


> <UniProt (TrEMBL) Alternative ID(s) of Target Chain>


$$$$

     RDKit          2D

 19 21  0  0  0  0  0  0  0  0999 V2000
    1.7849    5.4933    0.0000 O   0  0  0  0  0  0  0  0  0  0  0  0
    1.3213    4.0667    0.0000 C   0  0  0  0  0  0  0  0  0  0  0  0
    2.3250    2.9520    0.0000 C   0  0  0  0  0  0  0  0  0  0  0  0
    1.8615    1.5254    0.0000 C   0  0  0  0  0  0  0  0  0  0  0  0
    0.3943    1.2135    0.0000 C   0  0  0  0  0  0  0  0  0  0  0  0
    1.2760    0.0000    0.0000 C   0  0  0  0  0  0  0  0  0  0  0  0
    0.3943   -1.2135    0.0000 C   0  0  0  0  0  0  0  0  0  0  0  0
    0.8578   -2.6401    0.0000 C   0  0  0  0  0  0  0  0  0  0  0  0
   -0.1459   -3.7548    0.0000 C   0  0  0  0  0  0  0  0  0  0  0  0
    0.3177   -5.1814    0.0000 C   0  0  0  0  0  0  0  0  0  0  0  0
    1.7849   -5.4933    0.0000 C   0  0  0  0  0  0  0  0  0  0  0  0
    2.7886   -4.3786    0.0000 C   0  0  0  0  0  0  0  0  0  0  0  0
    2.3250   -2.9520    0.0000 C   0  0  0  0  0  0  0  0  0  0  0  0
    3.3287   -1.8373    0.0000 Cl  0  0  0  0  0  0  0  0  0  0  0  0
   -1.0323   -0.7500    0.0000 N   0  0  0  0  0  0  0  0  0  0  0  0
   -1.0323    0.7500    0.0000 O   0  0  0  0  0  0  0  0  0  0  0  0
   -0.6094    2.3282    0.0000 C   0  0  0  0  0  0  0  0  0  0  0  0
   -2.0766    2.0164    0.0000 O   0  0  0  0  0  0  0  0  0  0  0  0
   -0.1459    3.7548    0.0000 N   0  0  0  0  0  0  0  0  0  0  0  0
  1  2  2  0
  2  3  1  0
  3  4  1  0
  4  5  1  0
  5  6  1  0
  6  7  1  0
  7  8  1  0
  8  9  2  0
  9 10  1  0
 10 11  2  0
 11 12  1  0
 12 13  2  0
 13 14  1  0
  7 15  2  0
 15 16  1  0
  5 17  1  0
 17 18  2  0
 17 19  1  0
 19  2  1  0
 16  5  1  0
 13  8  1  0
M  END
> <From>
www.bindingDB.org

> <BindingDB Reactant_set_id>
51588681

> <Ligand InChI>
InChI=1S/C13H11ClN2O3/c14-9-4-2-1-3-8(9)10-7-13(19-16-10)6-5-11(17)15-12(13)18/h1-4H,5-7H2,(H,15,17,18)

> <Ligand InChI Key>
BUCCPXBJMQOJMQ-UHFFFAOYSA-N

> <BindingDB MonomerID>
50639638

> <BindingDB Ligand Name>
CHEMBL5561114

> <Target Name>
Protein cereblon

> <Target Source Organism According to Curator or DataSource>
Human

> <Ki (nM)>
 3600

> <IC50 (nM)>


> <Kd (nM)>


> <EC50 (nM)>


> <kon (M-1-s-1)>


> <koff (s-1)>


> <pH>


> <Temp C>


> <Curation/DataSource>
ChEMBL

> <Article DOI>


> <BindingDB Entry DOI>
10.7270/Q2PC3713

> <PMID>
38552426

> <PubChem AID>


> <Patent Number>


> <Authors>
Shevalev, R; Bischof, L; Sapegin, A; Bunev, A; Olga, G; Kantin, G; Kalinin, S; Hartmann, MD

> <Date of publication>
//0

> <Date in BindingDB>
10/11/2025

> <Institution>
Saint Petersburg State University

> <Link to Ligand in BindingDB>
http://www.bindingdb.org/bind/chemsearch/marvin/MolStructure.jsp?monomerid=50639638

> <Link to Ligand-Target Pair in BindingDB>
http://www.bindingdb.org/rwd/jsp/dbsearch/PrimarySearch_ki.jsp?energyterm=kJ/mole&tag=pol&polymerid=50007050&target=Protein+cereblon&column=ki&startPg=0&Increment=50&submit=Search

> <Link to Ligand-Target Pair in BindingDB>
http://www.bindingdb.org/rwd/jsp/dbsearch/PrimarySearch_ki.jsp?energyterm=kJ/mole&tag=r21&monomerid=50639638&enzyme=Protein+cereblon&column=ki&startPg=0&Increment=50&submit=Search

> <Ligand HET ID in PDB>


> <PDB ID(s) for Ligand-Target Complex>


> <PubChem CID of Ligand>
177376698

> <PubChem SID of Ligand>
519660041

> <ChEBI ID of Ligand>


> <ChEMBL ID of Ligand>


> <DrugBank ID of Ligand>


> <IUPHAR_GRAC ID of Ligand>


> <KEGG ID of Ligand>


> <ZINC ID of Ligand>


> <Number of Protein Chains in Target (bigger than 1 implies a multichain complex)>
1

> <BindingDB Target Chain Sequence>
MAGEGDQQDAAHNMGNHLPLLPAESEEEDEMEVEDQDSKEAKKPNIINFDTSLPTSHTYLGADMEEFHGRTLHDDDSCQVIPVLPQVMMILIPGQTLPLQLFHPQEVSMVRNLIQKDRTFAVLAYSNVQEREAQFGTTAEIYAYREEQDFGIEIVKVKAIGRQRFKVLELRTQSDGIQQAKVQILPECVLPSTMSAVQLESLNKCQIFPSKPVSREDQCSYKWWQKYQKRKFHCANLTSWPRWLYSLYDAETLMDRIKKQLREWDENLKDDSLPSNPIDFSYRVAACLPIDDVLRIQLLKIGSAIQRLRCELDIMNKCTSLCCKQCQETEITTKNEIFSLSLCGPMAAYVNPHGYVHETLTVYKACNLNLIGRPSTEHSWFPGYAWTVAQCKICASHIGWKFTATKKDMSPQKFWGLTRSALLPTIPDTEDEISPDKVILCL

> <PDB ID(s) of Target Chain>
9DUR,8TNR,8TNQ,8TNP,9DWW,9DWV,9NGT,9NFR,9NFQ,8D81,8D80,8D7Z,8D7Y,8D7X,8D7W,8D7V,8D7U,8CVP,9Q2D,9Q03,9DQD,8UH6,9SAI,9SAF,9H59,9E2U,6BOY,6BNB,6BN9,6BN8,6BN7,9OUL,9Y7D,6XK9,6UML,5V3O,5HXB,9HNE,9D0X,9D0W,7U8F,9FJX,8OJH,8OIZ,7LPS,9SFM,9OTY,4TZ4,9DJX,9DJT,8U17,8U16,8U15,8TZX,8DEY,9CUO,4M91

> <UniProt (SwissProt) Recommended Name of Target Chain>
Protein cereblon

> <UniProt (SwissProt) Entry Name of Target Chain>
CRBN_HUMAN

> <UniProt (SwissProt) Primary ID of Target Chain>
Q96SW2

> <UniProt (SwissProt) Secondary ID(s) of Target Chain>
B2R6H4 C9IZA9 C9JAH6 Q6AI62 Q6NVZ0 Q9UHW4

> <UniProt (SwissProt) Alternative ID(s) of Target Chain>


> <UniProt (TrEMBL) Submitted Name of Target Chain>


> <UniProt (TrEMBL) Entry Name of Target Chain>


> <UniProt (TrEMBL) Primary ID of Target Chain>


> <UniProt (TrEMBL) Secondary ID(s) of Target Chain>


> <UniProt (TrEMBL) Alternative ID(s) of Target Chain>


$$$$

     RDKit          2D

 20 22  0  0  0  0  0  0  0  0999 V2000
    1.7849    5.4933    0.0000 O   0  0  0  0  0  0  0  0  0  0  0  0
    1.3213    4.0667    0.0000 C   0  0  0  0  0  0  0  0  0  0  0  0
    2.3250    2.9520    0.0000 C   0  0  0  0  0  0  0  0  0  0  0  0
    1.8615    1.5254    0.0000 C   0  0  0  0  0  0  0  0  0  0  0  0
    0.3943    1.2135    0.0000 C   0  0  0  0  0  0  0  0  0  0  0  0
    1.2760    0.0000    0.0000 C   0  0  0  0  0  0  0  0  0  0  0  0
    0.3943   -1.2135    0.0000 C   0  0  0  0  0  0  0  0  0  0  0  0
    0.8578   -2.6401    0.0000 C   0  0  0  0  0  0  0  0  0  0  0  0
   -0.1459   -3.7548    0.0000 C   0  0  0  0  0  0  0  0  0  0  0  0
    0.3177   -5.1814    0.0000 C   0  0  0  0  0  0  0  0  0  0  0  0
    1.7849   -5.4933    0.0000 C   0  0  0  0  0  0  0  0  0  0  0  0
    2.2484   -6.9199    0.0000 Cl  0  0  0  0  0  0  0  0  0  0  0  0
    2.7886   -4.3786    0.0000 C   0  0  0  0  0  0  0  0  0  0  0  0
    2.3250   -2.9520    0.0000 C   0  0  0  0  0  0  0  0  0  0  0  0
    3.3287   -1.8373    0.0000 Cl  0  0  0  0  0  0  0  0  0  0  0  0
   -1.0323   -0.7500    0.0000 N   0  0  0  0  0  0  0  0  0  0  0  0
   -1.0323    0.7500    0.0000 O   0  0  0  0  0  0  0  0  0  0  0  0
   -0.6094    2.3282    0.0000 C   0  0  0  0  0  0  0  0  0  0  0  0
   -2.0766    2.0164    0.0000 O   0  0  0  0  0  0  0  0  0  0  0  0
   -0.1459    3.7548    0.0000 N   0  0  0  0  0  0  0  0  0  0  0  0
  1  2  2  0
  2  3  1  0
  3  4  1  0
  4  5  1  0
  5  6  1  0
  6  7  1  0
  7  8  1  0
  8  9  2  0
  9 10  1  0
 10 11  2  0
 11 12  1  0
 11 13  1  0
 13 14  2  0
 14 15  1  0
  7 16  2  0
 16 17  1  0
  5 18  1  0
 18 19  2  0
 18 20  1  0
 20  2  1  0
 17  5  1  0
 14  8  1  0
M  END
> <From>
www.bindingDB.org

> <BindingDB Reactant_set_id>
51588682

> <Ligand InChI>
InChI=1S/C13H10Cl2N2O3/c14-7-1-2-8(9(15)5-7)10-6-13(20-17-10)4-3-11(18)16-12(13)19/h1-2,5H,3-4,6H2,(H,16,18,19)

> <Ligand InChI Key>
KFAVXUHSPFYSLI-UHFFFAOYSA-N

> <BindingDB MonomerID>
50639639

> <BindingDB Ligand Name>
CHEMBL5563368

> <Target Name>
Protein cereblon

> <Target Source Organism According to Curator or DataSource>
Human

> <Ki (nM)>
 3700

> <IC50 (nM)>


> <Kd (nM)>


> <EC50 (nM)>


> <kon (M-1-s-1)>


> <koff (s-1)>


> <pH>


> <Temp C>


> <Curation/DataSource>
ChEMBL

> <Article DOI>


> <BindingDB Entry DOI>
10.7270/Q2PC3713

> <PMID>
38552426

> <PubChem AID>


> <Patent Number>


> <Authors>
Shevalev, R; Bischof, L; Sapegin, A; Bunev, A; Olga, G; Kantin, G; Kalinin, S; Hartmann, MD

> <Date of publication>
//0

> <Date in BindingDB>
10/11/2025

> <Institution>
Saint Petersburg State University

> <Link to Ligand in BindingDB>
http://www.bindingdb.org/bind/chemsearch/marvin/MolStructure.jsp?monomerid=50639639

> <Link to Ligand-Target Pair in BindingDB>
http://www.bindingdb.org/rwd/jsp/dbsearch/PrimarySearch_ki.jsp?energyterm=kJ/mole&tag=pol&polymerid=50007050&target=Protein+cereblon&column=ki&startPg=0&Increment=50&submit=Search

> <Link to Ligand-Target Pair in BindingDB>
http://www.bindingdb.org/rwd/jsp/dbsearch/PrimarySearch_ki.jsp?energyterm=kJ/mole&tag=r21&monomerid=50639639&enzyme=Protein+cereblon&column=ki&startPg=0&Increment=50&submit=Search

> <Ligand HET ID in PDB>


> <PDB ID(s) for Ligand-Target Complex>


> <PubChem CID of Ligand>
177376699

> <PubChem SID of Ligand>
519660042

> <ChEBI ID of Ligand>


> <ChEMBL ID of Ligand>


> <DrugBank ID of Ligand>


> <IUPHAR_GRAC ID of Ligand>


> <KEGG ID of Ligand>


> <ZINC ID of Ligand>


> <Number of Protein Chains in Target (bigger than 1 implies a multichain complex)>
1

> <BindingDB Target Chain Sequence>
MAGEGDQQDAAHNMGNHLPLLPAESEEEDEMEVEDQDSKEAKKPNIINFDTSLPTSHTYLGADMEEFHGRTLHDDDSCQVIPVLPQVMMILIPGQTLPLQLFHPQEVSMVRNLIQKDRTFAVLAYSNVQEREAQFGTTAEIYAYREEQDFGIEIVKVKAIGRQRFKVLELRTQSDGIQQAKVQILPECVLPSTMSAVQLESLNKCQIFPSKPVSREDQCSYKWWQKYQKRKFHCANLTSWPRWLYSLYDAETLMDRIKKQLREWDENLKDDSLPSNPIDFSYRVAACLPIDDVLRIQLLKIGSAIQRLRCELDIMNKCTSLCCKQCQETEITTKNEIFSLSLCGPMAAYVNPHGYVHETLTVYKACNLNLIGRPSTEHSWFPGYAWTVAQCKICASHIGWKFTATKKDMSPQKFWGLTRSALLPTIPDTEDEISPDKVILCL

> <PDB ID(s) of Target Chain>
9DUR,8TNR,8TNQ,8TNP,9DWW,9DWV,9NGT,9NFR,9NFQ,8D81,8D80,8D7Z,8D7Y,8D7X,8D7W,8D7V,8D7U,8CVP,9Q2D,9Q03,9DQD,8UH6,9SAI,9SAF,9H59,9E2U,6BOY,6BNB,6BN9,6BN8,6BN7,9OUL,9Y7D,6XK9,6UML,5V3O,5HXB,9HNE,9D0X,9D0W,7U8F,9FJX,8OJH,8OIZ,7LPS,9SFM,9OTY,4TZ4,9DJX,9DJT,8U17,8U16,8U15,8TZX,8DEY,9CUO,4M91

> <UniProt (SwissProt) Recommended Name of Target Chain>
Protein cereblon

> <UniProt (SwissProt) Entry Name of Target Chain>
CRBN_HUMAN

> <UniProt (SwissProt) Primary ID of Target Chain>
Q96SW2

> <UniProt (SwissProt) Secondary ID(s) of Target Chain>
B2R6H4 C9IZA9 C9JAH6 Q6AI62 Q6NVZ0 Q9UHW4

> <UniProt (SwissProt) Alternative ID(s) of Target Chain>


> <UniProt (TrEMBL) Submitted Name of Target Chain>


> <UniProt (TrEMBL) Entry Name of Target Chain>


> <UniProt (TrEMBL) Primary ID of Target Chain>


> <UniProt (TrEMBL) Secondary ID(s) of Target Chain>


> <UniProt (TrEMBL) Alternative ID(s) of Target Chain>


$$$$

     RDKit          2D

 20 22  0  0  0  0  0  0  0  0999 V2000
    1.7849    5.4933    0.0000 O   0  0  0  0  0  0  0  0  0  0  0  0
    1.3213    4.0667    0.0000 C   0  0  0  0  0  0  0  0  0  0  0  0
    2.3250    2.9520    0.0000 C   0  0  0  0  0  0  0  0  0  0  0  0
    1.8615    1.5254    0.0000 C   0  0  0  0  0  0  0  0  0  0  0  0
    0.3943    1.2135    0.0000 C   0  0  0  0  0  0  0  0  0  0  0  0
    1.2760    0.0000    0.0000 C   0  0  0  0  0  0  0  0  0  0  0  0
    0.3943   -1.2135    0.0000 C   0  0  0  0  0  0  0  0  0  0  0  0
    0.8578   -2.6401    0.0000 C   0  0  0  0  0  0  0  0  0  0  0  0
   -0.1459   -3.7548    0.0000 C   0  0  0  0  0  0  0  0  0  0  0  0
   -1.6131   -3.4430    0.0000 Cl  0  0  0  0  0  0  0  0  0  0  0  0
    0.3177   -5.1814    0.0000 C   0  0  0  0  0  0  0  0  0  0  0  0
    1.7849   -5.4933    0.0000 C   0  0  0  0  0  0  0  0  0  0  0  0
    2.7886   -4.3786    0.0000 C   0  0  0  0  0  0  0  0  0  0  0  0
    2.3250   -2.9520    0.0000 C   0  0  0  0  0  0  0  0  0  0  0  0
    3.3287   -1.8373    0.0000 Cl  0  0  0  0  0  0  0  0  0  0  0  0
   -1.0323   -0.7500    0.0000 N   0  0  0  0  0  0  0  0  0  0  0  0
   -1.0323    0.7500    0.0000 O   0  0  0  0  0  0  0  0  0  0  0  0
   -0.6094    2.3282    0.0000 C   0  0  0  0  0  0  0  0  0  0  0  0
   -2.0766    2.0164    0.0000 O   0  0  0  0  0  0  0  0  0  0  0  0
   -0.1459    3.7548    0.0000 N   0  0  0  0  0  0  0  0  0  0  0  0
  1  2  2  0
  2  3  1  0
  3  4  1  0
  4  5  1  0
  5  6  1  0
  6  7  1  0
  7  8  1  0
  8  9  2  0
  9 10  1  0
  9 11  1  0
 11 12  2  0
 12 13  1  0
 13 14  2  0
 14 15  1  0
  7 16  2  0
 16 17  1  0
  5 18  1  0
 18 19  2  0
 18 20  1  0
 20  2  1  0
 17  5  1  0
 14  8  1  0
M  END
> <From>
www.bindingDB.org

> <BindingDB Reactant_set_id>
51588683

> <Ligand InChI>
InChI=1S/C13H10Cl2N2O3/c14-7-2-1-3-8(15)11(7)9-6-13(20-17-9)5-4-10(18)16-12(13)19/h1-3H,4-6H2,(H,16,18,19)

> <Ligand InChI Key>
IDGGGSXKPHJBAR-UHFFFAOYSA-N

> <BindingDB MonomerID>
50639640

> <BindingDB Ligand Name>
CHEMBL5559649

> <Target Name>
Protein cereblon

> <Target Source Organism According to Curator or DataSource>
Human

> <Ki (nM)>
 3800

> <IC50 (nM)>


> <Kd (nM)>


> <EC50 (nM)>


> <kon (M-1-s-1)>


> <koff (s-1)>


> <pH>


> <Temp C>


> <Curation/DataSource>
ChEMBL

> <Article DOI>


> <BindingDB Entry DOI>
10.7270/Q2PC3713

> <PMID>
38552426

> <PubChem AID>


> <Patent Number>


> <Authors>
Shevalev, R; Bischof, L; Sapegin, A; Bunev, A; Olga, G; Kantin, G; Kalinin, S; Hartmann, MD

> <Date of publication>
//0

> <Date in BindingDB>
10/11/2025

> <Institution>
Saint Petersburg State University

> <Link to Ligand in BindingDB>
http://www.bindingdb.org/bind/chemsearch/marvin/MolStructure.jsp?monomerid=50639640

> <Link to Ligand-Target Pair in BindingDB>
http://www.bindingdb.org/rwd/jsp/dbsearch/PrimarySearch_ki.jsp?energyterm=kJ/mole&tag=pol&polymerid=50007050&target=Protein+cereblon&column=ki&startPg=0&Increment=50&submit=Search

> <Link to Ligand-Target Pair in BindingDB>
http://www.bindingdb.org/rwd/jsp/dbsearch/PrimarySearch_ki.jsp?energyterm=kJ/mole&tag=r21&monomerid=50639640&enzyme=Protein+cereblon&column=ki&startPg=0&Increment=50&submit=Search

> <Ligand HET ID in PDB>


> <PDB ID(s) for Ligand-Target Complex>


> <PubChem CID of Ligand>
177376700

> <PubChem SID of Ligand>
519660043

> <ChEBI ID of Ligand>


> <ChEMBL ID of Ligand>


> <DrugBank ID of Ligand>


> <IUPHAR_GRAC ID of Ligand>


> <KEGG ID of Ligand>


> <ZINC ID of Ligand>


> <Number of Protein Chains in Target (bigger than 1 implies a multichain complex)>
1

> <BindingDB Target Chain Sequence>
MAGEGDQQDAAHNMGNHLPLLPAESEEEDEMEVEDQDSKEAKKPNIINFDTSLPTSHTYLGADMEEFHGRTLHDDDSCQVIPVLPQVMMILIPGQTLPLQLFHPQEVSMVRNLIQKDRTFAVLAYSNVQEREAQFGTTAEIYAYREEQDFGIEIVKVKAIGRQRFKVLELRTQSDGIQQAKVQILPECVLPSTMSAVQLESLNKCQIFPSKPVSREDQCSYKWWQKYQKRKFHCANLTSWPRWLYSLYDAETLMDRIKKQLREWDENLKDDSLPSNPIDFSYRVAACLPIDDVLRIQLLKIGSAIQRLRCELDIMNKCTSLCCKQCQETEITTKNEIFSLSLCGPMAAYVNPHGYVHETLTVYKACNLNLIGRPSTEHSWFPGYAWTVAQCKICASHIGWKFTATKKDMSPQKFWGLTRSALLPTIPDTEDEISPDKVILCL

> <PDB ID(s) of Target Chain>
9DUR,8TNR,8TNQ,8TNP,9DWW,9DWV,9NGT,9NFR,9NFQ,8D81,8D80,8D7Z,8D7Y,8D7X,8D7W,8D7V,8D7U,8CVP,9Q2D,9Q03,9DQD,8UH6,9SAI,9SAF,9H59,9E2U,6BOY,6BNB,6BN9,6BN8,6BN7,9OUL,9Y7D,6XK9,6UML,5V3O,5HXB,9HNE,9D0X,9D0W,7U8F,9FJX,8OJH,8OIZ,7LPS,9SFM,9OTY,4TZ4,9DJX,9DJT,8U17,8U16,8U15,8TZX,8DEY,9CUO,4M91

> <UniProt (SwissProt) Recommended Name of Target Chain>
Protein cereblon

> <UniProt (SwissProt) Entry Name of Target Chain>
CRBN_HUMAN

> <UniProt (SwissProt) Primary ID of Target Chain>
Q96SW2

> <UniProt (SwissProt) Secondary ID(s) of Target Chain>
B2R6H4 C9IZA9 C9JAH6 Q6AI62 Q6NVZ0 Q9UHW4

> <UniProt (SwissProt) Alternative ID(s) of Target Chain>


> <UniProt (TrEMBL) Submitted Name of Target Chain>


> <UniProt (TrEMBL) Entry Name of Target Chain>


> <UniProt (TrEMBL) Primary ID of Target Chain>


> <UniProt (TrEMBL) Secondary ID(s) of Target Chain>


> <UniProt (TrEMBL) Alternative ID(s) of Target Chain>


$$$$
 
     RDKit          2D

 24 26  0  0  0  0  0  0  0  0999 V2000
    1.0709    1.0304    0.0000 N   0  0  0  0  0  0  0  0  0  0  0  0
    1.7853    1.4430    0.0000 C   0  0  0  0  0  0  0  0  0  0  0  0
    1.7853    2.2679    0.0000 C   0  0  0  0  0  0  0  0  0  0  0  0
    2.4998    2.6804    0.0000 C   0  0  0  0  0  0  0  0  0  0  0  0
    3.2143    2.2679    0.0000 C   0  0  0  0  0  0  0  0  0  0  0  0
    3.2143    1.4429    0.0000 N   0  0  0  0  0  0  0  0  0  0  0  0
    2.4998    1.0304    0.0000 C   0  0  0  0  0  0  0  0  0  0  0  0
    2.4998    0.2054    0.0000 O   0  0  0  0  0  0  0  0  0  0  0  0
    3.9288    2.6804    0.0000 O   0  0  0  0  0  0  0  0  0  0  0  0
    1.0709    0.2054    0.0000 N   0  0  0  0  0  0  0  0  0  0  0  0
    0.3564   -0.2070    0.0000 N   0  0  0  0  0  0  0  0  0  0  0  0
   -0.3580    0.2054    0.0000 C   0  0  0  0  0  0  0  0  0  0  0  0
   -0.3580    1.0305    0.0000 C   0  0  0  0  0  0  0  0  0  0  0  0
    0.3564    1.4430    0.0000 C   0  0  0  0  0  0  0  0  0  0  0  0
    0.3564    2.2679    0.0000 O   0  0  0  0  0  0  0  0  0  0  0  0
   -1.0705   -0.2052    0.0000 C   0  0  0  0  0  0  0  0  0  0  0  0
   -1.7853    0.2070    0.0000 C   0  0  0  0  0  0  0  0  0  0  0  0
   -1.7871    1.0279    0.0000 C   0  0  0  0  0  0  0  0  0  0  0  0
   -1.0756    1.4444    0.0000 C   0  0  0  0  0  0  0  0  0  0  0  0
   -2.4996   -0.2054    0.0000 N   0  0  0  0  0  0  0  0  0  0  0  0
   -2.4996   -1.0304    0.0000 C   0  0  0  0  0  0  0  0  0  0  0  0
   -3.2143   -1.4429    0.0000 C   0  0  0  0  0  0  0  0  0  0  0  0
   -3.2143   -2.2679    0.0000 C   0  0  0  0  0  0  0  0  0  0  0  0
   -3.9288   -2.6804    0.0000 C   0  0  0  0  0  0  0  0  0  0  0  0
  1  2  1  0
  2  3  1  0
  3  4  1  0
  4  5  1  0
  5  6  1  0
  6  7  1  0
  2  7  1  0
  7  8  2  0
  5  9  2  0
 10  1  1  0
 11 10  2  0
 12 11  1  0
 13 12  2  0
 14 13  1  0
  1 14  1  0
 14 15  2  0
 12 16  1  0
 17 16  2  0
 18 17  1  0
 19 18  2  0
 13 19  1  0
 17 20  1  0
 20 21  1  0
 21 22  1  0
 22 23  1  0
 23 24  1  0
M  END
> <From>
www.bindingDB.org

> <BindingDB Reactant_set_id>
51567952

> <Ligand InChI>
InChI=1S/C16H19N5O3/c1-2-3-8-17-10-4-5-11-12(9-10)19-20-21(16(11)24)13-6-7-14(22)18-15(13)23/h4-5,9,13,17H,2-3,6-8H2,1H3,(H,18,22,23)

> <Ligand InChI Key>
BWYRJHMYILLTOI-UHFFFAOYSA-N

> <BindingDB MonomerID>
50630606

> <BindingDB Ligand Name>
CHEMBL5414951

> <Target Name>
Protein cereblon

> <Target Source Organism According to Curator or DataSource>
Homo sapiens

> <Ki (nM)>
 3900

> <IC50 (nM)>


> <Kd (nM)>


> <EC50 (nM)>


> <kon (M-1-s-1)>


> <koff (s-1)>


> <pH>


> <Temp C>


> <Curation/DataSource>
ChEMBL

> <Article DOI>
10.1021/acs.jmedchem.3c00851

> <BindingDB Entry DOI>
10.7270/Q2PK0MM6

> <PMID>
37902300

> <PubChem AID>


> <Patent Number>


> <Authors>
Steinebach, C; Bricelj, A; Murgai, A; Sosič, I; Bischof, L; Ng, YLD; Heim, C; Maiwald, S; Proj, M; Voget, R; Feller, F; Košmrlj, J; Sapozhnikova, V; Schmidt, A; Zuleeg, MR; Lemnitzer, P; Mertins, P; Hansen, FK; Gütschow, M; Krönke, J; Hartmann, MD

> <Date of publication>
11/9/2023

> <Date in BindingDB>
12/20/2024

> <Institution>
University of Bonn

> <Link to Ligand in BindingDB>
http://www.bindingdb.org/bind/chemsearch/marvin/MolStructure.jsp?monomerid=50630606

> <Link to Ligand-Target Pair in BindingDB>
http://www.bindingdb.org/jsp/dbsearch/PrimarySearch_ki.jsp?energyterm=kJ/mole&tag=pol&polymerid=50007050&target=Protein+cereblon&column=ki&startPg=0&Increment=50&submit=Search

> <Link to Ligand-Target Pair in BindingDB>
http://www.bindingdb.org/jsp/dbsearch/PrimarySearch_ki.jsp?energyterm=kJ/mole&tag=r21&monomerid=50630606&enzyme=Protein+cereblon&column=ki&startPg=0&Increment=50&submit=Search

> <Ligand HET ID in PDB>


> <PDB ID(s) for Ligand-Target Complex>


> <PubChem CID of Ligand>
172452876

> <PubChem SID of Ligand>
505048577

> <ChEBI ID of Ligand>


> <ChEMBL ID of Ligand>


> <DrugBank ID of Ligand>


> <IUPHAR_GRAC ID of Ligand>


> <KEGG ID of Ligand>


> <ZINC ID of Ligand>


> <Number of Protein Chains in Target (bigger than 1 implies a multichain complex)>
1

> <BindingDB Target Chain Sequence>
MAGEGDQQDAAHNMGNHLPLLPAESEEEDEMEVEDQDSKEAKKPNIINFDTSLPTSHTYLGADMEEFHGRTLHDDDSCQVIPVLPQVMMILIPGQTLPLQLFHPQEVSMVRNLIQKDRTFAVLAYSNVQEREAQFGTTAEIYAYREEQDFGIEIVKVKAIGRQRFKVLELRTQSDGIQQAKVQILPECVLPSTMSAVQLESLNKCQIFPSKPVSREDQCSYKWWQKYQKRKFHCANLTSWPRWLYSLYDAETLMDRIKKQLREWDENLKDDSLPSNPIDFSYRVAACLPIDDVLRIQLLKIGSAIQRLRCELDIMNKCTSLCCKQCQETEITTKNEIFSLSLCGPMAAYVNPHGYVHETLTVYKACNLNLIGRPSTEHSWFPGYAWTVAQCKICASHIGWKFTATKKDMSPQKFWGLTRSALLPTIPDTEDEISPDKVILCL

> <PDB ID(s) of Target Chain>
8TNR,8TNQ,8TNP,8D81,8D80,8D7Z,8D7Y,8D7X,8D7W,8D7V,8D7U,8CVP,9DQD,8UH6,6BOY,6BNB,6BN9,6BN8,6BN7,6XK9,6UML,5V3O,5HXB,7U8F,8OJH,8OIZ,7LPS,4TZ4,9DJX,9DJT,8U17,8U16,8U15,8TZX,8DEY,9CUO,4M91

> <UniProt (SwissProt) Recommended Name of Target Chain>
Protein cereblon

> <UniProt (SwissProt) Entry Name of Target Chain>
CRBN_HUMAN

> <UniProt (SwissProt) Primary ID of Target Chain>
Q96SW2

> <UniProt (SwissProt) Secondary ID(s) of Target Chain>
B2R6H4 C9IZA9 C9JAH6 Q6AI62 Q6NVZ0 Q9UHW4

> <UniProt (SwissProt) Alternative ID(s) of Target Chain>


> <UniProt (TrEMBL) Submitted Name of Target Chain>


> <UniProt (TrEMBL) Entry Name of Target Chain>


> <UniProt (TrEMBL) Primary ID of Target Chain>


> <UniProt (TrEMBL) Secondary ID(s) of Target Chain>


> <UniProt (TrEMBL) Alternative ID(s) of Target Chain>


$$$$
 
     RDKit          2D

 19 20  0  0  0  0  0  0  0  0999 V2000
    0.3572    1.0312    0.0000 C   0  0  0  0  0  0  0  0  0  0  0  0
    1.0716    1.4437    0.0000 C   0  0  0  0  0  0  0  0  0  0  0  0
    1.0716    2.2687    0.0000 C   0  0  0  0  0  0  0  0  0  0  0  0
    1.7861    2.6812    0.0000 C   0  0  0  0  0  0  0  0  0  0  0  0
    2.5005    2.2686    0.0000 C   0  0  0  0  0  0  0  0  0  0  0  0
    2.5005    1.4437    0.0000 N   0  0  0  0  0  0  0  0  0  0  0  0
    1.7861    1.0312    0.0000 C   0  0  0  0  0  0  0  0  0  0  0  0
    1.7861    0.2062    0.0000 O   0  0  0  0  0  0  0  0  0  0  0  0
    3.2150    2.6812    0.0000 O   0  0  0  0  0  0  0  0  0  0  0  0
    0.3572    0.2062    0.0000 C   0  0  0  0  0  0  0  0  0  0  0  0
   -0.3572   -0.2062    0.0000 C   0  0  0  0  0  0  0  0  0  0  0  0
   -1.0716    0.2062    0.0000 C   0  0  0  0  0  0  0  0  0  0  0  0
   -1.0716    1.0312    0.0000 C   0  0  0  0  0  0  0  0  0  0  0  0
   -0.3572    1.4437    0.0000 C   0  0  0  0  0  0  0  0  0  0  0  0
   -1.7861   -0.2062    0.0000 O   0  0  0  0  0  0  0  0  0  0  0  0
   -1.7861   -1.0312    0.0000 C   0  0  0  0  0  0  0  0  0  0  0  0
   -2.5005   -1.4437    0.0000 C   0  0  0  0  0  0  0  0  0  0  0  0
   -2.5005   -2.2687    0.0000 C   0  0  0  0  0  0  0  0  0  0  0  0
   -3.2150   -2.6812    0.0000 C   0  0  0  0  0  0  0  0  0  0  0  0
  1  2  1  0
  2  3  1  0
  3  4  1  0
  4  5  1  0
  5  6  1  0
  6  7  1  0
  2  7  1  0
  7  8  2  0
  5  9  2  0
 10  1  1  0
 11 10  2  0
 12 11  1  0
 13 12  2  0
 14 13  1  0
  1 14  2  0
 12 15  1  0
 15 16  1  0
 16 17  1  0
 17 18  1  0
 18 19  1  0
M  END
> <From>
www.bindingDB.org

> <BindingDB Reactant_set_id>
51567953

> <Ligand InChI>
InChI=1S/C15H19NO3/c1-2-3-10-19-12-6-4-11(5-7-12)13-8-9-14(17)16-15(13)18/h4-7,13H,2-3,8-10H2,1H3,(H,16,17,18)

> <Ligand InChI Key>
YAHLYYMAJMLQQH-UHFFFAOYSA-N

> <BindingDB MonomerID>
50630607

> <BindingDB Ligand Name>
CHEMBL5427990

> <Target Name>
Protein cereblon

> <Target Source Organism According to Curator or DataSource>
Homo sapiens

> <Ki (nM)>
 3900

> <IC50 (nM)>


> <Kd (nM)>


> <EC50 (nM)>


> <kon (M-1-s-1)>


> <koff (s-1)>


> <pH>


> <Temp C>


> <Curation/DataSource>
ChEMBL

> <Article DOI>
10.1021/acs.jmedchem.3c00851

> <BindingDB Entry DOI>
10.7270/Q2PK0MM6

> <PMID>
37902300

> <PubChem AID>


> <Patent Number>


> <Authors>
Steinebach, C; Bricelj, A; Murgai, A; Sosič, I; Bischof, L; Ng, YLD; Heim, C; Maiwald, S; Proj, M; Voget, R; Feller, F; Košmrlj, J; Sapozhnikova, V; Schmidt, A; Zuleeg, MR; Lemnitzer, P; Mertins, P; Hansen, FK; Gütschow, M; Krönke, J; Hartmann, MD

> <Date of publication>
11/9/2023

> <Date in BindingDB>
12/20/2024

> <Institution>
University of Bonn

> <Link to Ligand in BindingDB>
http://www.bindingdb.org/bind/chemsearch/marvin/MolStructure.jsp?monomerid=50630607

> <Link to Ligand-Target Pair in BindingDB>
http://www.bindingdb.org/jsp/dbsearch/PrimarySearch_ki.jsp?energyterm=kJ/mole&tag=pol&polymerid=50007050&target=Protein+cereblon&column=ki&startPg=0&Increment=50&submit=Search

> <Link to Ligand-Target Pair in BindingDB>
http://www.bindingdb.org/jsp/dbsearch/PrimarySearch_ki.jsp?energyterm=kJ/mole&tag=r21&monomerid=50630607&enzyme=Protein+cereblon&column=ki&startPg=0&Increment=50&submit=Search

> <Ligand HET ID in PDB>


> <PDB ID(s) for Ligand-Target Complex>


> <PubChem CID of Ligand>
12399099

> <PubChem SID of Ligand>
505048578

> <ChEBI ID of Ligand>


> <ChEMBL ID of Ligand>


> <DrugBank ID of Ligand>


> <IUPHAR_GRAC ID of Ligand>


> <KEGG ID of Ligand>


> <ZINC ID of Ligand>


> <Number of Protein Chains in Target (bigger than 1 implies a multichain complex)>
1

> <BindingDB Target Chain Sequence>
MAGEGDQQDAAHNMGNHLPLLPAESEEEDEMEVEDQDSKEAKKPNIINFDTSLPTSHTYLGADMEEFHGRTLHDDDSCQVIPVLPQVMMILIPGQTLPLQLFHPQEVSMVRNLIQKDRTFAVLAYSNVQEREAQFGTTAEIYAYREEQDFGIEIVKVKAIGRQRFKVLELRTQSDGIQQAKVQILPECVLPSTMSAVQLESLNKCQIFPSKPVSREDQCSYKWWQKYQKRKFHCANLTSWPRWLYSLYDAETLMDRIKKQLREWDENLKDDSLPSNPIDFSYRVAACLPIDDVLRIQLLKIGSAIQRLRCELDIMNKCTSLCCKQCQETEITTKNEIFSLSLCGPMAAYVNPHGYVHETLTVYKACNLNLIGRPSTEHSWFPGYAWTVAQCKICASHIGWKFTATKKDMSPQKFWGLTRSALLPTIPDTEDEISPDKVILCL

> <PDB ID(s) of Target Chain>
8TNR,8TNQ,8TNP,8D81,8D80,8D7Z,8D7Y,8D7X,8D7W,8D7V,8D7U,8CVP,9DQD,8UH6,6BOY,6BNB,6BN9,6BN8,6BN7,6XK9,6UML,5V3O,5HXB,7U8F,8OJH,8OIZ,7LPS,4TZ4,9DJX,9DJT,8U17,8U16,8U15,8TZX,8DEY,9CUO,4M91

> <UniProt (SwissProt) Recommended Name of Target Chain>
Protein cereblon

> <UniProt (SwissProt) Entry Name of Target Chain>
CRBN_HUMAN

> <UniProt (SwissProt) Primary ID of Target Chain>
Q96SW2

> <UniProt (SwissProt) Secondary ID(s) of Target Chain>
B2R6H4 C9IZA9 C9JAH6 Q6AI62 Q6NVZ0 Q9UHW4

> <UniProt (SwissProt) Alternative ID(s) of Target Chain>


> <UniProt (TrEMBL) Submitted Name of Target Chain>


> <UniProt (TrEMBL) Entry Name of Target Chain>


> <UniProt (TrEMBL) Primary ID of Target Chain>


> <UniProt (TrEMBL) Secondary ID(s) of Target Chain>


> <UniProt (TrEMBL) Alternative ID(s) of Target Chain>


$$$$
 
     RDKit          2D

 19 20  0  0  0  0  0  0  0  0999 V2000
   -2.8575    0.8254    0.0000 C   0  0  0  0  0  0  0  0  0  0  0  0
   -2.1431    1.2380    0.0000 C   0  0  0  0  0  0  0  0  0  0  0  0
   -1.4286    0.8254    0.0000 C   0  0  0  0  0  0  0  0  0  0  0  0
   -1.4286    0.0004    0.0000 C   0  0  0  0  0  0  0  0  0  0  0  0
   -2.1431   -0.4120    0.0000 N   0  0  0  0  0  0  0  0  0  0  0  0
   -2.8575    0.0004    0.0000 C   0  0  0  0  0  0  0  0  0  0  0  0
   -3.5718   -0.4118    0.0000 O   0  0  0  0  0  0  0  0  0  0  0  0
   -0.7143   -0.4118    0.0000 O   0  0  0  0  0  0  0  0  0  0  0  0
   -0.7143    1.2378    0.0000 C   0  0  0  0  0  0  0  0  0  0  0  0
   -0.0001    0.8254    0.0000 S   0  0  0  0  0  0  0  0  0  0  0  0
    0.7140    1.2378    0.0000 C   0  0  0  0  0  0  0  0  0  0  0  0
    1.4314    0.8237    0.0000 C   0  0  0  0  0  0  0  0  0  0  0  0
    2.1458    1.2359    0.0000 C   0  0  0  0  0  0  0  0  0  0  0  0
    2.8575    0.8241    0.0000 C   0  0  0  0  0  0  0  0  0  0  0  0
    2.8575   -0.0008    0.0000 C   0  0  0  0  0  0  0  0  0  0  0  0
    2.1476   -0.4125    0.0000 C   0  0  0  0  0  0  0  0  0  0  0  0
    1.4314   -0.0045    0.0000 C   0  0  0  0  0  0  0  0  0  0  0  0
    3.5718   -0.4132    0.0000 O   0  0  0  0  0  0  0  0  0  0  0  0
    3.5718   -1.2380    0.0000 C   0  0  0  0  0  0  0  0  0  0  0  0
  1  2  1  0
  3  2  1  0
  4  3  1  0
  5  4  1  0
  1  6  1  0
  6  5  1  0
  6  7  2  0
  4  8  2  0
  3  9  1  0
  9 10  1  0
 10 11  1  0
 11 12  1  0
 13 12  2  0
 14 13  1  0
 15 14  2  0
 16 15  1  0
 17 16  2  0
 12 17  1  0
 15 18  1  0
 18 19  1  0
M  END
> <From>
www.bindingDB.org

> <BindingDB Reactant_set_id>
51553738

> <Ligand InChI>
InChI=1S/C14H17NO3S/c1-18-12-5-2-10(3-6-12)8-19-9-11-4-7-13(16)15-14(11)17/h2-3,5-6,11H,4,7-9H2,1H3,(H,15,16,17)

> <Ligand InChI Key>
UWYCETXDSZQZSS-UHFFFAOYSA-N

> <BindingDB MonomerID>
50625131

> <BindingDB Ligand Name>
CHEMBL5418032

> <Target Name>
Protein cereblon

> <Target Source Organism According to Curator or DataSource>
Homo sapiens

> <Ki (nM)>
 4000

> <IC50 (nM)>


> <Kd (nM)>


> <EC50 (nM)>


> <kon (M-1-s-1)>


> <koff (s-1)>


> <pH>


> <Temp C>


> <Curation/DataSource>
ChEMBL

> <Article DOI>
10.1016/j.ejmech.2022.114990

> <BindingDB Entry DOI>
10.7270/Q2F1944V

> <PMID>
36476642

> <PubChem AID>


> <Patent Number>


> <Authors>
n/a

> <Date of publication>
1/15/2023

> <Date in BindingDB>
12/18/2024

> <Institution>
n/a

> <Link to Ligand in BindingDB>
http://www.bindingdb.org/bind/chemsearch/marvin/MolStructure.jsp?monomerid=50625131

> <Link to Ligand-Target Pair in BindingDB>
http://www.bindingdb.org/jsp/dbsearch/PrimarySearch_ki.jsp?energyterm=kJ/mole&tag=pol&polymerid=50007050&target=Protein+cereblon&column=ki&startPg=0&Increment=50&submit=Search

> <Link to Ligand-Target Pair in BindingDB>
http://www.bindingdb.org/jsp/dbsearch/PrimarySearch_ki.jsp?energyterm=kJ/mole&tag=r21&monomerid=50625131&enzyme=Protein+cereblon&column=ki&startPg=0&Increment=50&submit=Search

> <Ligand HET ID in PDB>


> <PDB ID(s) for Ligand-Target Complex>


> <PubChem CID>


> <PubChem SID>


> <ChEBI ID of Ligand>


> <ChEMBL ID of Ligand>


> <DrugBank ID of Ligand>


> <IUPHAR_GRAC ID of Ligand>


> <KEGG ID of Ligand>


> <ZINC ID of Ligand>


> <Number of Protein Chains in Target (bigger than 1 implies a multichain complex)>
1

> <BindingDB Target Chain Sequence>
MAGEGDQQDAAHNMGNHLPLLPAESEEEDEMEVEDQDSKEAKKPNIINFDTSLPTSHTYLGADMEEFHGRTLHDDDSCQVIPVLPQVMMILIPGQTLPLQLFHPQEVSMVRNLIQKDRTFAVLAYSNVQEREAQFGTTAEIYAYREEQDFGIEIVKVKAIGRQRFKVLELRTQSDGIQQAKVQILPECVLPSTMSAVQLESLNKCQIFPSKPVSREDQCSYKWWQKYQKRKFHCANLTSWPRWLYSLYDAETLMDRIKKQLREWDENLKDDSLPSNPIDFSYRVAACLPIDDVLRIQLLKIGSAIQRLRCELDIMNKCTSLCCKQCQETEITTKNEIFSLSLCGPMAAYVNPHGYVHETLTVYKACNLNLIGRPSTEHSWFPGYAWTVAQCKICASHIGWKFTATKKDMSPQKFWGLTRSALLPTIPDTEDEISPDKVILCL

> <PDB ID(s) of Target Chain>
8TNR,8TNQ,8TNP,8D81,8D80,8D7Z,8D7Y,8D7X,8D7W,8D7V,8D7U,8CVP,9DQD,8UH6,6BOY,6BNB,6BN9,6BN8,6BN7,6XK9,6UML,5V3O,5HXB,7U8F,8OJH,8OIZ,7LPS,4TZ4,9DJX,9DJT,8U17,8U16,8U15,8TZX,8DEY,9CUO,4M91

> <UniProt (SwissProt) Recommended Name of Target Chain>
Protein cereblon

> <UniProt (SwissProt) Entry Name of Target Chain>
CRBN_HUMAN

> <UniProt (SwissProt) Primary ID of Target Chain>
Q96SW2

> <UniProt (SwissProt) Secondary ID(s) of Target Chain>
B2R6H4 C9IZA9 C9JAH6 Q6AI62 Q6NVZ0 Q9UHW4

> <UniProt (SwissProt) Alternative ID(s) of Target Chain>


> <UniProt (TrEMBL) Submitted Name of Target Chain>


> <UniProt (TrEMBL) Entry Name of Target Chain>


> <UniProt (TrEMBL) Primary ID of Target Chain>


> <UniProt (TrEMBL) Secondary ID(s) of Target Chain>


> <UniProt (TrEMBL) Alternative ID(s) of Target Chain>


$$$$
Maleimide-Related Compound 13
  Mrv0541 11181423152D          

  7  7  0  0  0  0            999 V2000
   -1.5112    0.8106    0.0000 C   0  0  0  0  0  0  0  0  0  0  0  0
   -1.2563    0.0260    0.0000 C   0  0  0  0  0  0  0  0  0  0  0  0
   -0.4312    0.0260    0.0000 C   0  0  0  0  0  0  0  0  0  0  0  0
   -0.1763    0.8106    0.0000 C   0  0  0  0  0  0  0  0  0  0  0  0
   -2.2958    1.0655    0.0000 O   0  0  0  0  0  0  0  0  0  0  0  0
    0.6083    1.0655    0.0000 O   0  0  0  0  0  0  0  0  0  0  0  0
   -0.8438    1.2955    0.0000 N   0  0  0  0  0  0  0  0  0  0  0  0
  7  1  1  0  0  0  0
  7  4  1  0  0  0  0
  1  2  1  0  0  0  0
  3  4  1  0  0  0  0
  1  5  2  0  0  0  0
  4  6  2  0  0  0  0
  2  3  1  0  0  0  0
M  END
> <From>
www.bindingDB.org

> <BindingDB Reactant_set_id>
51545426

> <Ligand InChI>
InChI=1S/C4H5NO2/c6-3-1-2-4(7)5-3/h1-2H2,(H,5,6,7)

> <Ligand InChI Key>
KZNICNPSHKQLFF-UHFFFAOYSA-N

> <BindingDB MonomerID>
7814

> <BindingDB Ligand Name>
Maleimide-Related Compound 13::pyrrolidine-2,5-dione

> <Target Name>
Protein cereblon

> <Target Source Organism According to Curator or DataSource>
Homo sapiens

> <Ki (nM)>
 4300

> <IC50 (nM)>


> <Kd (nM)>


> <EC50 (nM)>


> <kon (M-1-s-1)>


> <koff (s-1)>


> <pH>


> <Temp C>


> <Curation/DataSource>
ChEMBL

> <Article DOI>
10.1021/acs.jmedchem.2c01882

> <BindingDB Entry DOI>
10.7270/Q2SJ1R0R

> <PMID>
36821822

> <PubChem AID>


> <Patent Number>


> <Authors>
n/a

> <Date of publication>
3/9/2023

> <Date in BindingDB>
12/16/2024

> <Institution>
n/a

> <Link to Ligand in BindingDB>
http://www.bindingdb.org/bind/chemsearch/marvin/MolStructure.jsp?monomerid=7814

> <Link to Ligand-Target Pair in BindingDB>
http://www.bindingdb.org/jsp/dbsearch/PrimarySearch_ki.jsp?energyterm=kJ/mole&tag=pol&polymerid=50007050&target=Protein+cereblon&column=ki&startPg=0&Increment=50&submit=Search

> <Link to Ligand-Target Pair in BindingDB>
http://www.bindingdb.org/jsp/dbsearch/PrimarySearch_ki.jsp?energyterm=kJ/mole&tag=r21&monomerid=7814&enzyme=Protein+cereblon&column=ki&startPg=0&Increment=50&submit=Search

> <Ligand HET ID in PDB>


> <PDB ID(s) for Ligand-Target Complex>


> <PubChem CID of Ligand>
11439

> <PubChem SID of Ligand>
11108588

> <ChEBI ID of Ligand>
9307

> <ChEMBL ID of Ligand>


> <DrugBank ID of Ligand>


> <IUPHAR_GRAC ID of Ligand>


> <KEGG ID of Ligand>
C07273

> <ZINC ID of Ligand>
ZINC05133396

> <Number of Protein Chains in Target (bigger than 1 implies a multichain complex)>
1

> <BindingDB Target Chain Sequence>
MAGEGDQQDAAHNMGNHLPLLPAESEEEDEMEVEDQDSKEAKKPNIINFDTSLPTSHTYLGADMEEFHGRTLHDDDSCQVIPVLPQVMMILIPGQTLPLQLFHPQEVSMVRNLIQKDRTFAVLAYSNVQEREAQFGTTAEIYAYREEQDFGIEIVKVKAIGRQRFKVLELRTQSDGIQQAKVQILPECVLPSTMSAVQLESLNKCQIFPSKPVSREDQCSYKWWQKYQKRKFHCANLTSWPRWLYSLYDAETLMDRIKKQLREWDENLKDDSLPSNPIDFSYRVAACLPIDDVLRIQLLKIGSAIQRLRCELDIMNKCTSLCCKQCQETEITTKNEIFSLSLCGPMAAYVNPHGYVHETLTVYKACNLNLIGRPSTEHSWFPGYAWTVAQCKICASHIGWKFTATKKDMSPQKFWGLTRSALLPTIPDTEDEISPDKVILCL

> <PDB ID(s) of Target Chain>
8TNR,8TNQ,8TNP,8D81,8D80,8D7Z,8D7Y,8D7X,8D7W,8D7V,8D7U,8CVP,9DQD,8UH6,6BOY,6BNB,6BN9,6BN8,6BN7,6XK9,6UML,5V3O,5HXB,7U8F,8OJH,8OIZ,7LPS,4TZ4,9DJX,9DJT,8U17,8U16,8U15,8TZX,8DEY,9CUO,4M91

> <UniProt (SwissProt) Recommended Name of Target Chain>
Protein cereblon

> <UniProt (SwissProt) Entry Name of Target Chain>
CRBN_HUMAN

> <UniProt (SwissProt) Primary ID of Target Chain>
Q96SW2

> <UniProt (SwissProt) Secondary ID(s) of Target Chain>
B2R6H4 C9IZA9 C9JAH6 Q6AI62 Q6NVZ0 Q9UHW4

> <UniProt (SwissProt) Alternative ID(s) of Target Chain>


> <UniProt (TrEMBL) Submitted Name of Target Chain>


> <UniProt (TrEMBL) Entry Name of Target Chain>


> <UniProt (TrEMBL) Primary ID of Target Chain>


> <UniProt (TrEMBL) Secondary ID(s) of Target Chain>


> <UniProt (TrEMBL) Alternative ID(s) of Target Chain>


$$$$
 
  Mrv0541 11231401562D          

 19 21  0  0  0  0            999 V2000
    0.8646  -22.9723    0.0000 C   0  0  0  0  0  0  0  0  0  0  0  0
    1.6916  -22.9723    0.0000 C   0  0  0  0  0  0  0  0  0  0  0  0
    2.1028  -22.2600    0.0000 C   0  0  0  0  0  0  0  0  0  0  0  0
    1.6916  -21.5432    0.0000 N   0  0  0  0  0  0  0  0  0  0  0  0
    0.8646  -21.5432    0.0000 C   0  0  0  0  0  0  0  0  0  0  0  0
    0.4488  -22.2600    0.0000 C   0  0  0  0  0  0  0  0  0  0  0  0
   -0.3797  -22.2649    0.0000 N   0  0  0  0  0  0  0  0  0  0  0  0
   -0.8667  -21.5966    0.0000 C   0  0  0  0  0  0  0  0  0  0  0  0
   -0.8649  -22.9346    0.0000 C   0  0  0  0  0  0  0  0  0  0  0  0
   -1.6518  -22.6803    0.0000 C   0  0  0  0  0  0  0  0  0  0  0  0
   -1.6493  -21.8553    0.0000 C   0  0  0  0  0  0  0  0  0  0  0  0
   -2.3613  -21.4425    0.0000 C   0  0  0  0  0  0  0  0  0  0  0  0
   -3.0763  -21.8535    0.0000 C   0  0  0  0  0  0  0  0  0  0  0  0
   -3.0748  -22.6816    0.0000 C   0  0  0  0  0  0  0  0  0  0  0  0
   -2.3622  -23.0907    0.0000 C   0  0  0  0  0  0  0  0  0  0  0  0
   -0.6138  -20.8092    0.0000 O   0  0  0  0  0  0  0  0  0  0  0  0
   -0.6082  -23.7207    0.0000 O   0  0  0  0  0  0  0  0  0  0  0  0
    0.4518  -20.8266    0.0000 O   0  0  0  0  0  0  0  0  0  0  0  0
    2.9298  -22.2612    0.0000 O   0  0  0  0  0  0  0  0  0  0  0  0
  9  7  1  0  0  0  0
  6  7  1  0  0  0  0
  2  3  1  0  0  0  0
  3  4  1  0  0  0  0
 10 11  2  0  0  0  0
  4  5  1  0  0  0  0
 11 12  1  0  0  0  0
  5  6  1  0  0  0  0
 12 13  2  0  0  0  0
  7  8  1  0  0  0  0
 13 14  1  0  0  0  0
 14 15  2  0  0  0  0
 15 10  1  0  0  0  0
  1  2  1  0  0  0  0
  8 16  2  0  0  0  0
  1  6  1  0  0  0  0
  9 17  2  0  0  0  0
  8 11  1  0  0  0  0
  5 18  2  0  0  0  0
 10  9  1  0  0  0  0
  3 19  2  0  0  0  0
M  END
> <From>
www.bindingDB.org

> <BindingDB Reactant_set_id>
51545430

> <Ligand InChI>
InChI=1S/C13H10N2O4/c16-10-6-5-9(11(17)14-10)15-12(18)7-3-1-2-4-8(7)13(15)19/h1-4,9H,5-6H2,(H,14,16,17)

> <Ligand InChI Key>
UEJJHQNACJXSKW-UHFFFAOYSA-N

> <BindingDB MonomerID>
50070114

> <BindingDB Ligand Name>
(+/-)-thalidomide::2-(2,6-Dioxo-piperidin-3-yl)-isoindole-1,3-dione::2-(2,6-dioxopiperidin-3-yl)isoindoline-1,3-dione::CHEMBL468::K-17::THALIDOMIDE::Thalomid::US11059801, Compound D-62::[(R,S)-2-(2,6-dioxo-3-piperidinyl)-1H-isoindole-1,3(2H)-dione

> <Target Name>
Protein cereblon

> <Target Source Organism According to Curator or DataSource>
Homo sapiens

> <Ki (nM)>
 4400

> <IC50 (nM)>


> <Kd (nM)>


> <EC50 (nM)>


> <kon (M-1-s-1)>


> <koff (s-1)>


> <pH>


> <Temp C>


> <Curation/DataSource>
ChEMBL

> <Article DOI>
10.1021/acs.jmedchem.2c01882

> <BindingDB Entry DOI>
10.7270/Q2SJ1R0R

> <PMID>
36821822

> <PubChem AID>


> <Patent Number>


> <Authors>
n/a

> <Date of publication>
3/9/2023

> <Date in BindingDB>
12/16/2024

> <Institution>
n/a

> <Link to Ligand in BindingDB>
http://www.bindingdb.org/bind/chemsearch/marvin/MolStructure.jsp?monomerid=50070114

> <Link to Ligand-Target Pair in BindingDB>
http://www.bindingdb.org/jsp/dbsearch/PrimarySearch_ki.jsp?energyterm=kJ/mole&tag=pol&polymerid=50007050&target=Protein+cereblon&column=ki&startPg=0&Increment=50&submit=Search

> <Link to Ligand-Target Pair in BindingDB>
http://www.bindingdb.org/jsp/dbsearch/PrimarySearch_ki.jsp?energyterm=kJ/mole&tag=r21&monomerid=50070114&enzyme=Protein+cereblon&column=ki&startPg=0&Increment=50&submit=Search

> <Ligand HET ID in PDB>
EF2    

> <PDB ID(s) for Ligand-Target Complex>
4CI1,8BC7,5AMI,5AMH,7BQU,5YIZ,7PSO,4V32,4V2Y,5OH1,5AMK,5AMJ,6R13,6R12,6R19,6R18,6R1C,6R1A,6R1W,6R0U,6R0S,5YJ0,4TZC,8OU3

> <PubChem CID of Ligand>
5426

> <PubChem SID of Ligand>
103964042

> <ChEBI ID of Ligand>
74947

> <ChEMBL ID of Ligand>
CHEMBL468

> <DrugBank ID of Ligand>
DB01041

> <IUPHAR_GRAC ID of Ligand>
7327

> <KEGG ID of Ligand>
C07910

> <ZINC ID of Ligand>
ZINC01530948

> <Number of Protein Chains in Target (bigger than 1 implies a multichain complex)>
1

> <BindingDB Target Chain Sequence>
MAGEGDQQDAAHNMGNHLPLLPAESEEEDEMEVEDQDSKEAKKPNIINFDTSLPTSHTYLGADMEEFHGRTLHDDDSCQVIPVLPQVMMILIPGQTLPLQLFHPQEVSMVRNLIQKDRTFAVLAYSNVQEREAQFGTTAEIYAYREEQDFGIEIVKVKAIGRQRFKVLELRTQSDGIQQAKVQILPECVLPSTMSAVQLESLNKCQIFPSKPVSREDQCSYKWWQKYQKRKFHCANLTSWPRWLYSLYDAETLMDRIKKQLREWDENLKDDSLPSNPIDFSYRVAACLPIDDVLRIQLLKIGSAIQRLRCELDIMNKCTSLCCKQCQETEITTKNEIFSLSLCGPMAAYVNPHGYVHETLTVYKACNLNLIGRPSTEHSWFPGYAWTVAQCKICASHIGWKFTATKKDMSPQKFWGLTRSALLPTIPDTEDEISPDKVILCL

> <PDB ID(s) of Target Chain>
8TNR,8TNQ,8TNP,8D81,8D80,8D7Z,8D7Y,8D7X,8D7W,8D7V,8D7U,8CVP,9DQD,8UH6,6BOY,6BNB,6BN9,6BN8,6BN7,6XK9,6UML,5V3O,5HXB,7U8F,8OJH,8OIZ,7LPS,4TZ4,9DJX,9DJT,8U17,8U16,8U15,8TZX,8DEY,9CUO,4M91

> <UniProt (SwissProt) Recommended Name of Target Chain>
Protein cereblon

> <UniProt (SwissProt) Entry Name of Target Chain>
CRBN_HUMAN

> <UniProt (SwissProt) Primary ID of Target Chain>
Q96SW2

> <UniProt (SwissProt) Secondary ID(s) of Target Chain>
B2R6H4 C9IZA9 C9JAH6 Q6AI62 Q6NVZ0 Q9UHW4

> <UniProt (SwissProt) Alternative ID(s) of Target Chain>


> <UniProt (TrEMBL) Submitted Name of Target Chain>


> <UniProt (TrEMBL) Entry Name of Target Chain>


> <UniProt (TrEMBL) Primary ID of Target Chain>


> <UniProt (TrEMBL) Secondary ID(s) of Target Chain>


> <UniProt (TrEMBL) Alternative ID(s) of Target Chain>


$$$$

     RDKit          2D

 35 38  0  0  0  0  0  0  0  0999 V2000
    1.5699   -1.3571    0.0000 C   0  0  0  0  0  0  0  0  0  0  0  0
    2.2844   -1.7696    0.0000 C   0  0  0  0  0  0  0  0  0  0  0  0
    2.9989   -2.1821    0.0000 C   0  0  0  0  0  0  0  0  0  0  0  0
    2.9989   -3.0071    0.0000 C   0  0  0  0  0  0  0  0  0  0  0  0
    3.7134   -3.4196    0.0000 C   0  0  0  0  0  0  0  0  0  0  0  0
    3.7134   -4.2446    0.0000 N   0  0  0  0  0  0  0  0  0  0  0  0
    4.4278   -3.0071    0.0000 C   0  0  0  0  0  0  0  0  0  0  0  0
    4.4278   -2.1821    0.0000 C   0  0  0  0  0  0  0  0  0  0  0  0
    5.1423   -1.7696    0.0000 C   0  0  0  0  0  0  0  0  0  0  0  0
    5.1423   -0.9446    0.0000 C   0  0  0  0  0  0  0  0  0  0  0  0
    5.8568   -0.5321    0.0000 C   0  0  0  0  0  0  0  0  0  0  0  0
    8.0002   -0.9446    0.0000 C   0  0  0  0  0  0  0  0  0  0  0  0
    8.7147   -0.5321    0.0000 N   0  0  0  0  0  0  0  0  0  0  0  0
    8.0002   -1.7696    0.0000 C   0  0  0  0  0  0  0  0  0  0  0  0
    7.2857   -2.1821    0.0000 C   0  0  0  0  0  0  0  0  0  0  0  0
    6.5712   -1.7696    0.0000 C   0  0  0  0  0  0  0  0  0  0  0  0
    5.8568   -2.1821    0.0000 C   0  0  0  0  0  0  0  0  0  0  0  0
    3.7134   -1.7696    0.0000 C   0  0  0  0  0  0  0  0  0  0  0  0
    4.4278   -0.5321    0.0000 C   0  0  0  0  0  0  0  0  0  0  0  0
    3.7134   -0.9446    0.0000 O   0  0  0  0  0  0  0  0  0  0  0  0
    1.8719   -2.4841    0.0000 C   0  0  0  0  0  0  0  0  0  0  0  0
    2.6969   -1.0552    0.0000 C   0  0  0  0  0  0  0  0  0  0  0  0
    6.5712   -0.9446    0.0000 C   0  0  0  0  0  0  0  0  0  0  0  0
    7.2857   -0.5321    0.0000 C   0  0  0  0  0  0  0  0  0  0  0  0
    4.4278   -5.4821    0.0000 N   0  0  0  0  0  0  0  0  0  0  0  0
    4.4278   -4.6571    0.0000 C   0  0  0  0  0  0  0  0  0  0  0  0
    5.1423   -4.2446    0.0000 O   0  0  0  0  0  0  0  0  0  0  0  0
    3.7134   -6.7196    0.0000 O   0  0  0  0  0  0  0  0  0  0  0  0
    3.7134   -5.8946    0.0000 C   0  0  0  0  0  0  0  0  0  0  0  0
    2.9989   -5.4821    0.0000 C   0  0  0  0  0  0  0  0  0  0  0  0
    2.9989   -4.6571    0.0000 C   0  0  0  0  0  0  0  0  0  0  0  0
    8.7147    0.2929    0.0000 S   0  0  0  0  0  0  0  0  0  0  0  0
    8.7147    1.1179    0.0000 C   0  0  0  0  0  0  0  0  0  0  0  0
    9.5397    0.2929    0.0000 O   0  0  0  0  0  0  0  0  0  0  0  0
    7.8897    0.2929    0.0000 O   0  0  0  0  0  0  0  0  0  0  0  0
  1  2  1  0
  2 21  1  0
  3  2  1  0
  3 18  1  0
  4  3  2  0
  4  5  1  0
  5  7  2  0
  6  5  1  0
  6 26  1  0
  8  9  1  0
  8  7  1  0
  9 17  2  0
 10  9  1  0
 10 11  2  0
 11 23  1  0
 12 13  1  0
 12 14  1  0
 13 32  1  0
 15 14  2  0
 16 15  1  0
 17 16  1  0
 18  8  2  0
 20 19  1  0
 20 18  1  0
 22  2  1  0
 23 16  2  0
 23 24  1  0
 24 12  2  0
 25 26  1  0
 26 27  2  0
 28 29  2  0
 29 30  1  0
 29 25  1  0
 30 31  2  0
 31  6  1  0
 32 33  1  0
 32 34  2  0
 32 35  2  0
M  END
> <From>
www.bindingDB.org

> <BindingDB Reactant_set_id>
51359688

> <Ligand InChI>
InChI=1S/C26H27N3O5S/c1-26(2,3)22-15-20(29-11-10-23(30)27-25(29)31)14-21(24(22)34-4)18-7-6-17-13-19(28-35(5,32)33)9-8-16(17)12-18/h6-15,28H,1-5H3,(H,27,30,31)

> <Ligand InChI Key>
NBRBXGKOEOGLOI-UHFFFAOYSA-N

> <BindingDB MonomerID>
50549803

> <BindingDB Ligand Name>
ABT-333::CHEBI:85182::Dasabuvir::Dasabuvir sodium monohydrate::Exviera

> <Target Name>
Protein cereblon

> <Target Source Organism According to Curator or DataSource>
Human

> <Ki (nM)>
 4710

> <IC50 (nM)>


> <Kd (nM)>


> <EC50 (nM)>


> <kon (M-1-s-1)>


> <koff (s-1)>


> <pH>


> <Temp C>


> <Curation/DataSource>
ChEMBL

> <Article DOI>
10.1021/acsmedchemlett.0c00440

> <BindingDB Entry DOI>
10.7270/Q2WM1J1B

> <PMID>
33488967

> <PubChem AID>


> <Patent Number>


> <Authors>
Maiwald, S; Heim, C; Hernandez Alvarez, B; Hartmann, MD

> <Date of publication>
1/14/2021

> <Date in BindingDB>
3/23/2022

> <Institution>
Max Planck Institute for Developmental Biology

> <Link to Ligand in BindingDB>
http://www.bindingdb.org/bind/chemsearch/marvin/MolStructure.jsp?monomerid=50549803

> <Link to Ligand-Target Pair in BindingDB>
http://www.bindingdb.org/jsp/dbsearch/PrimarySearch_ki.jsp?energyterm=kJ/mole&tag=pol&polymerid=50007050&target=Protein+cereblon&column=ki&startPg=0&Increment=50&submit=Search

> <Link to Ligand-Target Pair in BindingDB>
http://www.bindingdb.org/jsp/dbsearch/PrimarySearch_ki.jsp?energyterm=kJ/mole&tag=r21&monomerid=50549803&enzyme=Protein+cereblon&column=ki&startPg=0&Increment=50&submit=Search

> <Ligand HET ID in PDB>


> <PDB ID(s) for Ligand-Target Complex>


> <PubChem CID of Ligand>
56640146

> <PubChem SID of Ligand>
461680143

> <ChEBI ID of Ligand>


> <ChEMBL ID of Ligand>


> <DrugBank ID of Ligand>


> <IUPHAR_GRAC ID of Ligand>


> <KEGG ID of Ligand>


> <ZINC ID of Ligand>


> <Number of Protein Chains in Target (bigger than 1 implies a multichain complex)>
1

> <BindingDB Target Chain Sequence>
MAGEGDQQDAAHNMGNHLPLLPAESEEEDEMEVEDQDSKEAKKPNIINFDTSLPTSHTYLGADMEEFHGRTLHDDDSCQVIPVLPQVMMILIPGQTLPLQLFHPQEVSMVRNLIQKDRTFAVLAYSNVQEREAQFGTTAEIYAYREEQDFGIEIVKVKAIGRQRFKVLELRTQSDGIQQAKVQILPECVLPSTMSAVQLESLNKCQIFPSKPVSREDQCSYKWWQKYQKRKFHCANLTSWPRWLYSLYDAETLMDRIKKQLREWDENLKDDSLPSNPIDFSYRVAACLPIDDVLRIQLLKIGSAIQRLRCELDIMNKCTSLCCKQCQETEITTKNEIFSLSLCGPMAAYVNPHGYVHETLTVYKACNLNLIGRPSTEHSWFPGYAWTVAQCKICASHIGWKFTATKKDMSPQKFWGLTRSALLPTIPDTEDEISPDKVILCL

> <PDB ID(s) of Target Chain>
4TZ4,5HXB,5V3O,6UML,6XK9,7LPS,7U8F,8CVP,8D7U,8D7V,8D7W,8D7X,8D7Y,8D7Z,8D80,8D81,8DEY,8OIZ,8OJH

> <UniProt (SwissProt) Recommended Name of Target Chain>
Protein cereblon

> <UniProt (SwissProt) Entry Name of Target Chain>
CRBN_HUMAN

> <UniProt (SwissProt) Primary ID of Target Chain>
Q96SW2

> <UniProt (SwissProt) Secondary ID(s) of Target Chain>
B2R6H4 C9IZA9 C9JAH6 Q6AI62 Q6NVZ0 Q9UHW4

> <UniProt (SwissProt) Alternative ID(s) of Target Chain>


> <UniProt (TrEMBL) Submitted Name of Target Chain>


> <UniProt (TrEMBL) Entry Name of Target Chain>


> <UniProt (TrEMBL) Primary ID of Target Chain>


> <UniProt (TrEMBL) Secondary ID(s) of Target Chain>


> <UniProt (TrEMBL) Alternative ID(s) of Target Chain>


$$$$
 
     RDKit          2D

 19 20  0  0  0  0  0  0  0  0999 V2000
   -2.4994   -0.2050    0.0000 C   0  0  0  0  0  0  0  0  0  0  0  0
   -1.7850    0.2074    0.0000 C   0  0  0  0  0  0  0  0  0  0  0  0
   -1.0705   -0.2050    0.0000 C   0  0  0  0  0  0  0  0  0  0  0  0
   -1.0705   -1.0301    0.0000 C   0  0  0  0  0  0  0  0  0  0  0  0
   -1.7850   -1.4425    0.0000 N   0  0  0  0  0  0  0  0  0  0  0  0
   -2.4994   -1.0301    0.0000 C   0  0  0  0  0  0  0  0  0  0  0  0
   -3.2137   -1.4425    0.0000 O   0  0  0  0  0  0  0  0  0  0  0  0
   -0.3562   -1.4425    0.0000 O   0  0  0  0  0  0  0  0  0  0  0  0
   -0.3562    0.2073    0.0000 C   0  0  0  0  0  0  0  0  0  0  0  0
    0.3579   -0.2050    0.0000 S   0  0  0  0  0  0  0  0  0  0  0  0
    1.0722    0.2073    0.0000 C   0  0  0  0  0  0  0  0  0  0  0  0
    1.0724    1.0321    0.0000 C   0  0  0  0  0  0  0  0  0  0  0  0
    1.7849    1.4425    0.0000 C   0  0  0  0  0  0  0  0  0  0  0  0
    2.4994    1.0301    0.0000 C   0  0  0  0  0  0  0  0  0  0  0  0
    2.5010    0.2094    0.0000 C   0  0  0  0  0  0  0  0  0  0  0  0
    1.7895   -0.2068    0.0000 C   0  0  0  0  0  0  0  0  0  0  0  0
   -0.0551   -0.9206    0.0000 O   0  0  0  0  0  0  0  0  0  0  0  0
    0.7695   -0.9206    0.0000 O   0  0  0  0  0  0  0  0  0  0  0  0
    3.2137    1.4424    0.0000 F   0  0  0  0  0  0  0  0  0  0  0  0
  1  2  1  0
  3  2  1  0
  4  3  1  0
  5  4  1  0
  6  5  1  0
  1  6  1  0
  6  7  2  0
  4  8  2  0
  3  9  1  0
  9 10  1  0
 10 11  1  0
 12 11  2  0
 13 12  1  0
 14 13  2  0
 15 14  1  0
 16 15  2  0
 11 16  1  0
 10 17  2  0
 10 18  2  0
 14 19  1  0
M  END
> <From>
www.bindingDB.org

> <BindingDB Reactant_set_id>
51553752

> <Ligand InChI>
InChI=1S/C12H12FNO4S/c13-9-2-4-10(5-3-9)19(17,18)7-8-1-6-11(15)14-12(8)16/h2-5,8H,1,6-7H2,(H,14,15,16)

> <Ligand InChI Key>
YCGRFYCBBZDEKG-UHFFFAOYSA-N

> <BindingDB MonomerID>
50625144

> <BindingDB Ligand Name>
CHEMBL5422899

> <Target Name>
Protein cereblon

> <Target Source Organism According to Curator or DataSource>
Homo sapiens

> <Ki (nM)>
 4800

> <IC50 (nM)>


> <Kd (nM)>


> <EC50 (nM)>


> <kon (M-1-s-1)>


> <koff (s-1)>


> <pH>


> <Temp C>


> <Curation/DataSource>
ChEMBL

> <Article DOI>
10.1016/j.ejmech.2022.114990

> <BindingDB Entry DOI>
10.7270/Q2F1944V

> <PMID>
36476642

> <PubChem AID>


> <Patent Number>


> <Authors>
n/a

> <Date of publication>
1/15/2023

> <Date in BindingDB>
12/18/2024

> <Institution>
n/a

> <Link to Ligand in BindingDB>
http://www.bindingdb.org/bind/chemsearch/marvin/MolStructure.jsp?monomerid=50625144

> <Link to Ligand-Target Pair in BindingDB>
http://www.bindingdb.org/jsp/dbsearch/PrimarySearch_ki.jsp?energyterm=kJ/mole&tag=pol&polymerid=50007050&target=Protein+cereblon&column=ki&startPg=0&Increment=50&submit=Search

> <Link to Ligand-Target Pair in BindingDB>
http://www.bindingdb.org/jsp/dbsearch/PrimarySearch_ki.jsp?energyterm=kJ/mole&tag=r21&monomerid=50625144&enzyme=Protein+cereblon&column=ki&startPg=0&Increment=50&submit=Search

> <Ligand HET ID in PDB>


> <PDB ID(s) for Ligand-Target Complex>


> <PubChem CID>


> <PubChem SID>


> <ChEBI ID of Ligand>


> <ChEMBL ID of Ligand>


> <DrugBank ID of Ligand>


> <IUPHAR_GRAC ID of Ligand>


> <KEGG ID of Ligand>


> <ZINC ID of Ligand>


> <Number of Protein Chains in Target (bigger than 1 implies a multichain complex)>
1

> <BindingDB Target Chain Sequence>
MAGEGDQQDAAHNMGNHLPLLPAESEEEDEMEVEDQDSKEAKKPNIINFDTSLPTSHTYLGADMEEFHGRTLHDDDSCQVIPVLPQVMMILIPGQTLPLQLFHPQEVSMVRNLIQKDRTFAVLAYSNVQEREAQFGTTAEIYAYREEQDFGIEIVKVKAIGRQRFKVLELRTQSDGIQQAKVQILPECVLPSTMSAVQLESLNKCQIFPSKPVSREDQCSYKWWQKYQKRKFHCANLTSWPRWLYSLYDAETLMDRIKKQLREWDENLKDDSLPSNPIDFSYRVAACLPIDDVLRIQLLKIGSAIQRLRCELDIMNKCTSLCCKQCQETEITTKNEIFSLSLCGPMAAYVNPHGYVHETLTVYKACNLNLIGRPSTEHSWFPGYAWTVAQCKICASHIGWKFTATKKDMSPQKFWGLTRSALLPTIPDTEDEISPDKVILCL

> <PDB ID(s) of Target Chain>
8TNR,8TNQ,8TNP,8D81,8D80,8D7Z,8D7Y,8D7X,8D7W,8D7V,8D7U,8CVP,9DQD,8UH6,6BOY,6BNB,6BN9,6BN8,6BN7,6XK9,6UML,5V3O,5HXB,7U8F,8OJH,8OIZ,7LPS,4TZ4,9DJX,9DJT,8U17,8U16,8U15,8TZX,8DEY,9CUO,4M91

> <UniProt (SwissProt) Recommended Name of Target Chain>
Protein cereblon

> <UniProt (SwissProt) Entry Name of Target Chain>
CRBN_HUMAN

> <UniProt (SwissProt) Primary ID of Target Chain>
Q96SW2

> <UniProt (SwissProt) Secondary ID(s) of Target Chain>
B2R6H4 C9IZA9 C9JAH6 Q6AI62 Q6NVZ0 Q9UHW4

> <UniProt (SwissProt) Alternative ID(s) of Target Chain>


> <UniProt (TrEMBL) Submitted Name of Target Chain>


> <UniProt (TrEMBL) Entry Name of Target Chain>


> <UniProt (TrEMBL) Primary ID of Target Chain>


> <UniProt (TrEMBL) Secondary ID(s) of Target Chain>


> <UniProt (TrEMBL) Alternative ID(s) of Target Chain>


$$$$
 
     RDKit          2D

 27 30  0  0  0  0  0  0  0  0999 V2000
   -1.5691    0.7131    0.0000 C   0  0  0  0  0  0  0  0  0  0  0  0
   -0.8545    1.1254    0.0000 C   0  0  0  0  0  0  0  0  0  0  0  0
   -0.1427    0.7136    0.0000 C   0  0  0  0  0  0  0  0  0  0  0  0
   -0.1427   -0.1116    0.0000 C   0  0  0  0  0  0  0  0  0  0  0  0
   -0.8528   -0.5233    0.0000 C   0  0  0  0  0  0  0  0  0  0  0  0
   -1.5691   -0.1153    0.0000 C   0  0  0  0  0  0  0  0  0  0  0  0
    0.6419   -0.3665    0.0000 C   0  0  0  0  0  0  0  0  0  0  0  0
    0.6420    0.9685    0.0000 C   0  0  0  0  0  0  0  0  0  0  0  0
    1.1269    0.3009    0.0000 N   0  0  0  0  0  0  0  0  0  0  0  0
    1.9522    0.3009    0.0000 C   0  0  0  0  0  0  0  0  0  0  0  0
    2.3647    1.0155    0.0000 C   0  0  0  0  0  0  0  0  0  0  0  0
    3.1899    1.0155    0.0000 C   0  0  0  0  0  0  0  0  0  0  0  0
    3.6025    0.3008    0.0000 C   0  0  0  0  0  0  0  0  0  0  0  0
    3.1899   -0.4136    0.0000 N   0  0  0  0  0  0  0  0  0  0  0  0
    2.3647   -0.4136    0.0000 C   0  0  0  0  0  0  0  0  0  0  0  0
    4.4277    0.3008    0.0000 O   0  0  0  0  0  0  0  0  0  0  0  0
    1.9522   -1.1283    0.0000 O   0  0  0  0  0  0  0  0  0  0  0  0
    0.8555   -1.1636    0.0000 O   0  0  0  0  0  0  0  0  0  0  0  0
    0.8555    1.7656    0.0000 O   0  0  0  0  0  0  0  0  0  0  0  0
   -2.2838   -0.5278    0.0000 N   0  0  0  0  0  0  0  0  0  0  0  0
   -2.2838   -1.3530    0.0000 C   0  0  0  0  0  0  0  0  0  0  0  0
   -2.9984   -1.7656    0.0000 C   0  0  0  0  0  0  0  0  0  0  0  0
   -3.7130   -1.3530    0.0000 N   0  0  0  0  0  0  0  0  0  0  0  0
   -3.7130   -0.5278    0.0000 C   0  0  0  0  0  0  0  0  0  0  0  0
   -2.9984   -0.1153    0.0000 C   0  0  0  0  0  0  0  0  0  0  0  0
   -4.4277   -1.7656    0.0000 C   0  0  0  0  0  0  0  0  0  0  0  0
   -2.2838    1.1257    0.0000 F   0  0  0  0  0  0  0  0  0  0  0  0
  2  1  2  0
  3  2  1  0
  4  3  2  0
  5  4  1  0
  1  6  1  0
  6  5  2  0
  4  7  1  0
  3  8  1  0
  8  9  1  0
  9  7  1  0
 10  9  1  0
 10 11  1  0
 12 11  1  0
 13 12  1  0
 14 13  1  0
 10 15  1  0
 15 14  1  0
 13 16  2  0
 15 17  2  0
  7 18  2  0
  8 19  2  0
 20  6  1  0
 20 21  1  0
 22 21  1  0
 23 22  1  0
 24 23  1  0
 20 25  1  0
 25 24  1  0
 23 26  1  0
  1 27  1  0
M  END
> <From>
www.bindingDB.org

> <BindingDB Reactant_set_id>
51563802

> <Ligand InChI>
InChI=1S/C18H19FN4O4/c1-21-4-6-22(7-5-21)14-9-11-10(8-12(14)19)17(26)23(18(11)27)13-2-3-15(24)20-16(13)25/h8-9,13H,2-7H2,1H3,(H,20,24,25)

> <Ligand InChI Key>
DVYCBHZUPXFVQA-UHFFFAOYSA-N

> <BindingDB MonomerID>
50628760

> <BindingDB Ligand Name>
CHEMBL5409944

> <Target Name>
Protein cereblon

> <Target Source Organism According to Curator or DataSource>
Homo sapiens

> <Ki (nM)>
 4900

> <IC50 (nM)>


> <Kd (nM)>


> <EC50 (nM)>


> <kon (M-1-s-1)>


> <koff (s-1)>


> <pH>


> <Temp C>


> <Curation/DataSource>
ChEMBL

> <Article DOI>
10.1021/acs.jmedchem.3c01264

> <BindingDB Entry DOI>
10.7270/Q2MC94FW

> <PMID>
37683104

> <PubChem AID>


> <Patent Number>


> <Authors>
Xiang, W; Zhao, L; Han, X; Xu, T; Kregel, S; Wang, M; Miao, B; Qin, C; Wang, M; McEachern, D; Lu, J; Bai, L; Yang, CY; Kirchhoff, PD; Takyi-Williams, J; Wang, L; Wen, B; Sun, D; Ator, M; Mckean, R; Chinnaiyan, AM; Wang, S

> <Date of publication>
9/28/2023

> <Date in BindingDB>
12/19/2024

> <Institution>
University of Michigan

> <Link to Ligand in BindingDB>
http://www.bindingdb.org/bind/chemsearch/marvin/MolStructure.jsp?monomerid=50628760

> <Link to Ligand-Target Pair in BindingDB>
http://www.bindingdb.org/jsp/dbsearch/PrimarySearch_ki.jsp?energyterm=kJ/mole&tag=pol&polymerid=50007050&target=Protein+cereblon&column=ki&startPg=0&Increment=50&submit=Search

> <Link to Ligand-Target Pair in BindingDB>
http://www.bindingdb.org/jsp/dbsearch/PrimarySearch_ki.jsp?energyterm=kJ/mole&tag=r21&monomerid=50628760&enzyme=Protein+cereblon&column=ki&startPg=0&Increment=50&submit=Search

> <Ligand HET ID in PDB>


> <PDB ID(s) for Ligand-Target Complex>


> <PubChem CID of Ligand>
155218687

> <PubChem SID of Ligand>
505046732

> <ChEBI ID of Ligand>


> <ChEMBL ID of Ligand>


> <DrugBank ID of Ligand>


> <IUPHAR_GRAC ID of Ligand>


> <KEGG ID of Ligand>


> <ZINC ID of Ligand>


> <Number of Protein Chains in Target (bigger than 1 implies a multichain complex)>
1

> <BindingDB Target Chain Sequence>
MAGEGDQQDAAHNMGNHLPLLPAESEEEDEMEVEDQDSKEAKKPNIINFDTSLPTSHTYLGADMEEFHGRTLHDDDSCQVIPVLPQVMMILIPGQTLPLQLFHPQEVSMVRNLIQKDRTFAVLAYSNVQEREAQFGTTAEIYAYREEQDFGIEIVKVKAIGRQRFKVLELRTQSDGIQQAKVQILPECVLPSTMSAVQLESLNKCQIFPSKPVSREDQCSYKWWQKYQKRKFHCANLTSWPRWLYSLYDAETLMDRIKKQLREWDENLKDDSLPSNPIDFSYRVAACLPIDDVLRIQLLKIGSAIQRLRCELDIMNKCTSLCCKQCQETEITTKNEIFSLSLCGPMAAYVNPHGYVHETLTVYKACNLNLIGRPSTEHSWFPGYAWTVAQCKICASHIGWKFTATKKDMSPQKFWGLTRSALLPTIPDTEDEISPDKVILCL

> <PDB ID(s) of Target Chain>
8TNR,8TNQ,8TNP,8D81,8D80,8D7Z,8D7Y,8D7X,8D7W,8D7V,8D7U,8CVP,9DQD,8UH6,6BOY,6BNB,6BN9,6BN8,6BN7,6XK9,6UML,5V3O,5HXB,7U8F,8OJH,8OIZ,7LPS,4TZ4,9DJX,9DJT,8U17,8U16,8U15,8TZX,8DEY,9CUO,4M91

> <UniProt (SwissProt) Recommended Name of Target Chain>
Protein cereblon

> <UniProt (SwissProt) Entry Name of Target Chain>
CRBN_HUMAN

> <UniProt (SwissProt) Primary ID of Target Chain>
Q96SW2

> <UniProt (SwissProt) Secondary ID(s) of Target Chain>
B2R6H4 C9IZA9 C9JAH6 Q6AI62 Q6NVZ0 Q9UHW4

> <UniProt (SwissProt) Alternative ID(s) of Target Chain>


> <UniProt (TrEMBL) Submitted Name of Target Chain>


> <UniProt (TrEMBL) Entry Name of Target Chain>


> <UniProt (TrEMBL) Primary ID of Target Chain>


> <UniProt (TrEMBL) Secondary ID(s) of Target Chain>


> <UniProt (TrEMBL) Alternative ID(s) of Target Chain>


$$$$
134780
  Mrv0541 01031814082D          

 33 37  0  0  1  0            999 V2000
    3.1156   -0.6484    0.0000 O   0  0  0  0  0  0  0  0  0  0  0  0
    5.9927    0.4018    0.0000 O   0  0  0  0  0  0  0  0  0  0  0  0
    4.5445   -3.1234    0.0000 O   0  0  0  0  0  0  0  0  0  0  0  0
    4.5445    0.1765    0.0000 N   0  0  0  0  0  0  0  0  0  0  0  0
    3.8301   -1.8859    0.0000 N   0  0  0  0  0  0  0  0  0  0  0  0
    4.5445   -0.6484    0.0000 C   0  0  1  0  0  0  0  0  0  0  0  0
    5.2591   -1.0609    0.0000 C   0  0  0  0  0  0  0  0  0  0  0  0
    5.2591   -1.8859    0.0000 C   0  0  0  0  0  0  0  0  0  0  0  0
    3.8301   -1.0609    0.0000 C   0  0  0  0  0  0  0  0  0  0  0  0
    5.2085    0.6580    0.0000 C   0  0  0  0  0  0  0  0  0  0  0  0
    3.8806    0.6580    0.0000 C   0  0  0  0  0  0  0  0  0  0  0  0
    4.9570    1.4387    0.0000 C   0  0  0  0  0  0  0  0  0  0  0  0
    4.1320    1.4387    0.0000 C   0  0  0  0  0  0  0  0  0  0  0  0
    4.5445   -2.2984    0.0000 C   0  0  0  0  0  0  0  0  0  0  0  0
    5.3696    2.1532    0.0000 C   0  0  0  0  0  0  0  0  0  0  0  0
    3.7195    2.1532    0.0000 C   0  0  0  0  0  0  0  0  0  0  0  0
    4.9570    2.8677    0.0000 C   0  0  0  0  0  0  0  0  0  0  0  0
    4.1320    2.8677    0.0000 C   0  0  0  0  0  0  0  0  0  0  0  0
    2.8945    2.1532    0.0000 O   0  0  0  0  0  0  0  0  0  0  0  0
    2.4820    2.8677    0.0000 C   0  0  0  0  0  0  0  0  0  0  0  0
    1.6570    2.8677    0.0000 C   0  0  0  0  0  0  0  0  0  0  0  0
    1.2446    3.5821    0.0000 C   0  0  0  0  0  0  0  0  0  0  0  0
    0.4195    3.5822    0.0000 C   0  0  0  0  0  0  0  0  0  0  0  0
    0.0069    2.8678    0.0000 C   0  0  0  0  0  0  0  0  0  0  0  0
    0.4194    2.1533    0.0000 C   0  0  0  0  0  0  0  0  0  0  0  0
    1.2445    2.1532    0.0000 C   0  0  0  0  0  0  0  0  0  0  0  0
   -0.8181    2.8678    0.0000 C   0  0  0  0  0  0  0  0  0  0  0  0
   -1.2306    2.1534    0.0000 N   0  0  0  0  0  0  0  0  0  0  0  0
   -2.0556    2.1534    0.0000 C   0  0  0  0  0  0  0  0  0  0  0  0
   -2.4682    1.4388    0.0000 C   0  0  0  0  0  0  0  0  0  0  0  0
   -2.0556    0.7244    0.0000 O   0  0  0  0  0  0  0  0  0  0  0  0
   -1.2306    0.7243    0.0000 C   0  0  0  0  0  0  0  0  0  0  0  0
   -0.8181    1.4389    0.0000 C   0  0  0  0  0  0  0  0  0  0  0  0
  1  9  2  0  0  0  0
  2 10  2  0  0  0  0
  3 14  2  0  0  0  0
  6  4  1  1  0  0  0
  4 10  1  0  0  0  0
  4 11  1  0  0  0  0
  5  9  1  0  0  0  0
  5 14  1  0  0  0  0
  6  7  1  0  0  0  0
  6  9  1  0  0  0  0
  7  8  1  0  0  0  0
  8 14  1  0  0  0  0
 10 12  1  0  0  0  0
 11 13  1  0  0  0  0
 12 13  4  0  0  0  0
 12 15  4  0  0  0  0
 13 16  4  0  0  0  0
 15 17  4  0  0  0  0
 16 18  4  0  0  0  0
 17 18  4  0  0  0  0
 16 19  1  0  0  0  0
 19 20  1  0  0  0  0
 20 21  1  0  0  0  0
 22 23  4  0  0  0  0
 23 24  4  0  0  0  0
 24 25  4  0  0  0  0
 25 26  4  0  0  0  0
 21 22  4  0  0  0  0
 26 21  4  0  0  0  0
 24 27  1  0  0  0  0
 27 28  1  0  0  0  0
 29 30  1  0  0  0  0
 32 33  1  0  0  0  0
 28 29  1  0  0  0  0
 28 33  1  0  0  0  0
 30 31  1  0  0  0  0
 31 32  1  0  0  0  0
M  END
> <From>
www.bindingDB.org

> <BindingDB Reactant_set_id>
51359714

> <Ligand InChI>
InChI=1S/C25H27N3O5/c29-23-9-8-21(24(30)26-23)28-15-20-19(25(28)31)2-1-3-22(20)33-16-18-6-4-17(5-7-18)14-27-10-12-32-13-11-27/h1-7,21H,8-16H2,(H,26,29,30)/t21-/m0/s1

> <Ligand InChI Key>
IXZOHGPZAQLIBH-NRFANRHFSA-N

> <BindingDB MonomerID>
65497

> <BindingDB Ligand Name>
CC-220 (Compound 6)::US9694015, 6.4S

> <Target Name>
Protein cereblon

> <Target Source Organism According to Curator or DataSource>
Human

> <Ki (nM)>
 4940

> <IC50 (nM)>


> <Kd (nM)>


> <EC50 (nM)>


> <kon (M-1-s-1)>


> <koff (s-1)>


> <pH>


> <Temp C>


> <Curation/DataSource>
ChEMBL

> <Article DOI>
10.1021/acsmedchemlett.0c00440

> <BindingDB Entry DOI>
10.7270/Q2WM1J1B

> <PMID>
33488967

> <PubChem AID>


> <Patent Number>


> <Authors>
Maiwald, S; Heim, C; Hernandez Alvarez, B; Hartmann, MD

> <Date of publication>
1/14/2021

> <Date in BindingDB>
3/23/2022

> <Institution>
Max Planck Institute for Developmental Biology

> <Link to Ligand in BindingDB>
http://www.bindingdb.org/bind/chemsearch/marvin/MolStructure.jsp?monomerid=65497

> <Link to Ligand-Target Pair in BindingDB>
http://www.bindingdb.org/jsp/dbsearch/PrimarySearch_ki.jsp?energyterm=kJ/mole&tag=pol&polymerid=50007050&target=Protein+cereblon&column=ki&startPg=0&Increment=50&submit=Search

> <Link to Ligand-Target Pair in BindingDB>
http://www.bindingdb.org/jsp/dbsearch/PrimarySearch_ki.jsp?energyterm=kJ/mole&tag=r21&monomerid=65497&enzyme=Protein+cereblon&column=ki&startPg=0&Increment=50&submit=Search

> <Ligand HET ID in PDB>
8W7

> <PDB ID(s) for Ligand-Target Complex>
7PS9,5V3O,8D80

> <PubChem CID of Ligand>
67335295

> <PubChem SID of Ligand>
350083120

> <ChEBI ID of Ligand>


> <ChEMBL ID of Ligand>


> <DrugBank ID of Ligand>


> <IUPHAR_GRAC ID of Ligand>


> <KEGG ID of Ligand>


> <ZINC ID of Ligand>
ZINC13133466

> <Number of Protein Chains in Target (bigger than 1 implies a multichain complex)>
1

> <BindingDB Target Chain Sequence>
MAGEGDQQDAAHNMGNHLPLLPAESEEEDEMEVEDQDSKEAKKPNIINFDTSLPTSHTYLGADMEEFHGRTLHDDDSCQVIPVLPQVMMILIPGQTLPLQLFHPQEVSMVRNLIQKDRTFAVLAYSNVQEREAQFGTTAEIYAYREEQDFGIEIVKVKAIGRQRFKVLELRTQSDGIQQAKVQILPECVLPSTMSAVQLESLNKCQIFPSKPVSREDQCSYKWWQKYQKRKFHCANLTSWPRWLYSLYDAETLMDRIKKQLREWDENLKDDSLPSNPIDFSYRVAACLPIDDVLRIQLLKIGSAIQRLRCELDIMNKCTSLCCKQCQETEITTKNEIFSLSLCGPMAAYVNPHGYVHETLTVYKACNLNLIGRPSTEHSWFPGYAWTVAQCKICASHIGWKFTATKKDMSPQKFWGLTRSALLPTIPDTEDEISPDKVILCL

> <PDB ID(s) of Target Chain>
4TZ4,5HXB,5V3O,6UML,6XK9,7LPS,7U8F,8CVP,8D7U,8D7V,8D7W,8D7X,8D7Y,8D7Z,8D80,8D81,8DEY,8OIZ,8OJH

> <UniProt (SwissProt) Recommended Name of Target Chain>
Protein cereblon

> <UniProt (SwissProt) Entry Name of Target Chain>
CRBN_HUMAN

> <UniProt (SwissProt) Primary ID of Target Chain>
Q96SW2

> <UniProt (SwissProt) Secondary ID(s) of Target Chain>
B2R6H4 C9IZA9 C9JAH6 Q6AI62 Q6NVZ0 Q9UHW4

> <UniProt (SwissProt) Alternative ID(s) of Target Chain>


> <UniProt (TrEMBL) Submitted Name of Target Chain>


> <UniProt (TrEMBL) Entry Name of Target Chain>


> <UniProt (TrEMBL) Primary ID of Target Chain>


> <UniProt (TrEMBL) Secondary ID(s) of Target Chain>


> <UniProt (TrEMBL) Alternative ID(s) of Target Chain>


$$$$
 
     RDKit          2D

 17 18  0  0  0  0  0  0  0  0999 V2000
   -2.4995   -0.2050    0.0000 C   0  0  0  0  0  0  0  0  0  0  0  0
   -1.7850    0.2074    0.0000 C   0  0  0  0  0  0  0  0  0  0  0  0
   -1.0705   -0.2050    0.0000 C   0  0  0  0  0  0  0  0  0  0  0  0
   -1.0705   -1.0301    0.0000 C   0  0  0  0  0  0  0  0  0  0  0  0
   -1.7850   -1.4426    0.0000 N   0  0  0  0  0  0  0  0  0  0  0  0
   -2.4995   -1.0301    0.0000 C   0  0  0  0  0  0  0  0  0  0  0  0
   -3.2138   -1.4425    0.0000 O   0  0  0  0  0  0  0  0  0  0  0  0
   -0.3562   -1.4425    0.0000 O   0  0  0  0  0  0  0  0  0  0  0  0
   -0.3562    0.2072    0.0000 C   0  0  0  0  0  0  0  0  0  0  0  0
    0.3580   -0.2050    0.0000 S   0  0  0  0  0  0  0  0  0  0  0  0
    1.0723    0.2072    0.0000 C   0  0  0  0  0  0  0  0  0  0  0  0
    1.0725    1.0321    0.0000 C   0  0  0  0  0  0  0  0  0  0  0  0
    1.7851    1.4426    0.0000 C   0  0  0  0  0  0  0  0  0  0  0  0
    2.4995    1.0301    0.0000 C   0  0  0  0  0  0  0  0  0  0  0  0
    2.5011    0.2094    0.0000 C   0  0  0  0  0  0  0  0  0  0  0  0
    1.7896   -0.2068    0.0000 C   0  0  0  0  0  0  0  0  0  0  0  0
    3.2138    1.4425    0.0000 C   0  0  0  0  0  0  0  0  0  0  0  0
  1  2  1  0
  3  2  1  0
  4  3  1  0
  5  4  1  0
  1  6  1  0
  6  5  1  0
  6  7  2  0
  4  8  2  0
  3  9  1  0
  9 10  1  0
 10 11  1  0
 12 11  2  0
 13 12  1  0
 14 13  2  0
 15 14  1  0
 16 15  2  0
 11 16  1  0
 14 17  1  0
M  END
> <From>
www.bindingDB.org

> <BindingDB Reactant_set_id>
51553728

> <Ligand InChI>
InChI=1S/C13H15NO2S/c1-9-2-5-11(6-3-9)17-8-10-4-7-12(15)14-13(10)16/h2-3,5-6,10H,4,7-8H2,1H3,(H,14,15,16)

> <Ligand InChI Key>
MVIKRIPLXUENOJ-UHFFFAOYSA-N

> <BindingDB MonomerID>
50625121

> <BindingDB Ligand Name>
CHEMBL5406302

> <Target Name>
Protein cereblon

> <Target Source Organism According to Curator or DataSource>
Homo sapiens

> <Ki (nM)>
 5000

> <IC50 (nM)>


> <Kd (nM)>


> <EC50 (nM)>


> <kon (M-1-s-1)>


> <koff (s-1)>


> <pH>


> <Temp C>


> <Curation/DataSource>
ChEMBL

> <Article DOI>
10.1016/j.ejmech.2022.114990

> <BindingDB Entry DOI>
10.7270/Q2F1944V

> <PMID>
36476642

> <PubChem AID>


> <Patent Number>


> <Authors>
n/a

> <Date of publication>
1/15/2023

> <Date in BindingDB>
12/18/2024

> <Institution>
n/a

> <Link to Ligand in BindingDB>
http://www.bindingdb.org/bind/chemsearch/marvin/MolStructure.jsp?monomerid=50625121

> <Link to Ligand-Target Pair in BindingDB>
http://www.bindingdb.org/jsp/dbsearch/PrimarySearch_ki.jsp?energyterm=kJ/mole&tag=pol&polymerid=50007050&target=Protein+cereblon&column=ki&startPg=0&Increment=50&submit=Search

> <Link to Ligand-Target Pair in BindingDB>
http://www.bindingdb.org/jsp/dbsearch/PrimarySearch_ki.jsp?energyterm=kJ/mole&tag=r21&monomerid=50625121&enzyme=Protein+cereblon&column=ki&startPg=0&Increment=50&submit=Search

> <Ligand HET ID in PDB>


> <PDB ID(s) for Ligand-Target Complex>


> <PubChem CID>


> <PubChem SID>


> <ChEBI ID of Ligand>


> <ChEMBL ID of Ligand>


> <DrugBank ID of Ligand>


> <IUPHAR_GRAC ID of Ligand>


> <KEGG ID of Ligand>


> <ZINC ID of Ligand>


> <Number of Protein Chains in Target (bigger than 1 implies a multichain complex)>
1

> <BindingDB Target Chain Sequence>
MAGEGDQQDAAHNMGNHLPLLPAESEEEDEMEVEDQDSKEAKKPNIINFDTSLPTSHTYLGADMEEFHGRTLHDDDSCQVIPVLPQVMMILIPGQTLPLQLFHPQEVSMVRNLIQKDRTFAVLAYSNVQEREAQFGTTAEIYAYREEQDFGIEIVKVKAIGRQRFKVLELRTQSDGIQQAKVQILPECVLPSTMSAVQLESLNKCQIFPSKPVSREDQCSYKWWQKYQKRKFHCANLTSWPRWLYSLYDAETLMDRIKKQLREWDENLKDDSLPSNPIDFSYRVAACLPIDDVLRIQLLKIGSAIQRLRCELDIMNKCTSLCCKQCQETEITTKNEIFSLSLCGPMAAYVNPHGYVHETLTVYKACNLNLIGRPSTEHSWFPGYAWTVAQCKICASHIGWKFTATKKDMSPQKFWGLTRSALLPTIPDTEDEISPDKVILCL

> <PDB ID(s) of Target Chain>
8TNR,8TNQ,8TNP,8D81,8D80,8D7Z,8D7Y,8D7X,8D7W,8D7V,8D7U,8CVP,9DQD,8UH6,6BOY,6BNB,6BN9,6BN8,6BN7,6XK9,6UML,5V3O,5HXB,7U8F,8OJH,8OIZ,7LPS,4TZ4,9DJX,9DJT,8U17,8U16,8U15,8TZX,8DEY,9CUO,4M91

> <UniProt (SwissProt) Recommended Name of Target Chain>
Protein cereblon

> <UniProt (SwissProt) Entry Name of Target Chain>
CRBN_HUMAN

> <UniProt (SwissProt) Primary ID of Target Chain>
Q96SW2

> <UniProt (SwissProt) Secondary ID(s) of Target Chain>
B2R6H4 C9IZA9 C9JAH6 Q6AI62 Q6NVZ0 Q9UHW4

> <UniProt (SwissProt) Alternative ID(s) of Target Chain>


> <UniProt (TrEMBL) Submitted Name of Target Chain>


> <UniProt (TrEMBL) Entry Name of Target Chain>


> <UniProt (TrEMBL) Primary ID of Target Chain>


> <UniProt (TrEMBL) Secondary ID(s) of Target Chain>


> <UniProt (TrEMBL) Alternative ID(s) of Target Chain>


$$$$
 
     RDKit          2D

 75 82  0  0  0  0  0  0  0  0999 V2000
   -8.0623    5.0599    0.0000 C   0  0  0  0  0  0  0  0  0  0  0  0
   -8.2723    5.8578    0.0000 F   0  0  0  0  0  0  0  0  0  0  0  0
   -7.4744    5.6478    0.0000 F   0  0  0  0  0  0  0  0  0  0  0  0
   -7.4744    4.4720    0.0000 C   0  0  0  0  0  0  0  0  0  0  0  0
   -7.6844    3.6742    0.0000 C   0  0  0  0  0  0  0  0  0  0  0  0
   -7.0965    3.0863    0.0000 C   0  0  0  0  0  0  0  0  0  0  0  0
   -6.2987    3.2963    0.0000 C   0  0  0  0  0  0  0  0  0  0  0  0
   -5.8367    2.5824    0.0000 S   0  0  0  0  0  0  0  0  0  0  0  0
   -6.3826    1.9526    0.0000 C   0  0  0  0  0  0  0  0  0  0  0  0
   -7.1385    2.2465    0.0000 C   0  0  0  0  0  0  0  0  0  0  0  0
   -6.1307    1.1547    0.0000 C   0  0  0  0  0  0  0  0  0  0  0  0
   -5.3329    0.9447    0.0000 N   0  0  0  0  0  0  0  0  0  0  0  0
   -5.1229    0.1050    0.0000 C   0  0  0  0  0  0  0  0  0  0  0  0
   -4.3251   -0.1050    0.0000 C   0  0  0  0  0  0  0  0  0  0  0  0
   -3.7372    0.4828    0.0000 O   0  0  0  0  0  0  0  0  0  0  0  0
   -4.1571   -0.9028    0.0000 N   0  0  0  0  0  0  0  0  0  0  0  0
   -3.4013   -1.2387    0.0000 C   0  0  0  0  0  0  0  0  0  0  0  0
   -3.4852   -2.0785    0.0000 C   0  0  0  0  0  0  0  0  0  0  0  0
   -4.2831   -2.2465    0.0000 C   0  0  0  0  0  0  0  0  0  0  0  0
   -4.7030   -1.5326    0.0000 C   0  0  0  0  0  0  0  0  0  0  0  0
   -2.6874   -0.8188    0.0000 C   0  0  0  0  0  0  0  0  0  0  0  0
   -1.9735   -1.2387    0.0000 N   0  0  0  0  0  0  0  0  0  0  0  0
   -1.9735   -2.0785    0.0000 C   0  0  0  0  0  0  0  0  0  0  0  0
   -1.2177   -2.4985    0.0000 C   0  0  0  0  0  0  0  0  0  0  0  0
   -1.2177   -3.3383    0.0000 C   0  0  0  0  0  0  0  0  0  0  0  0
   -1.9735   -3.7582    0.0000 C   0  0  0  0  0  0  0  0  0  0  0  0
   -2.6874   -3.3383    0.0000 C   0  0  0  0  0  0  0  0  0  0  0  0
   -2.6874   -2.4985    0.0000 C   0  0  0  0  0  0  0  0  0  0  0  0
   -1.9735   -4.5560    0.0000 C   0  0  0  0  0  0  0  0  0  0  0  0
   -2.6454   -5.0599    0.0000 S   0  0  0  0  0  0  0  0  0  0  0  0
   -2.3514   -5.8578    0.0000 C   0  0  0  0  0  0  0  0  0  0  0  0
   -1.5536   -5.8578    0.0000 C   0  0  0  0  0  0  0  0  0  0  0  0
   -1.2597   -5.0599    0.0000 N   0  0  0  0  0  0  0  0  0  0  0  0
   -1.2177   -0.8188    0.0000 C   0  0  0  0  0  0  0  0  0  0  0  0
   -0.5038   -1.2387    0.0000 C   0  0  0  0  0  0  0  0  0  0  0  0
    0.2099   -0.8188    0.0000 C   0  0  0  0  0  0  0  0  0  0  0  0
    0.2099    0.0210    0.0000 O   0  0  0  0  0  0  0  0  0  0  0  0
    0.9238   -1.2387    0.0000 N   0  0  0  0  0  0  0  0  0  0  0  0
    1.6377   -0.8188    0.0000 C   0  0  0  0  0  0  0  0  0  0  0  0
    2.3515   -1.2387    0.0000 C   0  0  0  0  0  0  0  0  0  0  0  0
    3.1073   -0.8188    0.0000 C   0  0  0  0  0  0  0  0  0  0  0  0
    3.8212   -1.2387    0.0000 C   0  0  0  0  0  0  0  0  0  0  0  0
    4.5351   -1.6586    0.0000 C   0  0  0  0  0  0  0  0  0  0  0  0
    5.2489   -2.0785    0.0000 C   0  0  0  0  0  0  0  0  0  0  0  0
    5.9627   -1.6586    0.0000 C   0  0  0  0  0  0  0  0  0  0  0  0
    6.1308   -0.8608    0.0000 C   0  0  0  0  0  0  0  0  0  0  0  0
    6.9706   -0.7768    0.0000 N   0  0  0  0  0  0  0  0  0  0  0  0
    7.3065   -1.5326    0.0000 C   0  0  0  0  0  0  0  0  0  0  0  0
    6.6767   -2.0785    0.0000 C   0  0  0  0  0  0  0  0  0  0  0  0
    6.6767   -2.9184    0.0000 C   0  0  0  0  0  0  0  0  0  0  0  0
    5.9627   -3.3383    0.0000 C   0  0  0  0  0  0  0  0  0  0  0  0
    5.2489   -2.9184    0.0000 C   0  0  0  0  0  0  0  0  0  0  0  0
    8.1043   -1.7006    0.0000 O   0  0  0  0  0  0  0  0  0  0  0  0
    7.3905   -0.0210    0.0000 C   0  0  0  0  0  0  0  0  0  0  0  0
    8.2303   -0.0210    0.0000 C   0  0  0  0  0  0  0  0  0  0  0  0
    8.6502    0.6928    0.0000 N   0  0  0  0  0  0  0  0  0  0  0  0
    8.2303    1.4067    0.0000 C   0  0  0  0  0  0  0  0  0  0  0  0
    7.3905    1.4067    0.0000 C   0  0  0  0  0  0  0  0  0  0  0  0
    6.9706    0.6928    0.0000 C   0  0  0  0  0  0  0  0  0  0  0  0
    8.6502    2.1205    0.0000 O   0  0  0  0  0  0  0  0  0  0  0  0
    9.4481    0.6928    0.0000 C   0  0  0  0  0  0  0  0  0  0  0  0
    8.6502   -0.7768    0.0000 O   0  0  0  0  0  0  0  0  0  0  0  0
    0.9238   -2.0785    0.0000 C   0  0  0  0  0  0  0  0  0  0  0  0
   -2.6874    0.0210    0.0000 O   0  0  0  0  0  0  0  0  0  0  0  0
   -5.7108   -0.4828    0.0000 C   0  0  0  0  0  0  0  0  0  0  0  0
   -6.5086   -0.2309    0.0000 C   0  0  0  0  0  0  0  0  0  0  0  0
   -5.5009   -1.2807    0.0000 C   0  0  0  0  0  0  0  0  0  0  0  0
   -6.2987   -1.0707    0.0000 C   0  0  0  0  0  0  0  0  0  0  0  0
   -6.7186    0.5668    0.0000 O   0  0  0  0  0  0  0  0  0  0  0  0
   -6.0887    4.0942    0.0000 C   0  0  0  0  0  0  0  0  0  0  0  0
   -6.6766    4.6820    0.0000 C   0  0  0  0  0  0  0  0  0  0  0  0
   -8.8602    4.8500    0.0000 P   0  0  0  0  0  0  0  0  0  0  0  0
   -9.4481    5.4379    0.0000 O   0  0  0  0  0  0  0  0  0  0  0  0
   -9.4471    4.2631    0.0000 O   0  0  0  0  0  0  0  0  0  0  0  0
   -8.6457    4.0498    0.0000 O   0  0  0  0  0  0  0  0  0  0  0  0
  1  2  1  0
  1  3  1  0
  1  4  1  0
  5  4  1  0
  5  6  2  0
  7  6  1  0
  7  8  1  0
  9  8  1  0
  6 10  1  0
 10  9  2  0
  9 11  1  0
 11 12  1  0
 12 13  1  0
 13 14  1  6
 14 15  2  0
 14 16  1  0
 16 17  1  0
 17 18  1  0
 18 19  1  0
 19 20  1  0
 16 20  1  0
 17 21  1  6
 21 22  1  0
 22 23  1  0
 23 24  1  0
 24 25  2  0
 25 26  1  0
 26 27  2  0
 27 28  1  0
 23 28  2  0
 26 29  1  0
 30 29  1  0
 30 31  1  0
 32 31  2  0
 29 33  2  0
 33 32  1  0
 22 34  1  0
 34 35  1  0
 35 36  1  0
 36 37  2  0
 36 38  1  0
 38 39  1  0
 39 40  1  0
 40 41  1  0
 41 42  1  0
 42 43  3  0
 43 44  1  0
 45 44  1  0
 46 45  1  0
 47 46  1  0
 48 47  1  0
 48 49  1  0
 45 49  2  0
 50 49  1  0
 51 50  2  0
 44 52  2  0
 52 51  1  0
 48 53  2  0
 47 54  1  0
 55 54  1  0
 56 55  1  0
 56 57  1  0
 58 57  1  0
 54 59  1  0
 59 58  1  0
 57 60  2  0
 56 61  1  0
 55 62  2  0
 38 63  1  0
 21 64  2  0
 13 65  1  0
 65 66  1  0
 65 67  1  0
 65 68  1  0
 11 69  2  0
 70  7  2  0
  4 71  2  0
 71 70  1  0
  1 72  1  0
 72 73  2  0
 72 74  1  0
 72 75  1  0
M  END
> <From>
www.bindingDB.org

> <BindingDB Reactant_set_id>
51571940

> <Ligand InChI>
InChI=1S/C53H56F2N7O10PS2/c1-52(2,3)45(57-46(65)42-30-34-29-35(17-21-41(34)75-42)53(54,55)73(70,71)72)51(69)61-26-10-14-39(61)50(68)60(36-18-15-33(16-19-36)47-56-24-28-74-47)27-23-43(63)58(4)25-8-6-7-11-32-12-9-13-37-38(32)31-62(48(37)66)40-20-22-44(64)59(5)49(40)67/h9,12-13,15-19,21,24,28-30,39-40,45H,6,8,10,14,20,22-23,25-27,31H2,1-5H3,(H,57,65)(H2,70,71,72)/t39-,40?,45+/m0/s1

> <Ligand InChI Key>
RXSHMNKIJYRTDR-FBTAHYLKSA-N

> <BindingDB MonomerID>
50632191

> <BindingDB Ligand Name>
CHEMBL5423420

> <Target Name>
Protein cereblon

> <Target Source Organism According to Curator or DataSource>
Homo sapiens

> <Ki (nM)>
>5000

> <IC50 (nM)>


> <Kd (nM)>


> <EC50 (nM)>


> <kon (M-1-s-1)>


> <koff (s-1)>


> <pH>


> <Temp C>


> <Curation/DataSource>
ChEMBL

> <Article DOI>
10.1021/acs.jmedchem.2c01665

> <BindingDB Entry DOI>
10.7270/Q2639V6Z

> <PMID>
36735833

> <PubChem AID>


> <Patent Number>


> <Authors>
Kaneshige, A; Bai, L; Wang, M; McEachern, D; Meagher, JL; Xu, R; Kirchhoff, PD; Wen, B; Sun, D; Stuckey, JA; Wang, S

> <Date of publication>
2/23/2023

> <Date in BindingDB>
12/22/2024

> <Institution>
University of Michigan

> <Link to Ligand in BindingDB>
http://www.bindingdb.org/bind/chemsearch/marvin/MolStructure.jsp?monomerid=50632191

> <Link to Ligand-Target Pair in BindingDB>
http://www.bindingdb.org/jsp/dbsearch/PrimarySearch_ki.jsp?energyterm=kJ/mole&tag=pol&polymerid=50007050&target=Protein+cereblon&column=ki&startPg=0&Increment=50&submit=Search

> <Link to Ligand-Target Pair in BindingDB>
http://www.bindingdb.org/jsp/dbsearch/PrimarySearch_ki.jsp?energyterm=kJ/mole&tag=r21&monomerid=50632191&enzyme=Protein+cereblon&column=ki&startPg=0&Increment=50&submit=Search

> <Ligand HET ID in PDB>


> <PDB ID(s) for Ligand-Target Complex>


> <PubChem CID of Ligand>
166594185

> <PubChem SID of Ligand>
505036525

> <ChEBI ID of Ligand>


> <ChEMBL ID of Ligand>


> <DrugBank ID of Ligand>


> <IUPHAR_GRAC ID of Ligand>


> <KEGG ID of Ligand>


> <ZINC ID of Ligand>


> <Number of Protein Chains in Target (bigger than 1 implies a multichain complex)>
1

> <BindingDB Target Chain Sequence>
MAGEGDQQDAAHNMGNHLPLLPAESEEEDEMEVEDQDSKEAKKPNIINFDTSLPTSHTYLGADMEEFHGRTLHDDDSCQVIPVLPQVMMILIPGQTLPLQLFHPQEVSMVRNLIQKDRTFAVLAYSNVQEREAQFGTTAEIYAYREEQDFGIEIVKVKAIGRQRFKVLELRTQSDGIQQAKVQILPECVLPSTMSAVQLESLNKCQIFPSKPVSREDQCSYKWWQKYQKRKFHCANLTSWPRWLYSLYDAETLMDRIKKQLREWDENLKDDSLPSNPIDFSYRVAACLPIDDVLRIQLLKIGSAIQRLRCELDIMNKCTSLCCKQCQETEITTKNEIFSLSLCGPMAAYVNPHGYVHETLTVYKACNLNLIGRPSTEHSWFPGYAWTVAQCKICASHIGWKFTATKKDMSPQKFWGLTRSALLPTIPDTEDEISPDKVILCL

> <PDB ID(s) of Target Chain>
8TNR,8TNQ,8TNP,8D81,8D80,8D7Z,8D7Y,8D7X,8D7W,8D7V,8D7U,8CVP,9DQD,8UH6,6BOY,6BNB,6BN9,6BN8,6BN7,6XK9,6UML,5V3O,5HXB,7U8F,8OJH,8OIZ,7LPS,4TZ4,9DJX,9DJT,8U17,8U16,8U15,8TZX,8DEY,9CUO,4M91

> <UniProt (SwissProt) Recommended Name of Target Chain>
Protein cereblon

> <UniProt (SwissProt) Entry Name of Target Chain>
CRBN_HUMAN

> <UniProt (SwissProt) Primary ID of Target Chain>
Q96SW2

> <UniProt (SwissProt) Secondary ID(s) of Target Chain>
B2R6H4 C9IZA9 C9JAH6 Q6AI62 Q6NVZ0 Q9UHW4

> <UniProt (SwissProt) Alternative ID(s) of Target Chain>


> <UniProt (TrEMBL) Submitted Name of Target Chain>


> <UniProt (TrEMBL) Entry Name of Target Chain>


> <UniProt (TrEMBL) Primary ID of Target Chain>


> <UniProt (TrEMBL) Secondary ID(s) of Target Chain>


> <UniProt (TrEMBL) Alternative ID(s) of Target Chain>


$$$$
 
     RDKit          2D

 17 18  0  0  0  0  0  0  0  0999 V2000
   -2.4994   -0.2050    0.0000 C   0  0  0  0  0  0  0  0  0  0  0  0
   -1.7849    0.2074    0.0000 C   0  0  0  0  0  0  0  0  0  0  0  0
   -1.0705   -0.2050    0.0000 C   0  0  0  0  0  0  0  0  0  0  0  0
   -1.0705   -1.0301    0.0000 C   0  0  0  0  0  0  0  0  0  0  0  0
   -1.7849   -1.4425    0.0000 N   0  0  0  0  0  0  0  0  0  0  0  0
   -2.4994   -1.0301    0.0000 C   0  0  0  0  0  0  0  0  0  0  0  0
   -3.2137   -1.4424    0.0000 O   0  0  0  0  0  0  0  0  0  0  0  0
   -0.3562   -1.4424    0.0000 O   0  0  0  0  0  0  0  0  0  0  0  0
   -0.3562    0.2073    0.0000 C   0  0  0  0  0  0  0  0  0  0  0  0
    0.3580   -0.2050    0.0000 S   0  0  0  0  0  0  0  0  0  0  0  0
    1.0722    0.2073    0.0000 C   0  0  0  0  0  0  0  0  0  0  0  0
    1.0725    1.0321    0.0000 C   0  0  0  0  0  0  0  0  0  0  0  0
    1.7850    1.4425    0.0000 C   0  0  0  0  0  0  0  0  0  0  0  0
    2.4994    1.0301    0.0000 C   0  0  0  0  0  0  0  0  0  0  0  0
    2.5010    0.2094    0.0000 C   0  0  0  0  0  0  0  0  0  0  0  0
    1.7896   -0.2068    0.0000 C   0  0  0  0  0  0  0  0  0  0  0  0
    3.2137    1.4425    0.0000 Cl  0  0  0  0  0  0  0  0  0  0  0  0
  1  2  1  0
  3  2  1  0
  4  3  1  0
  5  4  1  0
  1  6  1  0
  6  5  1  0
  6  7  2  0
  4  8  2  0
  3  9  1  0
  9 10  1  0
 10 11  1  0
 12 11  2  0
 13 12  1  0
 14 13  2  0
 15 14  1  0
 16 15  2  0
 11 16  1  0
 14 17  1  0
M  END
> <From>
www.bindingDB.org

> <BindingDB Reactant_set_id>
51553727

> <Ligand InChI>
InChI=1S/C12H12ClNO2S/c13-9-2-4-10(5-3-9)17-7-8-1-6-11(15)14-12(8)16/h2-5,8H,1,6-7H2,(H,14,15,16)

> <Ligand InChI Key>
LESSZBSLYSHLDN-UHFFFAOYSA-N

> <BindingDB MonomerID>
50625120

> <BindingDB Ligand Name>
CHEMBL5418739

> <Target Name>
Protein cereblon

> <Target Source Organism According to Curator or DataSource>
Homo sapiens

> <Ki (nM)>
 5100

> <IC50 (nM)>


> <Kd (nM)>


> <EC50 (nM)>


> <kon (M-1-s-1)>


> <koff (s-1)>


> <pH>


> <Temp C>


> <Curation/DataSource>
ChEMBL

> <Article DOI>
10.1016/j.ejmech.2022.114990

> <BindingDB Entry DOI>
10.7270/Q2F1944V

> <PMID>
36476642

> <PubChem AID>


> <Patent Number>


> <Authors>
n/a

> <Date of publication>
1/15/2023

> <Date in BindingDB>
12/18/2024

> <Institution>
n/a

> <Link to Ligand in BindingDB>
http://www.bindingdb.org/bind/chemsearch/marvin/MolStructure.jsp?monomerid=50625120

> <Link to Ligand-Target Pair in BindingDB>
http://www.bindingdb.org/jsp/dbsearch/PrimarySearch_ki.jsp?energyterm=kJ/mole&tag=pol&polymerid=50007050&target=Protein+cereblon&column=ki&startPg=0&Increment=50&submit=Search

> <Link to Ligand-Target Pair in BindingDB>
http://www.bindingdb.org/jsp/dbsearch/PrimarySearch_ki.jsp?energyterm=kJ/mole&tag=r21&monomerid=50625120&enzyme=Protein+cereblon&column=ki&startPg=0&Increment=50&submit=Search

> <Ligand HET ID in PDB>


> <PDB ID(s) for Ligand-Target Complex>


> <PubChem CID>


> <PubChem SID>


> <ChEBI ID of Ligand>


> <ChEMBL ID of Ligand>


> <DrugBank ID of Ligand>


> <IUPHAR_GRAC ID of Ligand>


> <KEGG ID of Ligand>


> <ZINC ID of Ligand>


> <Number of Protein Chains in Target (bigger than 1 implies a multichain complex)>
1

> <BindingDB Target Chain Sequence>
MAGEGDQQDAAHNMGNHLPLLPAESEEEDEMEVEDQDSKEAKKPNIINFDTSLPTSHTYLGADMEEFHGRTLHDDDSCQVIPVLPQVMMILIPGQTLPLQLFHPQEVSMVRNLIQKDRTFAVLAYSNVQEREAQFGTTAEIYAYREEQDFGIEIVKVKAIGRQRFKVLELRTQSDGIQQAKVQILPECVLPSTMSAVQLESLNKCQIFPSKPVSREDQCSYKWWQKYQKRKFHCANLTSWPRWLYSLYDAETLMDRIKKQLREWDENLKDDSLPSNPIDFSYRVAACLPIDDVLRIQLLKIGSAIQRLRCELDIMNKCTSLCCKQCQETEITTKNEIFSLSLCGPMAAYVNPHGYVHETLTVYKACNLNLIGRPSTEHSWFPGYAWTVAQCKICASHIGWKFTATKKDMSPQKFWGLTRSALLPTIPDTEDEISPDKVILCL

> <PDB ID(s) of Target Chain>
8TNR,8TNQ,8TNP,8D81,8D80,8D7Z,8D7Y,8D7X,8D7W,8D7V,8D7U,8CVP,9DQD,8UH6,6BOY,6BNB,6BN9,6BN8,6BN7,6XK9,6UML,5V3O,5HXB,7U8F,8OJH,8OIZ,7LPS,4TZ4,9DJX,9DJT,8U17,8U16,8U15,8TZX,8DEY,9CUO,4M91

> <UniProt (SwissProt) Recommended Name of Target Chain>
Protein cereblon

> <UniProt (SwissProt) Entry Name of Target Chain>
CRBN_HUMAN

> <UniProt (SwissProt) Primary ID of Target Chain>
Q96SW2

> <UniProt (SwissProt) Secondary ID(s) of Target Chain>
B2R6H4 C9IZA9 C9JAH6 Q6AI62 Q6NVZ0 Q9UHW4

> <UniProt (SwissProt) Alternative ID(s) of Target Chain>


> <UniProt (TrEMBL) Submitted Name of Target Chain>


> <UniProt (TrEMBL) Entry Name of Target Chain>


> <UniProt (TrEMBL) Primary ID of Target Chain>


> <UniProt (TrEMBL) Secondary ID(s) of Target Chain>


> <UniProt (TrEMBL) Alternative ID(s) of Target Chain>


$$$$
 
     RDKit          2D

 21 22  0  0  0  0  0  0  0  0999 V2000
   -2.8576    0.8254    0.0000 C   0  0  0  0  0  0  0  0  0  0  0  0
   -2.1431    1.2380    0.0000 C   0  0  0  0  0  0  0  0  0  0  0  0
   -1.4286    0.8254    0.0000 C   0  0  0  0  0  0  0  0  0  0  0  0
   -1.4286    0.0004    0.0000 C   0  0  0  0  0  0  0  0  0  0  0  0
   -2.1431   -0.4120    0.0000 N   0  0  0  0  0  0  0  0  0  0  0  0
   -2.8576    0.0004    0.0000 C   0  0  0  0  0  0  0  0  0  0  0  0
   -3.5718   -0.4119    0.0000 O   0  0  0  0  0  0  0  0  0  0  0  0
   -0.7144   -0.4119    0.0000 O   0  0  0  0  0  0  0  0  0  0  0  0
   -0.7144    1.2378    0.0000 C   0  0  0  0  0  0  0  0  0  0  0  0
   -0.0001    0.8254    0.0000 S   0  0  0  0  0  0  0  0  0  0  0  0
    0.7141    1.2378    0.0000 C   0  0  0  0  0  0  0  0  0  0  0  0
    1.4314    0.8237    0.0000 C   0  0  0  0  0  0  0  0  0  0  0  0
    2.1458    1.2359    0.0000 C   0  0  0  0  0  0  0  0  0  0  0  0
    2.8576    0.8240    0.0000 C   0  0  0  0  0  0  0  0  0  0  0  0
    2.8576   -0.0008    0.0000 C   0  0  0  0  0  0  0  0  0  0  0  0
    2.1477   -0.4125    0.0000 C   0  0  0  0  0  0  0  0  0  0  0  0
    1.4314   -0.0045    0.0000 C   0  0  0  0  0  0  0  0  0  0  0  0
    3.5718   -0.4132    0.0000 O   0  0  0  0  0  0  0  0  0  0  0  0
    3.5718   -1.2380    0.0000 C   0  0  0  0  0  0  0  0  0  0  0  0
   -0.4132    0.1099    0.0000 O   0  0  0  0  0  0  0  0  0  0  0  0
    0.4114    0.1099    0.0000 O   0  0  0  0  0  0  0  0  0  0  0  0
  1  2  1  0
  3  2  1  0
  4  3  1  0
  5  4  1  0
  6  5  1  0
  1  6  1  0
  6  7  2  0
  4  8  2  0
  3  9  1  0
  9 10  1  0
 10 11  1  0
 11 12  1  0
 13 12  2  0
 14 13  1  0
 15 14  2  0
 16 15  1  0
 17 16  2  0
 12 17  1  0
 15 18  1  0
 18 19  1  0
 10 20  2  0
 10 21  2  0
M  END
> <From>
www.bindingDB.org

> <BindingDB Reactant_set_id>
51553754

> <Ligand InChI>
InChI=1S/C14H17NO5S/c1-20-12-5-2-10(3-6-12)8-21(18,19)9-11-4-7-13(16)15-14(11)17/h2-3,5-6,11H,4,7-9H2,1H3,(H,15,16,17)

> <Ligand InChI Key>
XZEUGNZMXAQLHL-UHFFFAOYSA-N

> <BindingDB MonomerID>
50625146

> <BindingDB Ligand Name>
CHEMBL5418383

> <Target Name>
Protein cereblon

> <Target Source Organism According to Curator or DataSource>
Homo sapiens

> <Ki (nM)>
 5500

> <IC50 (nM)>


> <Kd (nM)>


> <EC50 (nM)>


> <kon (M-1-s-1)>


> <koff (s-1)>


> <pH>


> <Temp C>


> <Curation/DataSource>
ChEMBL

> <Article DOI>
10.1016/j.ejmech.2022.114990

> <BindingDB Entry DOI>
10.7270/Q2F1944V

> <PMID>
36476642

> <PubChem AID>


> <Patent Number>


> <Authors>
n/a

> <Date of publication>
1/15/2023

> <Date in BindingDB>
12/18/2024

> <Institution>
n/a

> <Link to Ligand in BindingDB>
http://www.bindingdb.org/bind/chemsearch/marvin/MolStructure.jsp?monomerid=50625146

> <Link to Ligand-Target Pair in BindingDB>
http://www.bindingdb.org/jsp/dbsearch/PrimarySearch_ki.jsp?energyterm=kJ/mole&tag=pol&polymerid=50007050&target=Protein+cereblon&column=ki&startPg=0&Increment=50&submit=Search

> <Link to Ligand-Target Pair in BindingDB>
http://www.bindingdb.org/jsp/dbsearch/PrimarySearch_ki.jsp?energyterm=kJ/mole&tag=r21&monomerid=50625146&enzyme=Protein+cereblon&column=ki&startPg=0&Increment=50&submit=Search

> <Ligand HET ID in PDB>


> <PDB ID(s) for Ligand-Target Complex>


> <PubChem CID>


> <PubChem SID>


> <ChEBI ID of Ligand>


> <ChEMBL ID of Ligand>


> <DrugBank ID of Ligand>


> <IUPHAR_GRAC ID of Ligand>


> <KEGG ID of Ligand>


> <ZINC ID of Ligand>


> <Number of Protein Chains in Target (bigger than 1 implies a multichain complex)>
1

> <BindingDB Target Chain Sequence>
MAGEGDQQDAAHNMGNHLPLLPAESEEEDEMEVEDQDSKEAKKPNIINFDTSLPTSHTYLGADMEEFHGRTLHDDDSCQVIPVLPQVMMILIPGQTLPLQLFHPQEVSMVRNLIQKDRTFAVLAYSNVQEREAQFGTTAEIYAYREEQDFGIEIVKVKAIGRQRFKVLELRTQSDGIQQAKVQILPECVLPSTMSAVQLESLNKCQIFPSKPVSREDQCSYKWWQKYQKRKFHCANLTSWPRWLYSLYDAETLMDRIKKQLREWDENLKDDSLPSNPIDFSYRVAACLPIDDVLRIQLLKIGSAIQRLRCELDIMNKCTSLCCKQCQETEITTKNEIFSLSLCGPMAAYVNPHGYVHETLTVYKACNLNLIGRPSTEHSWFPGYAWTVAQCKICASHIGWKFTATKKDMSPQKFWGLTRSALLPTIPDTEDEISPDKVILCL

> <PDB ID(s) of Target Chain>
8TNR,8TNQ,8TNP,8D81,8D80,8D7Z,8D7Y,8D7X,8D7W,8D7V,8D7U,8CVP,9DQD,8UH6,6BOY,6BNB,6BN9,6BN8,6BN7,6XK9,6UML,5V3O,5HXB,7U8F,8OJH,8OIZ,7LPS,4TZ4,9DJX,9DJT,8U17,8U16,8U15,8TZX,8DEY,9CUO,4M91

> <UniProt (SwissProt) Recommended Name of Target Chain>
Protein cereblon

> <UniProt (SwissProt) Entry Name of Target Chain>
CRBN_HUMAN

> <UniProt (SwissProt) Primary ID of Target Chain>
Q96SW2

> <UniProt (SwissProt) Secondary ID(s) of Target Chain>
B2R6H4 C9IZA9 C9JAH6 Q6AI62 Q6NVZ0 Q9UHW4

> <UniProt (SwissProt) Alternative ID(s) of Target Chain>


> <UniProt (TrEMBL) Submitted Name of Target Chain>


> <UniProt (TrEMBL) Entry Name of Target Chain>


> <UniProt (TrEMBL) Primary ID of Target Chain>


> <UniProt (TrEMBL) Secondary ID(s) of Target Chain>


> <UniProt (TrEMBL) Alternative ID(s) of Target Chain>


$$$$

     RDKit          2D

 21 23  0  0  0  0  0  0  0  0999 V2000
    1.7849    5.4933    0.0000 O   0  0  0  0  0  0  0  0  0  0  0  0
    1.3213    4.0667    0.0000 C   0  0  0  0  0  0  0  0  0  0  0  0
    2.3250    2.9520    0.0000 C   0  0  0  0  0  0  0  0  0  0  0  0
    1.8615    1.5254    0.0000 C   0  0  0  0  0  0  0  0  0  0  0  0
    0.3943    1.2135    0.0000 C   0  0  0  0  0  0  0  0  0  0  0  0
    1.2760    0.0000    0.0000 C   0  0  0  0  0  0  0  0  0  0  0  0
    0.3943   -1.2135    0.0000 C   0  0  0  0  0  0  0  0  0  0  0  0
    0.8578   -2.6401    0.0000 C   0  0  0  0  0  0  0  0  0  0  0  0
   -0.1459   -3.7548    0.0000 C   0  0  0  0  0  0  0  0  0  0  0  0
    0.3177   -5.1814    0.0000 C   0  0  0  0  0  0  0  0  0  0  0  0
    1.7849   -5.4933    0.0000 C   0  0  0  0  0  0  0  0  0  0  0  0
    2.7886   -4.3786    0.0000 C   0  0  0  0  0  0  0  0  0  0  0  0
    2.3250   -2.9520    0.0000 C   0  0  0  0  0  0  0  0  0  0  0  0
    3.3287   -1.8373    0.0000 N   0  0  0  0  0  0  0  0  0  0  0  0
    2.8652   -0.4107    0.0000 O   0  0  0  0  0  0  0  0  0  0  0  0
    4.7960   -2.1491    0.0000 O   0  0  0  0  0  0  0  0  0  0  0  0
   -1.0323   -0.7500    0.0000 N   0  0  0  0  0  0  0  0  0  0  0  0
   -1.0323    0.7500    0.0000 O   0  0  0  0  0  0  0  0  0  0  0  0
   -0.6094    2.3282    0.0000 C   0  0  0  0  0  0  0  0  0  0  0  0
   -2.0766    2.0164    0.0000 O   0  0  0  0  0  0  0  0  0  0  0  0
   -0.1459    3.7548    0.0000 N   0  0  0  0  0  0  0  0  0  0  0  0
  1  2  2  0
  2  3  1  0
  3  4  1  0
  4  5  1  0
  5  6  1  0
  6  7  1  0
  7  8  1  0
  8  9  2  0
  9 10  1  0
 10 11  2  0
 11 12  1  0
 12 13  2  0
 13 14  1  0
 14 15  2  0
 14 16  1  0
  7 17  2  0
 17 18  1  0
  5 19  1  0
 19 20  2  0
 19 21  1  0
 21  2  1  0
 18  5  1  0
 13  8  1  0
M  CHG  2  14   1  16  -1
M  END
> <From>
www.bindingDB.org

> <BindingDB Reactant_set_id>
51588687

> <Ligand InChI>
InChI=1S/C13H11N3O5/c17-11-5-6-13(12(18)14-11)7-9(15-21-13)8-3-1-2-4-10(8)16(19)20/h1-4H,5-7H2,(H,14,17,18)

> <Ligand InChI Key>
RDQBZCUTPQCLBV-UHFFFAOYSA-N

> <BindingDB MonomerID>
50639644

> <BindingDB Ligand Name>
CHEMBL5549746

> <Target Name>
Protein cereblon

> <Target Source Organism According to Curator or DataSource>
Human

> <Ki (nM)>
 5900

> <IC50 (nM)>


> <Kd (nM)>


> <EC50 (nM)>


> <kon (M-1-s-1)>


> <koff (s-1)>


> <pH>


> <Temp C>


> <Curation/DataSource>
ChEMBL

> <Article DOI>


> <BindingDB Entry DOI>
10.7270/Q2PC3713

> <PMID>
38552426

> <PubChem AID>


> <Patent Number>


> <Authors>
Shevalev, R; Bischof, L; Sapegin, A; Bunev, A; Olga, G; Kantin, G; Kalinin, S; Hartmann, MD

> <Date of publication>
//0

> <Date in BindingDB>
10/11/2025

> <Institution>
Saint Petersburg State University

> <Link to Ligand in BindingDB>
http://www.bindingdb.org/bind/chemsearch/marvin/MolStructure.jsp?monomerid=50639644

> <Link to Ligand-Target Pair in BindingDB>
http://www.bindingdb.org/rwd/jsp/dbsearch/PrimarySearch_ki.jsp?energyterm=kJ/mole&tag=pol&polymerid=50007050&target=Protein+cereblon&column=ki&startPg=0&Increment=50&submit=Search

> <Link to Ligand-Target Pair in BindingDB>
http://www.bindingdb.org/rwd/jsp/dbsearch/PrimarySearch_ki.jsp?energyterm=kJ/mole&tag=r21&monomerid=50639644&enzyme=Protein+cereblon&column=ki&startPg=0&Increment=50&submit=Search

> <Ligand HET ID in PDB>


> <PDB ID(s) for Ligand-Target Complex>


> <PubChem CID of Ligand>
177376704

> <PubChem SID of Ligand>
519660047

> <ChEBI ID of Ligand>


> <ChEMBL ID of Ligand>


> <DrugBank ID of Ligand>


> <IUPHAR_GRAC ID of Ligand>


> <KEGG ID of Ligand>


> <ZINC ID of Ligand>


> <Number of Protein Chains in Target (bigger than 1 implies a multichain complex)>
1

> <BindingDB Target Chain Sequence>
MAGEGDQQDAAHNMGNHLPLLPAESEEEDEMEVEDQDSKEAKKPNIINFDTSLPTSHTYLGADMEEFHGRTLHDDDSCQVIPVLPQVMMILIPGQTLPLQLFHPQEVSMVRNLIQKDRTFAVLAYSNVQEREAQFGTTAEIYAYREEQDFGIEIVKVKAIGRQRFKVLELRTQSDGIQQAKVQILPECVLPSTMSAVQLESLNKCQIFPSKPVSREDQCSYKWWQKYQKRKFHCANLTSWPRWLYSLYDAETLMDRIKKQLREWDENLKDDSLPSNPIDFSYRVAACLPIDDVLRIQLLKIGSAIQRLRCELDIMNKCTSLCCKQCQETEITTKNEIFSLSLCGPMAAYVNPHGYVHETLTVYKACNLNLIGRPSTEHSWFPGYAWTVAQCKICASHIGWKFTATKKDMSPQKFWGLTRSALLPTIPDTEDEISPDKVILCL

> <PDB ID(s) of Target Chain>
9DUR,8TNR,8TNQ,8TNP,9DWW,9DWV,9NGT,9NFR,9NFQ,8D81,8D80,8D7Z,8D7Y,8D7X,8D7W,8D7V,8D7U,8CVP,9Q2D,9Q03,9DQD,8UH6,9SAI,9SAF,9H59,9E2U,6BOY,6BNB,6BN9,6BN8,6BN7,9OUL,9Y7D,6XK9,6UML,5V3O,5HXB,9HNE,9D0X,9D0W,7U8F,9FJX,8OJH,8OIZ,7LPS,9SFM,9OTY,4TZ4,9DJX,9DJT,8U17,8U16,8U15,8TZX,8DEY,9CUO,4M91

> <UniProt (SwissProt) Recommended Name of Target Chain>
Protein cereblon

> <UniProt (SwissProt) Entry Name of Target Chain>
CRBN_HUMAN

> <UniProt (SwissProt) Primary ID of Target Chain>
Q96SW2

> <UniProt (SwissProt) Secondary ID(s) of Target Chain>
B2R6H4 C9IZA9 C9JAH6 Q6AI62 Q6NVZ0 Q9UHW4

> <UniProt (SwissProt) Alternative ID(s) of Target Chain>


> <UniProt (TrEMBL) Submitted Name of Target Chain>


> <UniProt (TrEMBL) Entry Name of Target Chain>


> <UniProt (TrEMBL) Primary ID of Target Chain>


> <UniProt (TrEMBL) Secondary ID(s) of Target Chain>


> <UniProt (TrEMBL) Alternative ID(s) of Target Chain>


$$$$
 
     RDKit          2D

 17 18  0  0  0  0  0  0  0  0999 V2000
   -2.5000   -0.2050    0.0000 C   0  0  0  0  0  0  0  0  0  0  0  0
   -1.7856    0.2074    0.0000 C   0  0  0  0  0  0  0  0  0  0  0  0
   -1.0712   -0.2050    0.0000 C   0  0  0  0  0  0  0  0  0  0  0  0
   -1.0712   -1.0300    0.0000 C   0  0  0  0  0  0  0  0  0  0  0  0
   -1.7856   -1.4424    0.0000 N   0  0  0  0  0  0  0  0  0  0  0  0
   -2.5000   -1.0300    0.0000 C   0  0  0  0  0  0  0  0  0  0  0  0
   -3.2142   -1.4423    0.0000 O   0  0  0  0  0  0  0  0  0  0  0  0
   -0.3570   -1.4423    0.0000 O   0  0  0  0  0  0  0  0  0  0  0  0
   -0.3570    0.2073    0.0000 C   0  0  0  0  0  0  0  0  0  0  0  0
    0.3571   -0.2050    0.0000 S   0  0  0  0  0  0  0  0  0  0  0  0
    1.0713    0.2073    0.0000 C   0  0  0  0  0  0  0  0  0  0  0  0
    1.0715    1.0320    0.0000 N   0  0  0  0  0  0  0  0  0  0  0  0
    1.7840    1.4424    0.0000 C   0  0  0  0  0  0  0  0  0  0  0  0
    2.4984    1.0300    0.0000 C   0  0  0  0  0  0  0  0  0  0  0  0
    2.5000    0.2094    0.0000 C   0  0  0  0  0  0  0  0  0  0  0  0
    1.7886   -0.2068    0.0000 N   0  0  0  0  0  0  0  0  0  0  0  0
    3.2142   -0.2029    0.0000 C   0  0  0  0  0  0  0  0  0  0  0  0
  1  2  1  0
  3  2  1  0
  4  3  1  0
  5  4  1  0
  1  6  1  0
  6  5  1  0
  6  7  2  0
  4  8  2  0
  3  9  1  0
  9 10  1  0
 10 11  1  0
 12 11  2  0
 13 12  1  0
 14 13  2  0
 15 14  1  0
 16 15  2  0
 11 16  1  0
 15 17  1  0
M  END
> <From>
www.bindingDB.org

> <BindingDB Reactant_set_id>
51553741

> <Ligand InChI>
InChI=1S/C11H13N3O2S/c1-7-4-5-12-11(13-7)17-6-8-2-3-9(15)14-10(8)16/h4-5,8H,2-3,6H2,1H3,(H,14,15,16)

> <Ligand InChI Key>
IPNSVNXZWDZYMC-UHFFFAOYSA-N

> <BindingDB MonomerID>
50625134

> <BindingDB Ligand Name>
CHEMBL5436049

> <Target Name>
Protein cereblon

> <Target Source Organism According to Curator or DataSource>
Homo sapiens

> <Ki (nM)>
 6000

> <IC50 (nM)>


> <Kd (nM)>


> <EC50 (nM)>


> <kon (M-1-s-1)>


> <koff (s-1)>


> <pH>


> <Temp C>


> <Curation/DataSource>
ChEMBL

> <Article DOI>
10.1016/j.ejmech.2022.114990

> <BindingDB Entry DOI>
10.7270/Q2F1944V

> <PMID>
36476642

> <PubChem AID>


> <Patent Number>


> <Authors>
n/a

> <Date of publication>
1/15/2023

> <Date in BindingDB>
12/18/2024

> <Institution>
n/a

> <Link to Ligand in BindingDB>
http://www.bindingdb.org/bind/chemsearch/marvin/MolStructure.jsp?monomerid=50625134

> <Link to Ligand-Target Pair in BindingDB>
http://www.bindingdb.org/jsp/dbsearch/PrimarySearch_ki.jsp?energyterm=kJ/mole&tag=pol&polymerid=50007050&target=Protein+cereblon&column=ki&startPg=0&Increment=50&submit=Search

> <Link to Ligand-Target Pair in BindingDB>
http://www.bindingdb.org/jsp/dbsearch/PrimarySearch_ki.jsp?energyterm=kJ/mole&tag=r21&monomerid=50625134&enzyme=Protein+cereblon&column=ki&startPg=0&Increment=50&submit=Search

> <Ligand HET ID in PDB>


> <PDB ID(s) for Ligand-Target Complex>


> <PubChem CID>


> <PubChem SID>


> <ChEBI ID of Ligand>


> <ChEMBL ID of Ligand>


> <DrugBank ID of Ligand>


> <IUPHAR_GRAC ID of Ligand>


> <KEGG ID of Ligand>


> <ZINC ID of Ligand>


> <Number of Protein Chains in Target (bigger than 1 implies a multichain complex)>
1

> <BindingDB Target Chain Sequence>
MAGEGDQQDAAHNMGNHLPLLPAESEEEDEMEVEDQDSKEAKKPNIINFDTSLPTSHTYLGADMEEFHGRTLHDDDSCQVIPVLPQVMMILIPGQTLPLQLFHPQEVSMVRNLIQKDRTFAVLAYSNVQEREAQFGTTAEIYAYREEQDFGIEIVKVKAIGRQRFKVLELRTQSDGIQQAKVQILPECVLPSTMSAVQLESLNKCQIFPSKPVSREDQCSYKWWQKYQKRKFHCANLTSWPRWLYSLYDAETLMDRIKKQLREWDENLKDDSLPSNPIDFSYRVAACLPIDDVLRIQLLKIGSAIQRLRCELDIMNKCTSLCCKQCQETEITTKNEIFSLSLCGPMAAYVNPHGYVHETLTVYKACNLNLIGRPSTEHSWFPGYAWTVAQCKICASHIGWKFTATKKDMSPQKFWGLTRSALLPTIPDTEDEISPDKVILCL

> <PDB ID(s) of Target Chain>
8TNR,8TNQ,8TNP,8D81,8D80,8D7Z,8D7Y,8D7X,8D7W,8D7V,8D7U,8CVP,9DQD,8UH6,6BOY,6BNB,6BN9,6BN8,6BN7,6XK9,6UML,5V3O,5HXB,7U8F,8OJH,8OIZ,7LPS,4TZ4,9DJX,9DJT,8U17,8U16,8U15,8TZX,8DEY,9CUO,4M91

> <UniProt (SwissProt) Recommended Name of Target Chain>
Protein cereblon

> <UniProt (SwissProt) Entry Name of Target Chain>
CRBN_HUMAN

> <UniProt (SwissProt) Primary ID of Target Chain>
Q96SW2

> <UniProt (SwissProt) Secondary ID(s) of Target Chain>
B2R6H4 C9IZA9 C9JAH6 Q6AI62 Q6NVZ0 Q9UHW4

> <UniProt (SwissProt) Alternative ID(s) of Target Chain>


> <UniProt (TrEMBL) Submitted Name of Target Chain>


> <UniProt (TrEMBL) Entry Name of Target Chain>


> <UniProt (TrEMBL) Primary ID of Target Chain>


> <UniProt (TrEMBL) Secondary ID(s) of Target Chain>


> <UniProt (TrEMBL) Alternative ID(s) of Target Chain>


$$$$
 
     RDKit          2D

 17 18  0  0  0  0  0  0  0  0999 V2000
   -2.1430   -0.2050    0.0000 C   0  0  0  0  0  0  0  0  0  0  0  0
   -1.4285    0.2074    0.0000 C   0  0  0  0  0  0  0  0  0  0  0  0
   -0.7141   -0.2050    0.0000 C   0  0  0  0  0  0  0  0  0  0  0  0
   -0.7141   -1.0300    0.0000 C   0  0  0  0  0  0  0  0  0  0  0  0
   -1.4285   -1.4425    0.0000 N   0  0  0  0  0  0  0  0  0  0  0  0
   -2.1430   -1.0300    0.0000 C   0  0  0  0  0  0  0  0  0  0  0  0
   -2.8572   -1.4424    0.0000 O   0  0  0  0  0  0  0  0  0  0  0  0
    0.0000   -1.4424    0.0000 O   0  0  0  0  0  0  0  0  0  0  0  0
    0.0000    0.2072    0.0000 C   0  0  0  0  0  0  0  0  0  0  0  0
    0.7143   -0.2050    0.0000 S   0  0  0  0  0  0  0  0  0  0  0  0
    1.4285    0.2072    0.0000 C   0  0  0  0  0  0  0  0  0  0  0  0
    1.4287    1.0320    0.0000 C   0  0  0  0  0  0  0  0  0  0  0  0
    2.1412    1.4425    0.0000 C   0  0  0  0  0  0  0  0  0  0  0  0
    2.8557    1.0300    0.0000 C   0  0  0  0  0  0  0  0  0  0  0  0
    2.8572    0.2094    0.0000 C   0  0  0  0  0  0  0  0  0  0  0  0
    2.1458   -0.2067    0.0000 C   0  0  0  0  0  0  0  0  0  0  0  0
    2.1458   -1.0315    0.0000 N   0  0  0  0  0  0  0  0  0  0  0  0
  1  2  1  0
  3  2  1  0
  4  3  1  0
  5  4  1  0
  1  6  1  0
  6  5  1  0
  6  7  2  0
  4  8  2  0
  3  9  1  0
  9 10  1  0
 10 11  1  0
 12 11  2  0
 13 12  1  0
 14 13  2  0
 15 14  1  0
 16 15  2  0
 11 16  1  0
 16 17  1  0
M  END
> <From>
www.bindingDB.org

> <BindingDB Reactant_set_id>
51553742

> <Ligand InChI>
InChI=1S/C12H14N2O2S/c13-9-3-1-2-4-10(9)17-7-8-5-6-11(15)14-12(8)16/h1-4,8H,5-7,13H2,(H,14,15,16)

> <Ligand InChI Key>
DKCSWOFXOBEDFF-UHFFFAOYSA-N

> <BindingDB MonomerID>
50625135

> <BindingDB Ligand Name>
CHEMBL5404825

> <Target Name>
Protein cereblon

> <Target Source Organism According to Curator or DataSource>
Homo sapiens

> <Ki (nM)>
 6000

> <IC50 (nM)>


> <Kd (nM)>


> <EC50 (nM)>


> <kon (M-1-s-1)>


> <koff (s-1)>


> <pH>


> <Temp C>


> <Curation/DataSource>
ChEMBL

> <Article DOI>
10.1016/j.ejmech.2022.114990

> <BindingDB Entry DOI>
10.7270/Q2F1944V

> <PMID>
36476642

> <PubChem AID>


> <Patent Number>


> <Authors>
n/a

> <Date of publication>
1/15/2023

> <Date in BindingDB>
12/18/2024

> <Institution>
n/a

> <Link to Ligand in BindingDB>
http://www.bindingdb.org/bind/chemsearch/marvin/MolStructure.jsp?monomerid=50625135

> <Link to Ligand-Target Pair in BindingDB>
http://www.bindingdb.org/jsp/dbsearch/PrimarySearch_ki.jsp?energyterm=kJ/mole&tag=pol&polymerid=50007050&target=Protein+cereblon&column=ki&startPg=0&Increment=50&submit=Search

> <Link to Ligand-Target Pair in BindingDB>
http://www.bindingdb.org/jsp/dbsearch/PrimarySearch_ki.jsp?energyterm=kJ/mole&tag=r21&monomerid=50625135&enzyme=Protein+cereblon&column=ki&startPg=0&Increment=50&submit=Search

> <Ligand HET ID in PDB>


> <PDB ID(s) for Ligand-Target Complex>


> <PubChem CID>


> <PubChem SID>


> <ChEBI ID of Ligand>


> <ChEMBL ID of Ligand>


> <DrugBank ID of Ligand>


> <IUPHAR_GRAC ID of Ligand>


> <KEGG ID of Ligand>


> <ZINC ID of Ligand>


> <Number of Protein Chains in Target (bigger than 1 implies a multichain complex)>
1

> <BindingDB Target Chain Sequence>
MAGEGDQQDAAHNMGNHLPLLPAESEEEDEMEVEDQDSKEAKKPNIINFDTSLPTSHTYLGADMEEFHGRTLHDDDSCQVIPVLPQVMMILIPGQTLPLQLFHPQEVSMVRNLIQKDRTFAVLAYSNVQEREAQFGTTAEIYAYREEQDFGIEIVKVKAIGRQRFKVLELRTQSDGIQQAKVQILPECVLPSTMSAVQLESLNKCQIFPSKPVSREDQCSYKWWQKYQKRKFHCANLTSWPRWLYSLYDAETLMDRIKKQLREWDENLKDDSLPSNPIDFSYRVAACLPIDDVLRIQLLKIGSAIQRLRCELDIMNKCTSLCCKQCQETEITTKNEIFSLSLCGPMAAYVNPHGYVHETLTVYKACNLNLIGRPSTEHSWFPGYAWTVAQCKICASHIGWKFTATKKDMSPQKFWGLTRSALLPTIPDTEDEISPDKVILCL

> <PDB ID(s) of Target Chain>
8TNR,8TNQ,8TNP,8D81,8D80,8D7Z,8D7Y,8D7X,8D7W,8D7V,8D7U,8CVP,9DQD,8UH6,6BOY,6BNB,6BN9,6BN8,6BN7,6XK9,6UML,5V3O,5HXB,7U8F,8OJH,8OIZ,7LPS,4TZ4,9DJX,9DJT,8U17,8U16,8U15,8TZX,8DEY,9CUO,4M91

> <UniProt (SwissProt) Recommended Name of Target Chain>
Protein cereblon

> <UniProt (SwissProt) Entry Name of Target Chain>
CRBN_HUMAN

> <UniProt (SwissProt) Primary ID of Target Chain>
Q96SW2

> <UniProt (SwissProt) Secondary ID(s) of Target Chain>
B2R6H4 C9IZA9 C9JAH6 Q6AI62 Q6NVZ0 Q9UHW4

> <UniProt (SwissProt) Alternative ID(s) of Target Chain>


> <UniProt (TrEMBL) Submitted Name of Target Chain>


> <UniProt (TrEMBL) Entry Name of Target Chain>


> <UniProt (TrEMBL) Primary ID of Target Chain>


> <UniProt (TrEMBL) Secondary ID(s) of Target Chain>


> <UniProt (TrEMBL) Alternative ID(s) of Target Chain>


$$$$
 
     RDKit          2D

 24 27  0  0  0  0  0  0  0  0999 V2000
   -1.9236    0.4121    0.0000 C   0  0  0  0  0  0  0  0  0  0  0  0
   -1.2090    0.8244    0.0000 C   0  0  0  0  0  0  0  0  0  0  0  0
   -0.4972    0.4126    0.0000 C   0  0  0  0  0  0  0  0  0  0  0  0
   -0.4972   -0.4126    0.0000 C   0  0  0  0  0  0  0  0  0  0  0  0
   -1.2072   -0.8243    0.0000 C   0  0  0  0  0  0  0  0  0  0  0  0
   -1.9236   -0.4163    0.0000 C   0  0  0  0  0  0  0  0  0  0  0  0
    0.2875   -0.6675    0.0000 C   0  0  0  0  0  0  0  0  0  0  0  0
    0.2875    0.6675    0.0000 C   0  0  0  0  0  0  0  0  0  0  0  0
    0.7725   -0.0000    0.0000 N   0  0  0  0  0  0  0  0  0  0  0  0
    1.5977   -0.0000    0.0000 C   0  0  0  0  0  0  0  0  0  0  0  0
    2.0102    0.7145    0.0000 C   0  0  0  0  0  0  0  0  0  0  0  0
    2.8355    0.7145    0.0000 C   0  0  0  0  0  0  0  0  0  0  0  0
    3.2480   -0.0001    0.0000 C   0  0  0  0  0  0  0  0  0  0  0  0
    2.8355   -0.7146    0.0000 N   0  0  0  0  0  0  0  0  0  0  0  0
    2.0103   -0.7146    0.0000 C   0  0  0  0  0  0  0  0  0  0  0  0
    4.0733   -0.0001    0.0000 O   0  0  0  0  0  0  0  0  0  0  0  0
    1.5977   -1.4293    0.0000 O   0  0  0  0  0  0  0  0  0  0  0  0
    0.5010   -1.4646    0.0000 O   0  0  0  0  0  0  0  0  0  0  0  0
    0.5011    1.4646    0.0000 O   0  0  0  0  0  0  0  0  0  0  0  0
   -2.6412   -0.8304    0.0000 C   0  0  0  0  0  0  0  0  0  0  0  0
   -3.3586   -0.4162    0.0000 N   0  0  0  0  0  0  0  0  0  0  0  0
   -3.3586    0.4122    0.0000 C   0  0  0  0  0  0  0  0  0  0  0  0
   -2.6412    0.8264    0.0000 C   0  0  0  0  0  0  0  0  0  0  0  0
   -4.0733   -0.8288    0.0000 C   0  0  0  0  0  0  0  0  0  0  0  0
  2  1  2  0
  3  2  1  0
  4  3  2  0
  5  4  1  0
  1  6  1  0
  6  5  2  0
  4  7  1  0
  3  8  1  0
  8  9  1  0
  9  7  1  0
 10  9  1  0
 10 11  1  0
 12 11  1  0
 13 12  1  0
 14 13  1  0
 10 15  1  0
 15 14  1  0
 13 16  2  0
 15 17  2  0
  7 18  2  0
  8 19  2  0
  6 20  1  0
 21 20  1  0
 22 21  1  0
 23 22  1  0
  1 23  1  0
 21 24  1  0
M  END
> <From>
www.bindingDB.org

> <BindingDB Reactant_set_id>
51563804

> <Ligand InChI>
InChI=1S/C17H17N3O4/c1-19-5-4-9-6-11-12(7-10(9)8-19)17(24)20(16(11)23)13-2-3-14(21)18-15(13)22/h6-7,13H,2-5,8H2,1H3,(H,18,21,22)

> <Ligand InChI Key>
SCKTXZXEJSBGHV-UHFFFAOYSA-N

> <BindingDB MonomerID>
50628762

> <BindingDB Ligand Name>
CHEMBL5432225

> <Target Name>
Protein cereblon

> <Target Source Organism According to Curator or DataSource>
Homo sapiens

> <Ki (nM)>
 6000

> <IC50 (nM)>


> <Kd (nM)>


> <EC50 (nM)>


> <kon (M-1-s-1)>


> <koff (s-1)>


> <pH>


> <Temp C>


> <Curation/DataSource>
ChEMBL

> <Article DOI>
10.1021/acs.jmedchem.3c01264

> <BindingDB Entry DOI>
10.7270/Q2MC94FW

> <PMID>
37683104

> <PubChem AID>


> <Patent Number>


> <Authors>
Xiang, W; Zhao, L; Han, X; Xu, T; Kregel, S; Wang, M; Miao, B; Qin, C; Wang, M; McEachern, D; Lu, J; Bai, L; Yang, CY; Kirchhoff, PD; Takyi-Williams, J; Wang, L; Wen, B; Sun, D; Ator, M; Mckean, R; Chinnaiyan, AM; Wang, S

> <Date of publication>
9/28/2023

> <Date in BindingDB>
12/19/2024

> <Institution>
University of Michigan

> <Link to Ligand in BindingDB>
http://www.bindingdb.org/bind/chemsearch/marvin/MolStructure.jsp?monomerid=50628762

> <Link to Ligand-Target Pair in BindingDB>
http://www.bindingdb.org/jsp/dbsearch/PrimarySearch_ki.jsp?energyterm=kJ/mole&tag=pol&polymerid=50007050&target=Protein+cereblon&column=ki&startPg=0&Increment=50&submit=Search

> <Link to Ligand-Target Pair in BindingDB>
http://www.bindingdb.org/jsp/dbsearch/PrimarySearch_ki.jsp?energyterm=kJ/mole&tag=r21&monomerid=50628762&enzyme=Protein+cereblon&column=ki&startPg=0&Increment=50&submit=Search

> <Ligand HET ID in PDB>


> <PDB ID(s) for Ligand-Target Complex>


> <PubChem CID of Ligand>
156709726

> <PubChem SID of Ligand>
505046734

> <ChEBI ID of Ligand>


> <ChEMBL ID of Ligand>


> <DrugBank ID of Ligand>


> <IUPHAR_GRAC ID of Ligand>


> <KEGG ID of Ligand>


> <ZINC ID of Ligand>


> <Number of Protein Chains in Target (bigger than 1 implies a multichain complex)>
1

> <BindingDB Target Chain Sequence>
MAGEGDQQDAAHNMGNHLPLLPAESEEEDEMEVEDQDSKEAKKPNIINFDTSLPTSHTYLGADMEEFHGRTLHDDDSCQVIPVLPQVMMILIPGQTLPLQLFHPQEVSMVRNLIQKDRTFAVLAYSNVQEREAQFGTTAEIYAYREEQDFGIEIVKVKAIGRQRFKVLELRTQSDGIQQAKVQILPECVLPSTMSAVQLESLNKCQIFPSKPVSREDQCSYKWWQKYQKRKFHCANLTSWPRWLYSLYDAETLMDRIKKQLREWDENLKDDSLPSNPIDFSYRVAACLPIDDVLRIQLLKIGSAIQRLRCELDIMNKCTSLCCKQCQETEITTKNEIFSLSLCGPMAAYVNPHGYVHETLTVYKACNLNLIGRPSTEHSWFPGYAWTVAQCKICASHIGWKFTATKKDMSPQKFWGLTRSALLPTIPDTEDEISPDKVILCL

> <PDB ID(s) of Target Chain>
8TNR,8TNQ,8TNP,8D81,8D80,8D7Z,8D7Y,8D7X,8D7W,8D7V,8D7U,8CVP,9DQD,8UH6,6BOY,6BNB,6BN9,6BN8,6BN7,6XK9,6UML,5V3O,5HXB,7U8F,8OJH,8OIZ,7LPS,4TZ4,9DJX,9DJT,8U17,8U16,8U15,8TZX,8DEY,9CUO,4M91

> <UniProt (SwissProt) Recommended Name of Target Chain>
Protein cereblon

> <UniProt (SwissProt) Entry Name of Target Chain>
CRBN_HUMAN

> <UniProt (SwissProt) Primary ID of Target Chain>
Q96SW2

> <UniProt (SwissProt) Secondary ID(s) of Target Chain>
B2R6H4 C9IZA9 C9JAH6 Q6AI62 Q6NVZ0 Q9UHW4

> <UniProt (SwissProt) Alternative ID(s) of Target Chain>


> <UniProt (TrEMBL) Submitted Name of Target Chain>


> <UniProt (TrEMBL) Entry Name of Target Chain>


> <UniProt (TrEMBL) Primary ID of Target Chain>


> <UniProt (TrEMBL) Secondary ID(s) of Target Chain>


> <UniProt (TrEMBL) Alternative ID(s) of Target Chain>


$$$$
216326
  Mrv0541 01031813182D          

 19 21  0  0  1  0            999 V2000
    4.1147   -1.6769    0.0000 O   0  0  0  0  0  0  0  0  0  0  0  0
    5.1652    1.2004    0.0000 O   0  0  0  0  0  0  0  0  0  0  0  0
    7.6402   -0.2289    0.0000 O   0  0  0  0  0  0  0  0  0  0  0  0
    4.3402   -0.2289    0.0000 N   0  0  0  0  0  0  0  0  0  0  0  0
    6.4025    0.4857    0.0000 N   0  0  0  0  0  0  0  0  0  0  0  0
    2.3633    1.4212    0.0000 N   0  0  0  0  0  0  0  0  0  0  0  0
    5.1652   -0.2289    0.0000 C   0  0  0  0  0  0  0  0  0  0  0  0
    5.5775   -0.9433    0.0000 C   0  0  0  0  0  0  0  0  0  0  0  0
    3.8585    0.4351    0.0000 C   0  0  0  0  0  0  0  0  0  0  0  0
    3.0778    0.1836    0.0000 C   0  0  0  0  0  0  0  0  0  0  0  0
    3.8585   -0.8928    0.0000 C   0  0  0  0  0  0  0  0  0  0  0  0
    6.4025   -0.9433    0.0000 C   0  0  0  0  0  0  0  0  0  0  0  0
    3.0778   -0.6414    0.0000 C   0  0  0  0  0  0  0  0  0  0  0  0
    5.5775    0.4857    0.0000 C   0  0  0  0  0  0  0  0  0  0  0  0
    6.8152   -0.2289    0.0000 C   0  0  0  0  0  0  0  0  0  0  0  0
    2.3633    0.5962    0.0000 C   0  0  0  0  0  0  0  0  0  0  0  0
    2.3633   -1.0539    0.0000 C   0  0  0  0  0  0  0  0  0  0  0  0
    1.6488    0.1836    0.0000 C   0  0  0  0  0  0  0  0  0  0  0  0
    1.6488   -0.6414    0.0000 C   0  0  0  0  0  0  0  0  0  0  0  0
  1 11  2  0  0  0  0
  2 14  2  0  0  0  0
  3 15  2  0  0  0  0
  4  7  1  0  0  0  0
  4  9  1  0  0  0  0
  4 11  1  0  0  0  0
  5 14  1  0  0  0  0
  5 15  1  0  0  0  0
  6 16  1  0  0  0  0
  7  8  1  0  0  0  0
  7 14  1  0  0  0  0
  8 12  1  0  0  0  0
  9 10  1  0  0  0  0
 10 13  4  0  0  0  0
 10 16  4  0  0  0  0
 11 13  1  0  0  0  0
 12 15  1  0  0  0  0
 13 17  4  0  0  0  0
 16 18  4  0  0  0  0
 17 19  4  0  0  0  0
 18 19  4  0  0  0  0
M  END
> <From>
www.bindingDB.org

> <BindingDB Reactant_set_id>
51567933

> <Ligand InChI>
InChI=1S/C13H13N3O3/c14-9-3-1-2-7-8(9)6-16(13(7)19)10-4-5-11(17)15-12(10)18/h1-3,10H,4-6,14H2,(H,15,17,18)

> <Ligand InChI Key>
GOTYRUGSSMKFNF-UHFFFAOYSA-N

> <BindingDB MonomerID>
65454

> <BindingDB Ligand Name>
191732-72-6::CC-5013::Lenalidomide::Revimid::Revlimid::US11530219, Compound Lenalidomide::US9694015, 6.1

> <Target Name>
Protein cereblon

> <Target Source Organism According to Curator or DataSource>
Homo sapiens

> <Ki (nM)>
 6400

> <IC50 (nM)>


> <Kd (nM)>


> <EC50 (nM)>


> <kon (M-1-s-1)>


> <koff (s-1)>


> <pH>


> <Temp C>


> <Curation/DataSource>
ChEMBL

> <Article DOI>
10.1021/acs.jmedchem.3c00851

> <BindingDB Entry DOI>
10.7270/Q2PK0MM6

> <PMID>
37902300

> <PubChem AID>


> <Patent Number>


> <Authors>
n/a

> <Date of publication>
11/9/2023

> <Date in BindingDB>
12/20/2024

> <Institution>
n/a

> <Link to Ligand in BindingDB>
http://www.bindingdb.org/bind/chemsearch/marvin/MolStructure.jsp?monomerid=65454

> <Link to Ligand-Target Pair in BindingDB>
http://www.bindingdb.org/jsp/dbsearch/PrimarySearch_ki.jsp?energyterm=kJ/mole&tag=pol&polymerid=50007050&target=Protein+cereblon&column=ki&startPg=0&Increment=50&submit=Search

> <Link to Ligand-Target Pair in BindingDB>
http://www.bindingdb.org/jsp/dbsearch/PrimarySearch_ki.jsp?energyterm=kJ/mole&tag=r21&monomerid=65454&enzyme=Protein+cereblon&column=ki&startPg=0&Increment=50&submit=Search

> <Ligand HET ID in PDB>
LVY    

> <PDB ID(s) for Ligand-Target Complex>
8RQA,4CI2,5FQD,4V30,4TZ4

> <PubChem CID of Ligand>
216326

> <PubChem SID of Ligand>
350083085

> <ChEBI ID of Ligand>


> <ChEMBL ID of Ligand>


> <DrugBank ID of Ligand>
DB00480

> <IUPHAR_GRAC ID of Ligand>


> <KEGG ID of Ligand>


> <ZINC ID of Ligand>
ZINC02508407

> <Number of Protein Chains in Target (bigger than 1 implies a multichain complex)>
1

> <BindingDB Target Chain Sequence>
MAGEGDQQDAAHNMGNHLPLLPAESEEEDEMEVEDQDSKEAKKPNIINFDTSLPTSHTYLGADMEEFHGRTLHDDDSCQVIPVLPQVMMILIPGQTLPLQLFHPQEVSMVRNLIQKDRTFAVLAYSNVQEREAQFGTTAEIYAYREEQDFGIEIVKVKAIGRQRFKVLELRTQSDGIQQAKVQILPECVLPSTMSAVQLESLNKCQIFPSKPVSREDQCSYKWWQKYQKRKFHCANLTSWPRWLYSLYDAETLMDRIKKQLREWDENLKDDSLPSNPIDFSYRVAACLPIDDVLRIQLLKIGSAIQRLRCELDIMNKCTSLCCKQCQETEITTKNEIFSLSLCGPMAAYVNPHGYVHETLTVYKACNLNLIGRPSTEHSWFPGYAWTVAQCKICASHIGWKFTATKKDMSPQKFWGLTRSALLPTIPDTEDEISPDKVILCL

> <PDB ID(s) of Target Chain>
8TNR,8TNQ,8TNP,8D81,8D80,8D7Z,8D7Y,8D7X,8D7W,8D7V,8D7U,8CVP,9DQD,8UH6,6BOY,6BNB,6BN9,6BN8,6BN7,6XK9,6UML,5V3O,5HXB,7U8F,8OJH,8OIZ,7LPS,4TZ4,9DJX,9DJT,8U17,8U16,8U15,8TZX,8DEY,9CUO,4M91

> <UniProt (SwissProt) Recommended Name of Target Chain>
Protein cereblon

> <UniProt (SwissProt) Entry Name of Target Chain>
CRBN_HUMAN

> <UniProt (SwissProt) Primary ID of Target Chain>
Q96SW2

> <UniProt (SwissProt) Secondary ID(s) of Target Chain>
B2R6H4 C9IZA9 C9JAH6 Q6AI62 Q6NVZ0 Q9UHW4

> <UniProt (SwissProt) Alternative ID(s) of Target Chain>


> <UniProt (TrEMBL) Submitted Name of Target Chain>


> <UniProt (TrEMBL) Entry Name of Target Chain>


> <UniProt (TrEMBL) Primary ID of Target Chain>


> <UniProt (TrEMBL) Secondary ID(s) of Target Chain>


> <UniProt (TrEMBL) Alternative ID(s) of Target Chain>


$$$$
 
     RDKit          2D

 19 20  0  0  0  0  0  0  0  0999 V2000
   -1.7852    0.2074    0.0000 C   0  0  0  0  0  0  0  0  0  0  0  0
   -2.4998   -0.2048    0.0000 C   0  0  0  0  0  0  0  0  0  0  0  0
   -2.4998   -1.0333    0.0000 C   0  0  0  0  0  0  0  0  0  0  0  0
   -1.7834   -1.4414    0.0000 C   0  0  0  0  0  0  0  0  0  0  0  0
   -1.0733   -1.0296    0.0000 C   0  0  0  0  0  0  0  0  0  0  0  0
   -1.0733   -0.2044    0.0000 C   0  0  0  0  0  0  0  0  0  0  0  0
   -0.3587    0.2081    0.0000 C   0  0  0  0  0  0  0  0  0  0  0  0
   -0.3587    1.0333    0.0000 O   0  0  0  0  0  0  0  0  0  0  0  0
    0.3558   -0.2044    0.0000 N   0  0  0  0  0  0  0  0  0  0  0  0
    1.0705    0.2081    0.0000 C   0  0  0  0  0  0  0  0  0  0  0  0
    1.0705    1.0333    0.0000 C   0  0  0  0  0  0  0  0  0  0  0  0
    1.7851    1.4459    0.0000 C   0  0  0  0  0  0  0  0  0  0  0  0
    2.4998    1.0333    0.0000 C   0  0  0  0  0  0  0  0  0  0  0  0
    2.4998    0.2081    0.0000 N   0  0  0  0  0  0  0  0  0  0  0  0
    1.7852   -0.2044    0.0000 C   0  0  0  0  0  0  0  0  0  0  0  0
    1.7852   -1.0296    0.0000 O   0  0  0  0  0  0  0  0  0  0  0  0
    3.2144    1.4459    0.0000 O   0  0  0  0  0  0  0  0  0  0  0  0
   -0.3587   -1.4422    0.0000 O   0  0  0  0  0  0  0  0  0  0  0  0
   -3.2144   -1.4459    0.0000 N   0  0  0  0  0  0  0  0  0  0  0  0
  1  2  2  0
  2  3  1  0
  4  3  2  0
  5  4  1  0
  6  5  2  0
  1  6  1  0
  6  7  1  0
  7  8  2  0
  7  9  1  0
  9 10  1  0
 10 11  1  0
 11 12  1  0
 12 13  1  0
 13 14  1  0
 14 15  1  0
 10 15  1  0
 15 16  2  0
 13 17  2  0
  5 18  1  0
  3 19  1  0
M  END
> <From>
www.bindingDB.org

> <BindingDB Reactant_set_id>
51567946

> <Ligand InChI>
InChI=1S/C12H13N3O4/c13-6-1-2-7(9(16)5-6)11(18)14-8-3-4-10(17)15-12(8)19/h1-2,5,8,16H,3-4,13H2,(H,14,18)(H,15,17,19)

> <Ligand InChI Key>
IPUAAMOPTISHEC-UHFFFAOYSA-N

> <BindingDB MonomerID>
50630600

> <BindingDB Ligand Name>
CHEMBL5441135

> <Target Name>
Protein cereblon

> <Target Source Organism According to Curator or DataSource>
Homo sapiens

> <Ki (nM)>
 6800

> <IC50 (nM)>


> <Kd (nM)>


> <EC50 (nM)>


> <kon (M-1-s-1)>


> <koff (s-1)>


> <pH>


> <Temp C>


> <Curation/DataSource>
ChEMBL

> <Article DOI>
10.1021/acs.jmedchem.3c00851

> <BindingDB Entry DOI>
10.7270/Q2PK0MM6

> <PMID>
37902300

> <PubChem AID>


> <Patent Number>


> <Authors>
Steinebach, C; Bricelj, A; Murgai, A; Sosič, I; Bischof, L; Ng, YLD; Heim, C; Maiwald, S; Proj, M; Voget, R; Feller, F; Košmrlj, J; Sapozhnikova, V; Schmidt, A; Zuleeg, MR; Lemnitzer, P; Mertins, P; Hansen, FK; Gütschow, M; Krönke, J; Hartmann, MD

> <Date of publication>
11/9/2023

> <Date in BindingDB>
12/20/2024

> <Institution>
University of Bonn

> <Link to Ligand in BindingDB>
http://www.bindingdb.org/bind/chemsearch/marvin/MolStructure.jsp?monomerid=50630600

> <Link to Ligand-Target Pair in BindingDB>
http://www.bindingdb.org/jsp/dbsearch/PrimarySearch_ki.jsp?energyterm=kJ/mole&tag=pol&polymerid=50007050&target=Protein+cereblon&column=ki&startPg=0&Increment=50&submit=Search

> <Link to Ligand-Target Pair in BindingDB>
http://www.bindingdb.org/jsp/dbsearch/PrimarySearch_ki.jsp?energyterm=kJ/mole&tag=r21&monomerid=50630600&enzyme=Protein+cereblon&column=ki&startPg=0&Increment=50&submit=Search

> <Ligand HET ID in PDB>
W1B    

> <PDB ID(s) for Ligand-Target Complex>
8OU9

> <PubChem CID of Ligand>
170703965

> <PubChem SID of Ligand>
505048571

> <ChEBI ID of Ligand>


> <ChEMBL ID of Ligand>


> <DrugBank ID of Ligand>


> <IUPHAR_GRAC ID of Ligand>


> <KEGG ID of Ligand>


> <ZINC ID of Ligand>


> <Number of Protein Chains in Target (bigger than 1 implies a multichain complex)>
1

> <BindingDB Target Chain Sequence>
MAGEGDQQDAAHNMGNHLPLLPAESEEEDEMEVEDQDSKEAKKPNIINFDTSLPTSHTYLGADMEEFHGRTLHDDDSCQVIPVLPQVMMILIPGQTLPLQLFHPQEVSMVRNLIQKDRTFAVLAYSNVQEREAQFGTTAEIYAYREEQDFGIEIVKVKAIGRQRFKVLELRTQSDGIQQAKVQILPECVLPSTMSAVQLESLNKCQIFPSKPVSREDQCSYKWWQKYQKRKFHCANLTSWPRWLYSLYDAETLMDRIKKQLREWDENLKDDSLPSNPIDFSYRVAACLPIDDVLRIQLLKIGSAIQRLRCELDIMNKCTSLCCKQCQETEITTKNEIFSLSLCGPMAAYVNPHGYVHETLTVYKACNLNLIGRPSTEHSWFPGYAWTVAQCKICASHIGWKFTATKKDMSPQKFWGLTRSALLPTIPDTEDEISPDKVILCL

> <PDB ID(s) of Target Chain>
8TNR,8TNQ,8TNP,8D81,8D80,8D7Z,8D7Y,8D7X,8D7W,8D7V,8D7U,8CVP,9DQD,8UH6,6BOY,6BNB,6BN9,6BN8,6BN7,6XK9,6UML,5V3O,5HXB,7U8F,8OJH,8OIZ,7LPS,4TZ4,9DJX,9DJT,8U17,8U16,8U15,8TZX,8DEY,9CUO,4M91

> <UniProt (SwissProt) Recommended Name of Target Chain>
Protein cereblon

> <UniProt (SwissProt) Entry Name of Target Chain>
CRBN_HUMAN

> <UniProt (SwissProt) Primary ID of Target Chain>
Q96SW2

> <UniProt (SwissProt) Secondary ID(s) of Target Chain>
B2R6H4 C9IZA9 C9JAH6 Q6AI62 Q6NVZ0 Q9UHW4

> <UniProt (SwissProt) Alternative ID(s) of Target Chain>


> <UniProt (TrEMBL) Submitted Name of Target Chain>


> <UniProt (TrEMBL) Entry Name of Target Chain>


> <UniProt (TrEMBL) Primary ID of Target Chain>


> <UniProt (TrEMBL) Secondary ID(s) of Target Chain>


> <UniProt (TrEMBL) Alternative ID(s) of Target Chain>


$$$$
 
     RDKit          2D

 19 20  0  0  0  0  0  0  0  0999 V2000
   -2.5005    0.4128    0.0000 C   0  0  0  0  0  0  0  0  0  0  0  0
   -1.7861    0.8253    0.0000 C   0  0  0  0  0  0  0  0  0  0  0  0
   -1.0715    0.4128    0.0000 C   0  0  0  0  0  0  0  0  0  0  0  0
   -1.0715   -0.4122    0.0000 C   0  0  0  0  0  0  0  0  0  0  0  0
   -1.7861   -0.8247    0.0000 N   0  0  0  0  0  0  0  0  0  0  0  0
   -2.5005   -0.4122    0.0000 C   0  0  0  0  0  0  0  0  0  0  0  0
   -3.2148   -0.8246    0.0000 O   0  0  0  0  0  0  0  0  0  0  0  0
   -0.3573   -0.8246    0.0000 O   0  0  0  0  0  0  0  0  0  0  0  0
   -0.3573    0.8251    0.0000 C   0  0  0  0  0  0  0  0  0  0  0  0
    0.3569    0.4128    0.0000 S   0  0  0  0  0  0  0  0  0  0  0  0
    1.0712    0.8251    0.0000 C   0  0  0  0  0  0  0  0  0  0  0  0
    1.7886    0.4110    0.0000 C   0  0  0  0  0  0  0  0  0  0  0  0
   -0.0561   -0.3028    0.0000 O   0  0  0  0  0  0  0  0  0  0  0  0
    0.7686   -0.3028    0.0000 O   0  0  0  0  0  0  0  0  0  0  0  0
    2.5031    0.8232    0.0000 C   0  0  0  0  0  0  0  0  0  0  0  0
    3.2148    0.4114    0.0000 C   0  0  0  0  0  0  0  0  0  0  0  0
    3.2148   -0.4136    0.0000 C   0  0  0  0  0  0  0  0  0  0  0  0
    2.5048   -0.8253    0.0000 C   0  0  0  0  0  0  0  0  0  0  0  0
    1.7886   -0.4173    0.0000 C   0  0  0  0  0  0  0  0  0  0  0  0
  1  2  1  0
  3  2  1  0
  4  3  1  0
  5  4  1  0
  6  5  1  0
  1  6  1  0
  6  7  2  0
  4  8  2  0
  3  9  1  0
  9 10  1  0
 10 11  1  0
 11 12  1  0
 10 13  2  0
 10 14  2  0
 15 12  2  0
 16 15  1  0
 17 16  2  0
 18 17  1  0
 19 18  2  0
 12 19  1  0
M  END
> <From>
www.bindingDB.org

> <BindingDB Reactant_set_id>
51553753

> <Ligand InChI>
InChI=1S/C13H15NO4S/c15-12-7-6-11(13(16)14-12)9-19(17,18)8-10-4-2-1-3-5-10/h1-5,11H,6-9H2,(H,14,15,16)

> <Ligand InChI Key>
YSJXSITYLPIBLC-UHFFFAOYSA-N

> <BindingDB MonomerID>
50625145

> <BindingDB Ligand Name>
CHEMBL5404837

> <Target Name>
Protein cereblon

> <Target Source Organism According to Curator or DataSource>
Homo sapiens

> <Ki (nM)>
 7000

> <IC50 (nM)>


> <Kd (nM)>


> <EC50 (nM)>


> <kon (M-1-s-1)>


> <koff (s-1)>


> <pH>


> <Temp C>


> <Curation/DataSource>
ChEMBL

> <Article DOI>
10.1016/j.ejmech.2022.114990

> <BindingDB Entry DOI>
10.7270/Q2F1944V

> <PMID>
36476642

> <PubChem AID>


> <Patent Number>


> <Authors>
n/a

> <Date of publication>
1/15/2023

> <Date in BindingDB>
12/18/2024

> <Institution>
n/a

> <Link to Ligand in BindingDB>
http://www.bindingdb.org/bind/chemsearch/marvin/MolStructure.jsp?monomerid=50625145

> <Link to Ligand-Target Pair in BindingDB>
http://www.bindingdb.org/jsp/dbsearch/PrimarySearch_ki.jsp?energyterm=kJ/mole&tag=pol&polymerid=50007050&target=Protein+cereblon&column=ki&startPg=0&Increment=50&submit=Search

> <Link to Ligand-Target Pair in BindingDB>
http://www.bindingdb.org/jsp/dbsearch/PrimarySearch_ki.jsp?energyterm=kJ/mole&tag=r21&monomerid=50625145&enzyme=Protein+cereblon&column=ki&startPg=0&Increment=50&submit=Search

> <Ligand HET ID in PDB>


> <PDB ID(s) for Ligand-Target Complex>


> <PubChem CID>


> <PubChem SID>


> <ChEBI ID of Ligand>


> <ChEMBL ID of Ligand>


> <DrugBank ID of Ligand>


> <IUPHAR_GRAC ID of Ligand>


> <KEGG ID of Ligand>


> <ZINC ID of Ligand>


> <Number of Protein Chains in Target (bigger than 1 implies a multichain complex)>
1

> <BindingDB Target Chain Sequence>
MAGEGDQQDAAHNMGNHLPLLPAESEEEDEMEVEDQDSKEAKKPNIINFDTSLPTSHTYLGADMEEFHGRTLHDDDSCQVIPVLPQVMMILIPGQTLPLQLFHPQEVSMVRNLIQKDRTFAVLAYSNVQEREAQFGTTAEIYAYREEQDFGIEIVKVKAIGRQRFKVLELRTQSDGIQQAKVQILPECVLPSTMSAVQLESLNKCQIFPSKPVSREDQCSYKWWQKYQKRKFHCANLTSWPRWLYSLYDAETLMDRIKKQLREWDENLKDDSLPSNPIDFSYRVAACLPIDDVLRIQLLKIGSAIQRLRCELDIMNKCTSLCCKQCQETEITTKNEIFSLSLCGPMAAYVNPHGYVHETLTVYKACNLNLIGRPSTEHSWFPGYAWTVAQCKICASHIGWKFTATKKDMSPQKFWGLTRSALLPTIPDTEDEISPDKVILCL

> <PDB ID(s) of Target Chain>
8TNR,8TNQ,8TNP,8D81,8D80,8D7Z,8D7Y,8D7X,8D7W,8D7V,8D7U,8CVP,9DQD,8UH6,6BOY,6BNB,6BN9,6BN8,6BN7,6XK9,6UML,5V3O,5HXB,7U8F,8OJH,8OIZ,7LPS,4TZ4,9DJX,9DJT,8U17,8U16,8U15,8TZX,8DEY,9CUO,4M91

> <UniProt (SwissProt) Recommended Name of Target Chain>
Protein cereblon

> <UniProt (SwissProt) Entry Name of Target Chain>
CRBN_HUMAN

> <UniProt (SwissProt) Primary ID of Target Chain>
Q96SW2

> <UniProt (SwissProt) Secondary ID(s) of Target Chain>
B2R6H4 C9IZA9 C9JAH6 Q6AI62 Q6NVZ0 Q9UHW4

> <UniProt (SwissProt) Alternative ID(s) of Target Chain>


> <UniProt (TrEMBL) Submitted Name of Target Chain>


> <UniProt (TrEMBL) Entry Name of Target Chain>


> <UniProt (TrEMBL) Primary ID of Target Chain>


> <UniProt (TrEMBL) Secondary ID(s) of Target Chain>


> <UniProt (TrEMBL) Alternative ID(s) of Target Chain>


$$$$
 
     RDKit          2D

 16 17  0  0  0  0  0  0  0  0999 V2000
   -2.1430   -0.2050    0.0000 C   0  0  0  0  0  0  0  0  0  0  0  0
   -1.4286    0.2074    0.0000 C   0  0  0  0  0  0  0  0  0  0  0  0
   -0.7142   -0.2050    0.0000 C   0  0  0  0  0  0  0  0  0  0  0  0
   -0.7142   -1.0300    0.0000 C   0  0  0  0  0  0  0  0  0  0  0  0
   -1.4286   -1.4426    0.0000 N   0  0  0  0  0  0  0  0  0  0  0  0
   -2.1430   -1.0300    0.0000 C   0  0  0  0  0  0  0  0  0  0  0  0
   -2.8573   -1.4424    0.0000 O   0  0  0  0  0  0  0  0  0  0  0  0
    0.0001   -1.4424    0.0000 O   0  0  0  0  0  0  0  0  0  0  0  0
    0.0001    0.2073    0.0000 C   0  0  0  0  0  0  0  0  0  0  0  0
    0.7143   -0.2050    0.0000 S   0  0  0  0  0  0  0  0  0  0  0  0
    1.4285    0.2073    0.0000 C   0  0  0  0  0  0  0  0  0  0  0  0
    1.4288    1.0321    0.0000 C   0  0  0  0  0  0  0  0  0  0  0  0
    2.1413    1.4426    0.0000 C   0  0  0  0  0  0  0  0  0  0  0  0
    2.8557    1.0301    0.0000 C   0  0  0  0  0  0  0  0  0  0  0  0
    2.8573    0.2094    0.0000 C   0  0  0  0  0  0  0  0  0  0  0  0
    2.1459   -0.2067    0.0000 C   0  0  0  0  0  0  0  0  0  0  0  0
  1  2  1  0
  3  2  1  0
  4  3  1  0
  5  4  1  0
  1  6  1  0
  6  5  1  0
  6  7  2  0
  4  8  2  0
  3  9  1  0
  9 10  1  0
 10 11  1  0
 12 11  2  0
 13 12  1  0
 14 13  2  0
 15 14  1  0
 16 15  2  0
 11 16  1  0
M  END
> <From>
www.bindingDB.org

> <BindingDB Reactant_set_id>
51553726

> <Ligand InChI>
InChI=1S/C12H13NO2S/c14-11-7-6-9(12(15)13-11)8-16-10-4-2-1-3-5-10/h1-5,9H,6-8H2,(H,13,14,15)

> <Ligand InChI Key>
UGQNTSHUUBOKQL-UHFFFAOYSA-N

> <BindingDB MonomerID>
50625119

> <BindingDB Ligand Name>
CHEMBL5428083

> <Target Name>
Protein cereblon

> <Target Source Organism According to Curator or DataSource>
Homo sapiens

> <Ki (nM)>
 7100

> <IC50 (nM)>


> <Kd (nM)>


> <EC50 (nM)>


> <kon (M-1-s-1)>


> <koff (s-1)>


> <pH>


> <Temp C>


> <Curation/DataSource>
ChEMBL

> <Article DOI>
10.1016/j.ejmech.2022.114990

> <BindingDB Entry DOI>
10.7270/Q2F1944V

> <PMID>
36476642

> <PubChem AID>


> <Patent Number>


> <Authors>
n/a

> <Date of publication>
1/15/2023

> <Date in BindingDB>
12/18/2024

> <Institution>
n/a

> <Link to Ligand in BindingDB>
http://www.bindingdb.org/bind/chemsearch/marvin/MolStructure.jsp?monomerid=50625119

> <Link to Ligand-Target Pair in BindingDB>
http://www.bindingdb.org/jsp/dbsearch/PrimarySearch_ki.jsp?energyterm=kJ/mole&tag=pol&polymerid=50007050&target=Protein+cereblon&column=ki&startPg=0&Increment=50&submit=Search

> <Link to Ligand-Target Pair in BindingDB>
http://www.bindingdb.org/jsp/dbsearch/PrimarySearch_ki.jsp?energyterm=kJ/mole&tag=r21&monomerid=50625119&enzyme=Protein+cereblon&column=ki&startPg=0&Increment=50&submit=Search

> <Ligand HET ID in PDB>


> <PDB ID(s) for Ligand-Target Complex>


> <PubChem CID>


> <PubChem SID>


> <ChEBI ID of Ligand>


> <ChEMBL ID of Ligand>


> <DrugBank ID of Ligand>


> <IUPHAR_GRAC ID of Ligand>


> <KEGG ID of Ligand>


> <ZINC ID of Ligand>


> <Number of Protein Chains in Target (bigger than 1 implies a multichain complex)>
1

> <BindingDB Target Chain Sequence>
MAGEGDQQDAAHNMGNHLPLLPAESEEEDEMEVEDQDSKEAKKPNIINFDTSLPTSHTYLGADMEEFHGRTLHDDDSCQVIPVLPQVMMILIPGQTLPLQLFHPQEVSMVRNLIQKDRTFAVLAYSNVQEREAQFGTTAEIYAYREEQDFGIEIVKVKAIGRQRFKVLELRTQSDGIQQAKVQILPECVLPSTMSAVQLESLNKCQIFPSKPVSREDQCSYKWWQKYQKRKFHCANLTSWPRWLYSLYDAETLMDRIKKQLREWDENLKDDSLPSNPIDFSYRVAACLPIDDVLRIQLLKIGSAIQRLRCELDIMNKCTSLCCKQCQETEITTKNEIFSLSLCGPMAAYVNPHGYVHETLTVYKACNLNLIGRPSTEHSWFPGYAWTVAQCKICASHIGWKFTATKKDMSPQKFWGLTRSALLPTIPDTEDEISPDKVILCL

> <PDB ID(s) of Target Chain>
8TNR,8TNQ,8TNP,8D81,8D80,8D7Z,8D7Y,8D7X,8D7W,8D7V,8D7U,8CVP,9DQD,8UH6,6BOY,6BNB,6BN9,6BN8,6BN7,6XK9,6UML,5V3O,5HXB,7U8F,8OJH,8OIZ,7LPS,4TZ4,9DJX,9DJT,8U17,8U16,8U15,8TZX,8DEY,9CUO,4M91

> <UniProt (SwissProt) Recommended Name of Target Chain>
Protein cereblon

> <UniProt (SwissProt) Entry Name of Target Chain>
CRBN_HUMAN

> <UniProt (SwissProt) Primary ID of Target Chain>
Q96SW2

> <UniProt (SwissProt) Secondary ID(s) of Target Chain>
B2R6H4 C9IZA9 C9JAH6 Q6AI62 Q6NVZ0 Q9UHW4

> <UniProt (SwissProt) Alternative ID(s) of Target Chain>


> <UniProt (TrEMBL) Submitted Name of Target Chain>


> <UniProt (TrEMBL) Entry Name of Target Chain>


> <UniProt (TrEMBL) Primary ID of Target Chain>


> <UniProt (TrEMBL) Secondary ID(s) of Target Chain>


> <UniProt (TrEMBL) Alternative ID(s) of Target Chain>


$$$$
 
     RDKit          2D

 17 18  0  0  0  0  0  0  0  0999 V2000
   -2.4992   -0.2050    0.0000 C   0  0  0  0  0  0  0  0  0  0  0  0
   -1.7848    0.2074    0.0000 C   0  0  0  0  0  0  0  0  0  0  0  0
   -1.0704   -0.2050    0.0000 C   0  0  0  0  0  0  0  0  0  0  0  0
   -1.0704   -1.0300    0.0000 C   0  0  0  0  0  0  0  0  0  0  0  0
   -1.7848   -1.4424    0.0000 N   0  0  0  0  0  0  0  0  0  0  0  0
   -2.4992   -1.0300    0.0000 C   0  0  0  0  0  0  0  0  0  0  0  0
   -3.2134   -1.4423    0.0000 O   0  0  0  0  0  0  0  0  0  0  0  0
   -0.3562   -1.4423    0.0000 O   0  0  0  0  0  0  0  0  0  0  0  0
   -0.3562    0.2073    0.0000 C   0  0  0  0  0  0  0  0  0  0  0  0
    0.3579   -0.2050    0.0000 S   0  0  0  0  0  0  0  0  0  0  0  0
    1.0721    0.2073    0.0000 C   0  0  0  0  0  0  0  0  0  0  0  0
    1.0724    1.0320    0.0000 C   0  0  0  0  0  0  0  0  0  0  0  0
    1.7848    1.4424    0.0000 C   0  0  0  0  0  0  0  0  0  0  0  0
    2.4992    1.0300    0.0000 C   0  0  0  0  0  0  0  0  0  0  0  0
    2.5008    0.2094    0.0000 C   0  0  0  0  0  0  0  0  0  0  0  0
    1.7894   -0.2068    0.0000 C   0  0  0  0  0  0  0  0  0  0  0  0
    3.2134    1.4423    0.0000 N   0  0  0  0  0  0  0  0  0  0  0  0
  1  2  1  0
  3  2  1  0
  4  3  1  0
  5  4  1  0
  1  6  1  0
  6  5  1  0
  6  7  2  0
  4  8  2  0
  3  9  1  0
  9 10  1  0
 10 11  1  0
 12 11  2  0
 13 12  1  0
 14 13  2  0
 15 14  1  0
 16 15  2  0
 11 16  1  0
 14 17  1  0
M  END
> <From>
www.bindingDB.org

> <BindingDB Reactant_set_id>
51553744

> <Ligand InChI>
InChI=1S/C12H14N2O2S/c13-9-2-4-10(5-3-9)17-7-8-1-6-11(15)14-12(8)16/h2-5,8H,1,6-7,13H2,(H,14,15,16)

> <Ligand InChI Key>
DRRNCOUWDHEAEU-UHFFFAOYSA-N

> <BindingDB MonomerID>
50625137

> <BindingDB Ligand Name>
CHEMBL5411137

> <Target Name>
Protein cereblon

> <Target Source Organism According to Curator or DataSource>
Homo sapiens

> <Ki (nM)>
 7100

> <IC50 (nM)>


> <Kd (nM)>


> <EC50 (nM)>


> <kon (M-1-s-1)>


> <koff (s-1)>


> <pH>


> <Temp C>


> <Curation/DataSource>
ChEMBL

> <Article DOI>
10.1016/j.ejmech.2022.114990

> <BindingDB Entry DOI>
10.7270/Q2F1944V

> <PMID>
36476642

> <PubChem AID>


> <Patent Number>


> <Authors>
n/a

> <Date of publication>
1/15/2023

> <Date in BindingDB>
12/18/2024

> <Institution>
n/a

> <Link to Ligand in BindingDB>
http://www.bindingdb.org/bind/chemsearch/marvin/MolStructure.jsp?monomerid=50625137

> <Link to Ligand-Target Pair in BindingDB>
http://www.bindingdb.org/jsp/dbsearch/PrimarySearch_ki.jsp?energyterm=kJ/mole&tag=pol&polymerid=50007050&target=Protein+cereblon&column=ki&startPg=0&Increment=50&submit=Search

> <Link to Ligand-Target Pair in BindingDB>
http://www.bindingdb.org/jsp/dbsearch/PrimarySearch_ki.jsp?energyterm=kJ/mole&tag=r21&monomerid=50625137&enzyme=Protein+cereblon&column=ki&startPg=0&Increment=50&submit=Search

> <Ligand HET ID in PDB>


> <PDB ID(s) for Ligand-Target Complex>


> <PubChem CID>


> <PubChem SID>


> <ChEBI ID of Ligand>


> <ChEMBL ID of Ligand>


> <DrugBank ID of Ligand>


> <IUPHAR_GRAC ID of Ligand>


> <KEGG ID of Ligand>


> <ZINC ID of Ligand>


> <Number of Protein Chains in Target (bigger than 1 implies a multichain complex)>
1

> <BindingDB Target Chain Sequence>
MAGEGDQQDAAHNMGNHLPLLPAESEEEDEMEVEDQDSKEAKKPNIINFDTSLPTSHTYLGADMEEFHGRTLHDDDSCQVIPVLPQVMMILIPGQTLPLQLFHPQEVSMVRNLIQKDRTFAVLAYSNVQEREAQFGTTAEIYAYREEQDFGIEIVKVKAIGRQRFKVLELRTQSDGIQQAKVQILPECVLPSTMSAVQLESLNKCQIFPSKPVSREDQCSYKWWQKYQKRKFHCANLTSWPRWLYSLYDAETLMDRIKKQLREWDENLKDDSLPSNPIDFSYRVAACLPIDDVLRIQLLKIGSAIQRLRCELDIMNKCTSLCCKQCQETEITTKNEIFSLSLCGPMAAYVNPHGYVHETLTVYKACNLNLIGRPSTEHSWFPGYAWTVAQCKICASHIGWKFTATKKDMSPQKFWGLTRSALLPTIPDTEDEISPDKVILCL

> <PDB ID(s) of Target Chain>
8TNR,8TNQ,8TNP,8D81,8D80,8D7Z,8D7Y,8D7X,8D7W,8D7V,8D7U,8CVP,9DQD,8UH6,6BOY,6BNB,6BN9,6BN8,6BN7,6XK9,6UML,5V3O,5HXB,7U8F,8OJH,8OIZ,7LPS,4TZ4,9DJX,9DJT,8U17,8U16,8U15,8TZX,8DEY,9CUO,4M91

> <UniProt (SwissProt) Recommended Name of Target Chain>
Protein cereblon

> <UniProt (SwissProt) Entry Name of Target Chain>
CRBN_HUMAN

> <UniProt (SwissProt) Primary ID of Target Chain>
Q96SW2

> <UniProt (SwissProt) Secondary ID(s) of Target Chain>
B2R6H4 C9IZA9 C9JAH6 Q6AI62 Q6NVZ0 Q9UHW4

> <UniProt (SwissProt) Alternative ID(s) of Target Chain>


> <UniProt (TrEMBL) Submitted Name of Target Chain>


> <UniProt (TrEMBL) Entry Name of Target Chain>


> <UniProt (TrEMBL) Primary ID of Target Chain>


> <UniProt (TrEMBL) Secondary ID(s) of Target Chain>


> <UniProt (TrEMBL) Alternative ID(s) of Target Chain>


$$$$

     RDKit          2D

 20 22  0  0  0  0  0  0  0  0999 V2000
   -2.6168    4.5577    0.0000 C   0  0  0  0  0  0  0  0  0  0  0  0
   -1.6131    3.4430    0.0000 O   0  0  0  0  0  0  0  0  0  0  0  0
   -0.1459    3.7548    0.0000 C   0  0  0  0  0  0  0  0  0  0  0  0
    0.3177    5.1814    0.0000 C   0  0  0  0  0  0  0  0  0  0  0  0
    1.7849    5.4933    0.0000 C   0  0  0  0  0  0  0  0  0  0  0  0
    2.7886    4.3786    0.0000 C   0  0  0  0  0  0  0  0  0  0  0  0
    2.3250    2.9520    0.0000 C   0  0  0  0  0  0  0  0  0  0  0  0
    0.8578    2.6401    0.0000 C   0  0  0  0  0  0  0  0  0  0  0  0
    0.3943    1.2135    0.0000 C   0  0  0  0  0  0  0  0  0  0  0  0
    1.2760    0.0000    0.0000 N   0  0  0  0  0  0  0  0  0  0  0  0
    0.3943   -1.2135    0.0000 O   0  0  0  0  0  0  0  0  0  0  0  0
   -1.0323   -0.7500    0.0000 C   0  0  0  0  0  0  0  0  0  0  0  0
   -2.4026   -0.1399    0.0000 C   0  0  0  0  0  0  0  0  0  0  0  0
   -3.6161   -1.0216    0.0000 C   0  0  0  0  0  0  0  0  0  0  0  0
   -3.4593   -2.5134    0.0000 C   0  0  0  0  0  0  0  0  0  0  0  0
   -4.6729   -3.3950    0.0000 O   0  0  0  0  0  0  0  0  0  0  0  0
   -2.0890   -3.1235    0.0000 N   0  0  0  0  0  0  0  0  0  0  0  0
   -0.8755   -2.2418    0.0000 C   0  0  0  0  0  0  0  0  0  0  0  0
    0.4948   -2.8519    0.0000 O   0  0  0  0  0  0  0  0  0  0  0  0
   -1.0323    0.7500    0.0000 C   0  0  0  0  0  0  0  0  0  0  0  0
  1  2  1  0
  2  3  1  0
  3  4  2  0
  4  5  1  0
  5  6  2  0
  6  7  1  0
  7  8  2  0
  8  9  1  0
  9 10  2  0
 10 11  1  0
 11 12  1  0
 12 13  1  0
 13 14  1  0
 14 15  1  0
 15 16  2  0
 15 17  1  0
 17 18  1  0
 18 19  2  0
 12 20  1  0
  8  3  1  0
 20  9  1  0
 18 12  1  0
M  END
> <From>
www.bindingDB.org

> <BindingDB Reactant_set_id>
51588688

> <Ligand InChI>
InChI=1S/C14H14N2O4/c1-19-11-5-3-2-4-9(11)10-8-14(20-16-10)7-6-12(17)15-13(14)18/h2-5H,6-8H2,1H3,(H,15,17,18)

> <Ligand InChI Key>
VINFHGWFKCWIPO-UHFFFAOYSA-N

> <BindingDB MonomerID>
50639645

> <BindingDB Ligand Name>
CHEMBL5563976

> <Target Name>
Protein cereblon

> <Target Source Organism According to Curator or DataSource>
Human

> <Ki (nM)>
 7100

> <IC50 (nM)>


> <Kd (nM)>


> <EC50 (nM)>


> <kon (M-1-s-1)>


> <koff (s-1)>


> <pH>


> <Temp C>


> <Curation/DataSource>
ChEMBL

> <Article DOI>


> <BindingDB Entry DOI>
10.7270/Q2PC3713

> <PMID>
38552426

> <PubChem AID>


> <Patent Number>


> <Authors>
Shevalev, R; Bischof, L; Sapegin, A; Bunev, A; Olga, G; Kantin, G; Kalinin, S; Hartmann, MD

> <Date of publication>
//0

> <Date in BindingDB>
10/11/2025

> <Institution>
Saint Petersburg State University

> <Link to Ligand in BindingDB>
http://www.bindingdb.org/bind/chemsearch/marvin/MolStructure.jsp?monomerid=50639645

> <Link to Ligand-Target Pair in BindingDB>
http://www.bindingdb.org/rwd/jsp/dbsearch/PrimarySearch_ki.jsp?energyterm=kJ/mole&tag=pol&polymerid=50007050&target=Protein+cereblon&column=ki&startPg=0&Increment=50&submit=Search

> <Link to Ligand-Target Pair in BindingDB>
http://www.bindingdb.org/rwd/jsp/dbsearch/PrimarySearch_ki.jsp?energyterm=kJ/mole&tag=r21&monomerid=50639645&enzyme=Protein+cereblon&column=ki&startPg=0&Increment=50&submit=Search

> <Ligand HET ID in PDB>


> <PDB ID(s) for Ligand-Target Complex>


> <PubChem CID of Ligand>
177376705

> <PubChem SID of Ligand>
519660048

> <ChEBI ID of Ligand>


> <ChEMBL ID of Ligand>


> <DrugBank ID of Ligand>


> <IUPHAR_GRAC ID of Ligand>


> <KEGG ID of Ligand>


> <ZINC ID of Ligand>


> <Number of Protein Chains in Target (bigger than 1 implies a multichain complex)>
1

> <BindingDB Target Chain Sequence>
MAGEGDQQDAAHNMGNHLPLLPAESEEEDEMEVEDQDSKEAKKPNIINFDTSLPTSHTYLGADMEEFHGRTLHDDDSCQVIPVLPQVMMILIPGQTLPLQLFHPQEVSMVRNLIQKDRTFAVLAYSNVQEREAQFGTTAEIYAYREEQDFGIEIVKVKAIGRQRFKVLELRTQSDGIQQAKVQILPECVLPSTMSAVQLESLNKCQIFPSKPVSREDQCSYKWWQKYQKRKFHCANLTSWPRWLYSLYDAETLMDRIKKQLREWDENLKDDSLPSNPIDFSYRVAACLPIDDVLRIQLLKIGSAIQRLRCELDIMNKCTSLCCKQCQETEITTKNEIFSLSLCGPMAAYVNPHGYVHETLTVYKACNLNLIGRPSTEHSWFPGYAWTVAQCKICASHIGWKFTATKKDMSPQKFWGLTRSALLPTIPDTEDEISPDKVILCL

> <PDB ID(s) of Target Chain>
9DUR,8TNR,8TNQ,8TNP,9DWW,9DWV,9NGT,9NFR,9NFQ,8D81,8D80,8D7Z,8D7Y,8D7X,8D7W,8D7V,8D7U,8CVP,9Q2D,9Q03,9DQD,8UH6,9SAI,9SAF,9H59,9E2U,6BOY,6BNB,6BN9,6BN8,6BN7,9OUL,9Y7D,6XK9,6UML,5V3O,5HXB,9HNE,9D0X,9D0W,7U8F,9FJX,8OJH,8OIZ,7LPS,9SFM,9OTY,4TZ4,9DJX,9DJT,8U17,8U16,8U15,8TZX,8DEY,9CUO,4M91

> <UniProt (SwissProt) Recommended Name of Target Chain>
Protein cereblon

> <UniProt (SwissProt) Entry Name of Target Chain>
CRBN_HUMAN

> <UniProt (SwissProt) Primary ID of Target Chain>
Q96SW2

> <UniProt (SwissProt) Secondary ID(s) of Target Chain>
B2R6H4 C9IZA9 C9JAH6 Q6AI62 Q6NVZ0 Q9UHW4

> <UniProt (SwissProt) Alternative ID(s) of Target Chain>


> <UniProt (TrEMBL) Submitted Name of Target Chain>


> <UniProt (TrEMBL) Entry Name of Target Chain>


> <UniProt (TrEMBL) Primary ID of Target Chain>


> <UniProt (TrEMBL) Secondary ID(s) of Target Chain>


> <UniProt (TrEMBL) Alternative ID(s) of Target Chain>


$$$$
 
     RDKit          2D

 16 17  0  0  0  0  0  0  0  0999 V2000
   -2.1431   -0.2050    0.0000 C   0  0  0  0  0  0  0  0  0  0  0  0
   -1.4287    0.2074    0.0000 C   0  0  0  0  0  0  0  0  0  0  0  0
   -0.7142   -0.2050    0.0000 C   0  0  0  0  0  0  0  0  0  0  0  0
   -0.7142   -1.0301    0.0000 C   0  0  0  0  0  0  0  0  0  0  0  0
   -1.4287   -1.4426    0.0000 N   0  0  0  0  0  0  0  0  0  0  0  0
   -2.1431   -1.0301    0.0000 C   0  0  0  0  0  0  0  0  0  0  0  0
   -2.8575   -1.4425    0.0000 O   0  0  0  0  0  0  0  0  0  0  0  0
    0.0001   -1.4425    0.0000 O   0  0  0  0  0  0  0  0  0  0  0  0
    0.0001    0.2072    0.0000 C   0  0  0  0  0  0  0  0  0  0  0  0
    0.7143   -0.2050    0.0000 S   0  0  0  0  0  0  0  0  0  0  0  0
    1.4286    0.2072    0.0000 C   0  0  0  0  0  0  0  0  0  0  0  0
    1.4289    1.0321    0.0000 N   0  0  0  0  0  0  0  0  0  0  0  0
    2.1414    1.4426    0.0000 C   0  0  0  0  0  0  0  0  0  0  0  0
    2.8559    1.0301    0.0000 C   0  0  0  0  0  0  0  0  0  0  0  0
    2.8575    0.2094    0.0000 C   0  0  0  0  0  0  0  0  0  0  0  0
    2.1460   -0.2068    0.0000 N   0  0  0  0  0  0  0  0  0  0  0  0
  1  2  1  0
  3  2  1  0
  4  3  1  0
  5  4  1  0
  1  6  1  0
  6  5  1  0
  6  7  2  0
  4  8  2  0
  3  9  1  0
  9 10  1  0
 10 11  1  0
 12 11  2  0
 13 12  1  0
 14 13  2  0
 15 14  1  0
 16 15  2  0
 11 16  1  0
M  END
> <From>
www.bindingDB.org

> <BindingDB Reactant_set_id>
51553740

> <Ligand InChI>
InChI=1S/C10H11N3O2S/c14-8-3-2-7(9(15)13-8)6-16-10-11-4-1-5-12-10/h1,4-5,7H,2-3,6H2,(H,13,14,15)

> <Ligand InChI Key>
UJLABZCQLAKSNX-UHFFFAOYSA-N

> <BindingDB MonomerID>
50625133

> <BindingDB Ligand Name>
CHEMBL5398118

> <Target Name>
Protein cereblon

> <Target Source Organism According to Curator or DataSource>
Homo sapiens

> <Ki (nM)>
 7300

> <IC50 (nM)>


> <Kd (nM)>


> <EC50 (nM)>


> <kon (M-1-s-1)>


> <koff (s-1)>


> <pH>


> <Temp C>


> <Curation/DataSource>
ChEMBL

> <Article DOI>
10.1016/j.ejmech.2022.114990

> <BindingDB Entry DOI>
10.7270/Q2F1944V

> <PMID>
36476642

> <PubChem AID>


> <Patent Number>


> <Authors>
n/a

> <Date of publication>
1/15/2023

> <Date in BindingDB>
12/18/2024

> <Institution>
n/a

> <Link to Ligand in BindingDB>
http://www.bindingdb.org/bind/chemsearch/marvin/MolStructure.jsp?monomerid=50625133

> <Link to Ligand-Target Pair in BindingDB>
http://www.bindingdb.org/jsp/dbsearch/PrimarySearch_ki.jsp?energyterm=kJ/mole&tag=pol&polymerid=50007050&target=Protein+cereblon&column=ki&startPg=0&Increment=50&submit=Search

> <Link to Ligand-Target Pair in BindingDB>
http://www.bindingdb.org/jsp/dbsearch/PrimarySearch_ki.jsp?energyterm=kJ/mole&tag=r21&monomerid=50625133&enzyme=Protein+cereblon&column=ki&startPg=0&Increment=50&submit=Search

> <Ligand HET ID in PDB>


> <PDB ID(s) for Ligand-Target Complex>


> <PubChem CID>


> <PubChem SID>


> <ChEBI ID of Ligand>


> <ChEMBL ID of Ligand>


> <DrugBank ID of Ligand>


> <IUPHAR_GRAC ID of Ligand>


> <KEGG ID of Ligand>


> <ZINC ID of Ligand>


> <Number of Protein Chains in Target (bigger than 1 implies a multichain complex)>
1

> <BindingDB Target Chain Sequence>
MAGEGDQQDAAHNMGNHLPLLPAESEEEDEMEVEDQDSKEAKKPNIINFDTSLPTSHTYLGADMEEFHGRTLHDDDSCQVIPVLPQVMMILIPGQTLPLQLFHPQEVSMVRNLIQKDRTFAVLAYSNVQEREAQFGTTAEIYAYREEQDFGIEIVKVKAIGRQRFKVLELRTQSDGIQQAKVQILPECVLPSTMSAVQLESLNKCQIFPSKPVSREDQCSYKWWQKYQKRKFHCANLTSWPRWLYSLYDAETLMDRIKKQLREWDENLKDDSLPSNPIDFSYRVAACLPIDDVLRIQLLKIGSAIQRLRCELDIMNKCTSLCCKQCQETEITTKNEIFSLSLCGPMAAYVNPHGYVHETLTVYKACNLNLIGRPSTEHSWFPGYAWTVAQCKICASHIGWKFTATKKDMSPQKFWGLTRSALLPTIPDTEDEISPDKVILCL

> <PDB ID(s) of Target Chain>
8TNR,8TNQ,8TNP,8D81,8D80,8D7Z,8D7Y,8D7X,8D7W,8D7V,8D7U,8CVP,9DQD,8UH6,6BOY,6BNB,6BN9,6BN8,6BN7,6XK9,6UML,5V3O,5HXB,7U8F,8OJH,8OIZ,7LPS,4TZ4,9DJX,9DJT,8U17,8U16,8U15,8TZX,8DEY,9CUO,4M91

> <UniProt (SwissProt) Recommended Name of Target Chain>
Protein cereblon

> <UniProt (SwissProt) Entry Name of Target Chain>
CRBN_HUMAN

> <UniProt (SwissProt) Primary ID of Target Chain>
Q96SW2

> <UniProt (SwissProt) Secondary ID(s) of Target Chain>
B2R6H4 C9IZA9 C9JAH6 Q6AI62 Q6NVZ0 Q9UHW4

> <UniProt (SwissProt) Alternative ID(s) of Target Chain>


> <UniProt (TrEMBL) Submitted Name of Target Chain>


> <UniProt (TrEMBL) Entry Name of Target Chain>


> <UniProt (TrEMBL) Primary ID of Target Chain>


> <UniProt (TrEMBL) Secondary ID(s) of Target Chain>


> <UniProt (TrEMBL) Alternative ID(s) of Target Chain>


$$$$
 
     RDKit          2D

 25 28  0  0  0  0  0  0  0  0999 V2000
   -1.6789    0.4122    0.0000 C   0  0  0  0  0  0  0  0  0  0  0  0
   -0.9643    0.8245    0.0000 C   0  0  0  0  0  0  0  0  0  0  0  0
   -0.2523    0.4125    0.0000 C   0  0  0  0  0  0  0  0  0  0  0  0
   -0.2523   -0.4125    0.0000 C   0  0  0  0  0  0  0  0  0  0  0  0
   -0.9625   -0.8243    0.0000 C   0  0  0  0  0  0  0  0  0  0  0  0
   -1.6789   -0.4162    0.0000 C   0  0  0  0  0  0  0  0  0  0  0  0
    0.5323   -0.6675    0.0000 C   0  0  0  0  0  0  0  0  0  0  0  0
    0.5323    0.6675    0.0000 C   0  0  0  0  0  0  0  0  0  0  0  0
    1.0173   -0.0000    0.0000 N   0  0  0  0  0  0  0  0  0  0  0  0
    1.8425   -0.0000    0.0000 C   0  0  0  0  0  0  0  0  0  0  0  0
    2.2551    0.7145    0.0000 C   0  0  0  0  0  0  0  0  0  0  0  0
    3.0802    0.7145    0.0000 C   0  0  0  0  0  0  0  0  0  0  0  0
    3.4928   -0.0000    0.0000 C   0  0  0  0  0  0  0  0  0  0  0  0
    3.0802   -0.7147    0.0000 N   0  0  0  0  0  0  0  0  0  0  0  0
    2.2551   -0.7147    0.0000 C   0  0  0  0  0  0  0  0  0  0  0  0
    4.3180   -0.0000    0.0000 O   0  0  0  0  0  0  0  0  0  0  0  0
    1.8425   -1.4293    0.0000 O   0  0  0  0  0  0  0  0  0  0  0  0
    0.7459   -1.4646    0.0000 O   0  0  0  0  0  0  0  0  0  0  0  0
    0.7459    1.4646    0.0000 O   0  0  0  0  0  0  0  0  0  0  0  0
   -2.3267    0.9278    0.0000 C   0  0  0  0  0  0  0  0  0  0  0  0
   -3.1315    0.7350    0.0000 C   0  0  0  0  0  0  0  0  0  0  0  0
   -3.4929   -0.0020    0.0000 N   0  0  0  0  0  0  0  0  0  0  0  0
   -3.1314   -0.7439    0.0000 C   0  0  0  0  0  0  0  0  0  0  0  0
   -2.3235   -0.9276    0.0000 C   0  0  0  0  0  0  0  0  0  0  0  0
   -4.3180   -0.0020    0.0000 C   0  0  0  0  0  0  0  0  0  0  0  0
  2  1  2  0
  3  2  1  0
  4  3  2  0
  5  4  1  0
  1  6  1  0
  6  5  2  0
  4  7  1  0
  3  8  1  0
  8  9  1  0
  9  7  1  0
 10  9  1  0
 10 11  1  0
 12 11  1  0
 13 12  1  0
 14 13  1  0
 10 15  1  0
 15 14  1  0
 13 16  2  0
 15 17  2  0
  7 18  2  0
  8 19  2  0
  1 20  1  0
 20 21  1  0
 22 21  1  0
 23 22  1  0
 24 23  1  0
  6 24  1  0
 22 25  1  0
M  END
> <From>
www.bindingDB.org

> <BindingDB Reactant_set_id>
51563805

> <Ligand InChI>
InChI=1S/C18H19N3O4/c1-20-6-4-10-8-12-13(9-11(10)5-7-20)18(25)21(17(12)24)14-2-3-15(22)19-16(14)23/h8-9,14H,2-7H2,1H3,(H,19,22,23)

> <Ligand InChI Key>
IGNGENZEPWGVQG-UHFFFAOYSA-N

> <BindingDB MonomerID>
50628763

> <BindingDB Ligand Name>
CHEMBL5431079

> <Target Name>
Protein cereblon

> <Target Source Organism According to Curator or DataSource>
Homo sapiens

> <Ki (nM)>
 7300

> <IC50 (nM)>


> <Kd (nM)>


> <EC50 (nM)>


> <kon (M-1-s-1)>


> <koff (s-1)>


> <pH>


> <Temp C>


> <Curation/DataSource>
ChEMBL

> <Article DOI>
10.1021/acs.jmedchem.3c01264

> <BindingDB Entry DOI>
10.7270/Q2MC94FW

> <PMID>
37683104

> <PubChem AID>


> <Patent Number>


> <Authors>
Xiang, W; Zhao, L; Han, X; Xu, T; Kregel, S; Wang, M; Miao, B; Qin, C; Wang, M; McEachern, D; Lu, J; Bai, L; Yang, CY; Kirchhoff, PD; Takyi-Williams, J; Wang, L; Wen, B; Sun, D; Ator, M; Mckean, R; Chinnaiyan, AM; Wang, S

> <Date of publication>
9/28/2023

> <Date in BindingDB>
12/19/2024

> <Institution>
University of Michigan

> <Link to Ligand in BindingDB>
http://www.bindingdb.org/bind/chemsearch/marvin/MolStructure.jsp?monomerid=50628763

> <Link to Ligand-Target Pair in BindingDB>
http://www.bindingdb.org/jsp/dbsearch/PrimarySearch_ki.jsp?energyterm=kJ/mole&tag=pol&polymerid=50007050&target=Protein+cereblon&column=ki&startPg=0&Increment=50&submit=Search

> <Link to Ligand-Target Pair in BindingDB>
http://www.bindingdb.org/jsp/dbsearch/PrimarySearch_ki.jsp?energyterm=kJ/mole&tag=r21&monomerid=50628763&enzyme=Protein+cereblon&column=ki&startPg=0&Increment=50&submit=Search

> <Ligand HET ID in PDB>


> <PDB ID(s) for Ligand-Target Complex>


> <PubChem CID of Ligand>
172462852

> <PubChem SID of Ligand>
505046735

> <ChEBI ID of Ligand>


> <ChEMBL ID of Ligand>


> <DrugBank ID of Ligand>


> <IUPHAR_GRAC ID of Ligand>


> <KEGG ID of Ligand>


> <ZINC ID of Ligand>


> <Number of Protein Chains in Target (bigger than 1 implies a multichain complex)>
1

> <BindingDB Target Chain Sequence>
MAGEGDQQDAAHNMGNHLPLLPAESEEEDEMEVEDQDSKEAKKPNIINFDTSLPTSHTYLGADMEEFHGRTLHDDDSCQVIPVLPQVMMILIPGQTLPLQLFHPQEVSMVRNLIQKDRTFAVLAYSNVQEREAQFGTTAEIYAYREEQDFGIEIVKVKAIGRQRFKVLELRTQSDGIQQAKVQILPECVLPSTMSAVQLESLNKCQIFPSKPVSREDQCSYKWWQKYQKRKFHCANLTSWPRWLYSLYDAETLMDRIKKQLREWDENLKDDSLPSNPIDFSYRVAACLPIDDVLRIQLLKIGSAIQRLRCELDIMNKCTSLCCKQCQETEITTKNEIFSLSLCGPMAAYVNPHGYVHETLTVYKACNLNLIGRPSTEHSWFPGYAWTVAQCKICASHIGWKFTATKKDMSPQKFWGLTRSALLPTIPDTEDEISPDKVILCL

> <PDB ID(s) of Target Chain>
8TNR,8TNQ,8TNP,8D81,8D80,8D7Z,8D7Y,8D7X,8D7W,8D7V,8D7U,8CVP,9DQD,8UH6,6BOY,6BNB,6BN9,6BN8,6BN7,6XK9,6UML,5V3O,5HXB,7U8F,8OJH,8OIZ,7LPS,4TZ4,9DJX,9DJT,8U17,8U16,8U15,8TZX,8DEY,9CUO,4M91

> <UniProt (SwissProt) Recommended Name of Target Chain>
Protein cereblon

> <UniProt (SwissProt) Entry Name of Target Chain>
CRBN_HUMAN

> <UniProt (SwissProt) Primary ID of Target Chain>
Q96SW2

> <UniProt (SwissProt) Secondary ID(s) of Target Chain>
B2R6H4 C9IZA9 C9JAH6 Q6AI62 Q6NVZ0 Q9UHW4

> <UniProt (SwissProt) Alternative ID(s) of Target Chain>


> <UniProt (TrEMBL) Submitted Name of Target Chain>


> <UniProt (TrEMBL) Entry Name of Target Chain>


> <UniProt (TrEMBL) Primary ID of Target Chain>


> <UniProt (TrEMBL) Secondary ID(s) of Target Chain>


> <UniProt (TrEMBL) Alternative ID(s) of Target Chain>


$$$$
 
     RDKit          2D

 19 20  0  0  0  0  0  0  0  0999 V2000
   -2.4994   -0.2050    0.0000 C   0  0  0  0  0  0  0  0  0  0  0  0
   -1.7849    0.2074    0.0000 C   0  0  0  0  0  0  0  0  0  0  0  0
   -1.0705   -0.2050    0.0000 C   0  0  0  0  0  0  0  0  0  0  0  0
   -1.0705   -1.0301    0.0000 C   0  0  0  0  0  0  0  0  0  0  0  0
   -1.7849   -1.4425    0.0000 N   0  0  0  0  0  0  0  0  0  0  0  0
   -2.4994   -1.0301    0.0000 C   0  0  0  0  0  0  0  0  0  0  0  0
   -3.2137   -1.4424    0.0000 O   0  0  0  0  0  0  0  0  0  0  0  0
   -0.3562   -1.4424    0.0000 O   0  0  0  0  0  0  0  0  0  0  0  0
   -0.3562    0.2073    0.0000 C   0  0  0  0  0  0  0  0  0  0  0  0
    0.3579   -0.2050    0.0000 S   0  0  0  0  0  0  0  0  0  0  0  0
    1.0722    0.2073    0.0000 C   0  0  0  0  0  0  0  0  0  0  0  0
    1.0725    1.0321    0.0000 C   0  0  0  0  0  0  0  0  0  0  0  0
    1.7849    1.4425    0.0000 C   0  0  0  0  0  0  0  0  0  0  0  0
    2.4994    1.0301    0.0000 C   0  0  0  0  0  0  0  0  0  0  0  0
    2.5010    0.2094    0.0000 C   0  0  0  0  0  0  0  0  0  0  0  0
    1.7896   -0.2068    0.0000 C   0  0  0  0  0  0  0  0  0  0  0  0
   -0.0551   -0.9206    0.0000 O   0  0  0  0  0  0  0  0  0  0  0  0
    0.7695   -0.9206    0.0000 O   0  0  0  0  0  0  0  0  0  0  0  0
    3.2137    1.4424    0.0000 Cl  0  0  0  0  0  0  0  0  0  0  0  0
  1  2  1  0
  3  2  1  0
  4  3  1  0
  5  4  1  0
  6  5  1  0
  1  6  1  0
  6  7  2  0
  4  8  2  0
  3  9  1  0
  9 10  1  0
 10 11  1  0
 12 11  2  0
 13 12  1  0
 14 13  2  0
 15 14  1  0
 16 15  2  0
 11 16  1  0
 10 17  2  0
 10 18  2  0
 14 19  1  0
M  END
> <From>
www.bindingDB.org

> <BindingDB Reactant_set_id>
51553750

> <Ligand InChI>
InChI=1S/C12H12ClNO4S/c13-9-2-4-10(5-3-9)19(17,18)7-8-1-6-11(15)14-12(8)16/h2-5,8H,1,6-7H2,(H,14,15,16)

> <Ligand InChI Key>
LQWHIMHUNQNNLT-UHFFFAOYSA-N

> <BindingDB MonomerID>
50625142

> <BindingDB Ligand Name>
CHEMBL5397775

> <Target Name>
Protein cereblon

> <Target Source Organism According to Curator or DataSource>
Homo sapiens

> <Ki (nM)>
 7400

> <IC50 (nM)>


> <Kd (nM)>


> <EC50 (nM)>


> <kon (M-1-s-1)>


> <koff (s-1)>


> <pH>


> <Temp C>


> <Curation/DataSource>
ChEMBL

> <Article DOI>
10.1016/j.ejmech.2022.114990

> <BindingDB Entry DOI>
10.7270/Q2F1944V

> <PMID>
36476642

> <PubChem AID>


> <Patent Number>


> <Authors>
n/a

> <Date of publication>
1/15/2023

> <Date in BindingDB>
12/18/2024

> <Institution>
n/a

> <Link to Ligand in BindingDB>
http://www.bindingdb.org/bind/chemsearch/marvin/MolStructure.jsp?monomerid=50625142

> <Link to Ligand-Target Pair in BindingDB>
http://www.bindingdb.org/jsp/dbsearch/PrimarySearch_ki.jsp?energyterm=kJ/mole&tag=pol&polymerid=50007050&target=Protein+cereblon&column=ki&startPg=0&Increment=50&submit=Search

> <Link to Ligand-Target Pair in BindingDB>
http://www.bindingdb.org/jsp/dbsearch/PrimarySearch_ki.jsp?energyterm=kJ/mole&tag=r21&monomerid=50625142&enzyme=Protein+cereblon&column=ki&startPg=0&Increment=50&submit=Search

> <Ligand HET ID in PDB>


> <PDB ID(s) for Ligand-Target Complex>


> <PubChem CID>


> <PubChem SID>


> <ChEBI ID of Ligand>


> <ChEMBL ID of Ligand>


> <DrugBank ID of Ligand>


> <IUPHAR_GRAC ID of Ligand>


> <KEGG ID of Ligand>


> <ZINC ID of Ligand>


> <Number of Protein Chains in Target (bigger than 1 implies a multichain complex)>
1

> <BindingDB Target Chain Sequence>
MAGEGDQQDAAHNMGNHLPLLPAESEEEDEMEVEDQDSKEAKKPNIINFDTSLPTSHTYLGADMEEFHGRTLHDDDSCQVIPVLPQVMMILIPGQTLPLQLFHPQEVSMVRNLIQKDRTFAVLAYSNVQEREAQFGTTAEIYAYREEQDFGIEIVKVKAIGRQRFKVLELRTQSDGIQQAKVQILPECVLPSTMSAVQLESLNKCQIFPSKPVSREDQCSYKWWQKYQKRKFHCANLTSWPRWLYSLYDAETLMDRIKKQLREWDENLKDDSLPSNPIDFSYRVAACLPIDDVLRIQLLKIGSAIQRLRCELDIMNKCTSLCCKQCQETEITTKNEIFSLSLCGPMAAYVNPHGYVHETLTVYKACNLNLIGRPSTEHSWFPGYAWTVAQCKICASHIGWKFTATKKDMSPQKFWGLTRSALLPTIPDTEDEISPDKVILCL

> <PDB ID(s) of Target Chain>
8TNR,8TNQ,8TNP,8D81,8D80,8D7Z,8D7Y,8D7X,8D7W,8D7V,8D7U,8CVP,9DQD,8UH6,6BOY,6BNB,6BN9,6BN8,6BN7,6XK9,6UML,5V3O,5HXB,7U8F,8OJH,8OIZ,7LPS,4TZ4,9DJX,9DJT,8U17,8U16,8U15,8TZX,8DEY,9CUO,4M91

> <UniProt (SwissProt) Recommended Name of Target Chain>
Protein cereblon

> <UniProt (SwissProt) Entry Name of Target Chain>
CRBN_HUMAN

> <UniProt (SwissProt) Primary ID of Target Chain>
Q96SW2

> <UniProt (SwissProt) Secondary ID(s) of Target Chain>
B2R6H4 C9IZA9 C9JAH6 Q6AI62 Q6NVZ0 Q9UHW4

> <UniProt (SwissProt) Alternative ID(s) of Target Chain>


> <UniProt (TrEMBL) Submitted Name of Target Chain>


> <UniProt (TrEMBL) Entry Name of Target Chain>


> <UniProt (TrEMBL) Primary ID of Target Chain>


> <UniProt (TrEMBL) Secondary ID(s) of Target Chain>


> <UniProt (TrEMBL) Alternative ID(s) of Target Chain>


$$$$
 
     RDKit          2D

 18 19  0  0  0  0  0  0  0  0999 V2000
   -2.1430   -0.2050    0.0000 C   0  0  0  0  0  0  0  0  0  0  0  0
   -1.4285    0.2074    0.0000 C   0  0  0  0  0  0  0  0  0  0  0  0
   -0.7141   -0.2050    0.0000 C   0  0  0  0  0  0  0  0  0  0  0  0
   -0.7141   -1.0300    0.0000 C   0  0  0  0  0  0  0  0  0  0  0  0
   -1.4285   -1.4425    0.0000 N   0  0  0  0  0  0  0  0  0  0  0  0
   -2.1430   -1.0300    0.0000 C   0  0  0  0  0  0  0  0  0  0  0  0
   -2.8572   -1.4424    0.0000 O   0  0  0  0  0  0  0  0  0  0  0  0
    0.0000   -1.4424    0.0000 O   0  0  0  0  0  0  0  0  0  0  0  0
    0.0000    0.2072    0.0000 C   0  0  0  0  0  0  0  0  0  0  0  0
    0.7143   -0.2050    0.0000 S   0  0  0  0  0  0  0  0  0  0  0  0
    1.4285    0.2072    0.0000 C   0  0  0  0  0  0  0  0  0  0  0  0
    1.4287    1.0320    0.0000 C   0  0  0  0  0  0  0  0  0  0  0  0
    2.1412    1.4425    0.0000 C   0  0  0  0  0  0  0  0  0  0  0  0
    2.8557    1.0300    0.0000 C   0  0  0  0  0  0  0  0  0  0  0  0
    2.8572    0.2094    0.0000 C   0  0  0  0  0  0  0  0  0  0  0  0
    2.1458   -0.2068    0.0000 C   0  0  0  0  0  0  0  0  0  0  0  0
    0.3011   -0.9206    0.0000 O   0  0  0  0  0  0  0  0  0  0  0  0
    1.1259   -0.9206    0.0000 O   0  0  0  0  0  0  0  0  0  0  0  0
  1  2  1  0
  3  2  1  0
  4  3  1  0
  5  4  1  0
  6  5  1  0
  1  6  1  0
  6  7  2  0
  4  8  2  0
  3  9  1  0
  9 10  1  0
 10 11  1  0
 12 11  2  0
 13 12  1  0
 14 13  2  0
 15 14  1  0
 16 15  2  0
 11 16  1  0
 10 17  2  0
 10 18  2  0
M  END
> <From>
www.bindingDB.org

> <BindingDB Reactant_set_id>
51553749

> <Ligand InChI>
InChI=1S/C12H13NO4S/c14-11-7-6-9(12(15)13-11)8-18(16,17)10-4-2-1-3-5-10/h1-5,9H,6-8H2,(H,13,14,15)

> <Ligand InChI Key>
JPOLQZHTTNLNIA-UHFFFAOYSA-N

> <BindingDB MonomerID>
50625141

> <BindingDB Ligand Name>
CHEMBL5416620

> <Target Name>
Protein cereblon

> <Target Source Organism According to Curator or DataSource>
Homo sapiens

> <Ki (nM)>
 7500

> <IC50 (nM)>


> <Kd (nM)>


> <EC50 (nM)>


> <kon (M-1-s-1)>


> <koff (s-1)>


> <pH>


> <Temp C>


> <Curation/DataSource>
ChEMBL

> <Article DOI>
10.1016/j.ejmech.2022.114990

> <BindingDB Entry DOI>
10.7270/Q2F1944V

> <PMID>
36476642

> <PubChem AID>


> <Patent Number>


> <Authors>
n/a

> <Date of publication>
1/15/2023

> <Date in BindingDB>
12/18/2024

> <Institution>
n/a

> <Link to Ligand in BindingDB>
http://www.bindingdb.org/bind/chemsearch/marvin/MolStructure.jsp?monomerid=50625141

> <Link to Ligand-Target Pair in BindingDB>
http://www.bindingdb.org/jsp/dbsearch/PrimarySearch_ki.jsp?energyterm=kJ/mole&tag=pol&polymerid=50007050&target=Protein+cereblon&column=ki&startPg=0&Increment=50&submit=Search

> <Link to Ligand-Target Pair in BindingDB>
http://www.bindingdb.org/jsp/dbsearch/PrimarySearch_ki.jsp?energyterm=kJ/mole&tag=r21&monomerid=50625141&enzyme=Protein+cereblon&column=ki&startPg=0&Increment=50&submit=Search

> <Ligand HET ID in PDB>
N8F    

> <PDB ID(s) for Ligand-Target Complex>
8AOQ

> <PubChem CID>


> <PubChem SID>


> <ChEBI ID of Ligand>


> <ChEMBL ID of Ligand>


> <DrugBank ID of Ligand>


> <IUPHAR_GRAC ID of Ligand>


> <KEGG ID of Ligand>


> <ZINC ID of Ligand>


> <Number of Protein Chains in Target (bigger than 1 implies a multichain complex)>
1

> <BindingDB Target Chain Sequence>
MAGEGDQQDAAHNMGNHLPLLPAESEEEDEMEVEDQDSKEAKKPNIINFDTSLPTSHTYLGADMEEFHGRTLHDDDSCQVIPVLPQVMMILIPGQTLPLQLFHPQEVSMVRNLIQKDRTFAVLAYSNVQEREAQFGTTAEIYAYREEQDFGIEIVKVKAIGRQRFKVLELRTQSDGIQQAKVQILPECVLPSTMSAVQLESLNKCQIFPSKPVSREDQCSYKWWQKYQKRKFHCANLTSWPRWLYSLYDAETLMDRIKKQLREWDENLKDDSLPSNPIDFSYRVAACLPIDDVLRIQLLKIGSAIQRLRCELDIMNKCTSLCCKQCQETEITTKNEIFSLSLCGPMAAYVNPHGYVHETLTVYKACNLNLIGRPSTEHSWFPGYAWTVAQCKICASHIGWKFTATKKDMSPQKFWGLTRSALLPTIPDTEDEISPDKVILCL

> <PDB ID(s) of Target Chain>
8TNR,8TNQ,8TNP,8D81,8D80,8D7Z,8D7Y,8D7X,8D7W,8D7V,8D7U,8CVP,9DQD,8UH6,6BOY,6BNB,6BN9,6BN8,6BN7,6XK9,6UML,5V3O,5HXB,7U8F,8OJH,8OIZ,7LPS,4TZ4,9DJX,9DJT,8U17,8U16,8U15,8TZX,8DEY,9CUO,4M91

> <UniProt (SwissProt) Recommended Name of Target Chain>
Protein cereblon

> <UniProt (SwissProt) Entry Name of Target Chain>
CRBN_HUMAN

> <UniProt (SwissProt) Primary ID of Target Chain>
Q96SW2

> <UniProt (SwissProt) Secondary ID(s) of Target Chain>
B2R6H4 C9IZA9 C9JAH6 Q6AI62 Q6NVZ0 Q9UHW4

> <UniProt (SwissProt) Alternative ID(s) of Target Chain>


> <UniProt (TrEMBL) Submitted Name of Target Chain>


> <UniProt (TrEMBL) Entry Name of Target Chain>


> <UniProt (TrEMBL) Primary ID of Target Chain>


> <UniProt (TrEMBL) Secondary ID(s) of Target Chain>


> <UniProt (TrEMBL) Alternative ID(s) of Target Chain>


$$$$
 
     RDKit          2D

 16 17  0  0  0  0  0  0  0  0999 V2000
   -2.1431   -0.2050    0.0000 C   0  0  0  0  0  0  0  0  0  0  0  0
   -1.4286    0.2074    0.0000 C   0  0  0  0  0  0  0  0  0  0  0  0
   -0.7141   -0.2050    0.0000 C   0  0  0  0  0  0  0  0  0  0  0  0
   -0.7141   -1.0301    0.0000 C   0  0  0  0  0  0  0  0  0  0  0  0
   -1.4286   -1.4425    0.0000 N   0  0  0  0  0  0  0  0  0  0  0  0
   -2.1431   -1.0301    0.0000 C   0  0  0  0  0  0  0  0  0  0  0  0
   -2.8573   -1.4424    0.0000 O   0  0  0  0  0  0  0  0  0  0  0  0
    0.0000   -1.4424    0.0000 O   0  0  0  0  0  0  0  0  0  0  0  0
    0.0000    0.2073    0.0000 C   0  0  0  0  0  0  0  0  0  0  0  0
    0.7143   -0.2050    0.0000 S   0  0  0  0  0  0  0  0  0  0  0  0
    1.4286    0.2073    0.0000 C   0  0  0  0  0  0  0  0  0  0  0  0
    1.4288    1.0321    0.0000 C   0  0  0  0  0  0  0  0  0  0  0  0
    2.1413    1.4425    0.0000 C   0  0  0  0  0  0  0  0  0  0  0  0
    2.8558    1.0301    0.0000 C   0  0  0  0  0  0  0  0  0  0  0  0
    2.8573    0.2094    0.0000 C   0  0  0  0  0  0  0  0  0  0  0  0
    2.1459   -0.2068    0.0000 N   0  0  0  0  0  0  0  0  0  0  0  0
  1  2  1  0
  3  2  1  0
  4  3  1  0
  5  4  1  0
  1  6  1  0
  6  5  1  0
  6  7  2  0
  4  8  2  0
  3  9  1  0
  9 10  1  0
 10 11  1  0
 12 11  2  0
 13 12  1  0
 14 13  2  0
 15 14  1  0
 16 15  2  0
 11 16  1  0
M  END
> <From>
www.bindingDB.org

> <BindingDB Reactant_set_id>
51553739

> <Ligand InChI>
InChI=1S/C11H12N2O2S/c14-9-5-4-8(11(15)13-9)7-16-10-3-1-2-6-12-10/h1-3,6,8H,4-5,7H2,(H,13,14,15)

> <Ligand InChI Key>
IDDMGIZANZXQLO-UHFFFAOYSA-N

> <BindingDB MonomerID>
50625132

> <BindingDB Ligand Name>
CHEMBL5435385

> <Target Name>
Protein cereblon

> <Target Source Organism According to Curator or DataSource>
Homo sapiens

> <Ki (nM)>
 7800

> <IC50 (nM)>


> <Kd (nM)>


> <EC50 (nM)>


> <kon (M-1-s-1)>


> <koff (s-1)>


> <pH>


> <Temp C>


> <Curation/DataSource>
ChEMBL

> <Article DOI>
10.1016/j.ejmech.2022.114990

> <BindingDB Entry DOI>
10.7270/Q2F1944V

> <PMID>
36476642

> <PubChem AID>


> <Patent Number>


> <Authors>
n/a

> <Date of publication>
1/15/2023

> <Date in BindingDB>
12/18/2024

> <Institution>
n/a

> <Link to Ligand in BindingDB>
http://www.bindingdb.org/bind/chemsearch/marvin/MolStructure.jsp?monomerid=50625132

> <Link to Ligand-Target Pair in BindingDB>
http://www.bindingdb.org/jsp/dbsearch/PrimarySearch_ki.jsp?energyterm=kJ/mole&tag=pol&polymerid=50007050&target=Protein+cereblon&column=ki&startPg=0&Increment=50&submit=Search

> <Link to Ligand-Target Pair in BindingDB>
http://www.bindingdb.org/jsp/dbsearch/PrimarySearch_ki.jsp?energyterm=kJ/mole&tag=r21&monomerid=50625132&enzyme=Protein+cereblon&column=ki&startPg=0&Increment=50&submit=Search

> <Ligand HET ID in PDB>


> <PDB ID(s) for Ligand-Target Complex>


> <PubChem CID>


> <PubChem SID>


> <ChEBI ID of Ligand>


> <ChEMBL ID of Ligand>


> <DrugBank ID of Ligand>


> <IUPHAR_GRAC ID of Ligand>


> <KEGG ID of Ligand>


> <ZINC ID of Ligand>


> <Number of Protein Chains in Target (bigger than 1 implies a multichain complex)>
1

> <BindingDB Target Chain Sequence>
MAGEGDQQDAAHNMGNHLPLLPAESEEEDEMEVEDQDSKEAKKPNIINFDTSLPTSHTYLGADMEEFHGRTLHDDDSCQVIPVLPQVMMILIPGQTLPLQLFHPQEVSMVRNLIQKDRTFAVLAYSNVQEREAQFGTTAEIYAYREEQDFGIEIVKVKAIGRQRFKVLELRTQSDGIQQAKVQILPECVLPSTMSAVQLESLNKCQIFPSKPVSREDQCSYKWWQKYQKRKFHCANLTSWPRWLYSLYDAETLMDRIKKQLREWDENLKDDSLPSNPIDFSYRVAACLPIDDVLRIQLLKIGSAIQRLRCELDIMNKCTSLCCKQCQETEITTKNEIFSLSLCGPMAAYVNPHGYVHETLTVYKACNLNLIGRPSTEHSWFPGYAWTVAQCKICASHIGWKFTATKKDMSPQKFWGLTRSALLPTIPDTEDEISPDKVILCL

> <PDB ID(s) of Target Chain>
8TNR,8TNQ,8TNP,8D81,8D80,8D7Z,8D7Y,8D7X,8D7W,8D7V,8D7U,8CVP,9DQD,8UH6,6BOY,6BNB,6BN9,6BN8,6BN7,6XK9,6UML,5V3O,5HXB,7U8F,8OJH,8OIZ,7LPS,4TZ4,9DJX,9DJT,8U17,8U16,8U15,8TZX,8DEY,9CUO,4M91

> <UniProt (SwissProt) Recommended Name of Target Chain>
Protein cereblon

> <UniProt (SwissProt) Entry Name of Target Chain>
CRBN_HUMAN

> <UniProt (SwissProt) Primary ID of Target Chain>
Q96SW2

> <UniProt (SwissProt) Secondary ID(s) of Target Chain>
B2R6H4 C9IZA9 C9JAH6 Q6AI62 Q6NVZ0 Q9UHW4

> <UniProt (SwissProt) Alternative ID(s) of Target Chain>


> <UniProt (TrEMBL) Submitted Name of Target Chain>


> <UniProt (TrEMBL) Entry Name of Target Chain>


> <UniProt (TrEMBL) Primary ID of Target Chain>


> <UniProt (TrEMBL) Secondary ID(s) of Target Chain>


> <UniProt (TrEMBL) Alternative ID(s) of Target Chain>


$$$$
Maleimide-Related Compound 13
  Mrv0541 11181423152D          

  7  7  0  0  0  0            999 V2000
   -1.5112    0.8106    0.0000 C   0  0  0  0  0  0  0  0  0  0  0  0
   -1.2563    0.0260    0.0000 C   0  0  0  0  0  0  0  0  0  0  0  0
   -0.4312    0.0260    0.0000 C   0  0  0  0  0  0  0  0  0  0  0  0
   -0.1763    0.8106    0.0000 C   0  0  0  0  0  0  0  0  0  0  0  0
   -2.2958    1.0655    0.0000 O   0  0  0  0  0  0  0  0  0  0  0  0
    0.6083    1.0655    0.0000 O   0  0  0  0  0  0  0  0  0  0  0  0
   -0.8438    1.2955    0.0000 N   0  0  0  0  0  0  0  0  0  0  0  0
  7  1  1  0  0  0  0
  7  4  1  0  0  0  0
  1  2  1  0  0  0  0
  3  4  1  0  0  0  0
  1  5  2  0  0  0  0
  4  6  2  0  0  0  0
  2  3  1  0  0  0  0
M  END
> <From>
www.bindingDB.org

> <BindingDB Reactant_set_id>
51359706

> <Ligand InChI>
InChI=1S/C4H5NO2/c6-3-1-2-4(7)5-3/h1-2H2,(H,5,6,7)

> <Ligand InChI Key>
KZNICNPSHKQLFF-UHFFFAOYSA-N

> <BindingDB MonomerID>
7814

> <BindingDB Ligand Name>
Maleimide-Related Compound 13::pyrrolidine-2,5-dione

> <Target Name>
Protein cereblon

> <Target Source Organism According to Curator or DataSource>
Human

> <Ki (nM)>
 8190

> <IC50 (nM)>


> <Kd (nM)>


> <EC50 (nM)>


> <kon (M-1-s-1)>


> <koff (s-1)>


> <pH>


> <Temp C>


> <Curation/DataSource>
ChEMBL

> <Article DOI>
10.1021/acsmedchemlett.0c00440

> <BindingDB Entry DOI>
10.7270/Q2WM1J1B

> <PMID>
33488967

> <PubChem AID>


> <Patent Number>


> <Authors>
Maiwald, S; Heim, C; Hernandez Alvarez, B; Hartmann, MD

> <Date of publication>
1/14/2021

> <Date in BindingDB>
3/23/2022

> <Institution>
Max Planck Institute for Developmental Biology

> <Link to Ligand in BindingDB>
http://www.bindingdb.org/bind/chemsearch/marvin/MolStructure.jsp?monomerid=7814

> <Link to Ligand-Target Pair in BindingDB>
http://www.bindingdb.org/jsp/dbsearch/PrimarySearch_ki.jsp?energyterm=kJ/mole&tag=pol&polymerid=50007050&target=Protein+cereblon&column=ki&startPg=0&Increment=50&submit=Search

> <Link to Ligand-Target Pair in BindingDB>
http://www.bindingdb.org/jsp/dbsearch/PrimarySearch_ki.jsp?energyterm=kJ/mole&tag=r21&monomerid=7814&enzyme=Protein+cereblon&column=ki&startPg=0&Increment=50&submit=Search

> <Ligand HET ID in PDB>


> <PDB ID(s) for Ligand-Target Complex>


> <PubChem CID of Ligand>
11439

> <PubChem SID of Ligand>
11108588

> <ChEBI ID of Ligand>
9307

> <ChEMBL ID of Ligand>


> <DrugBank ID of Ligand>


> <IUPHAR_GRAC ID of Ligand>


> <KEGG ID of Ligand>
C07273

> <ZINC ID of Ligand>
ZINC05133396

> <Number of Protein Chains in Target (bigger than 1 implies a multichain complex)>
1

> <BindingDB Target Chain Sequence>
MAGEGDQQDAAHNMGNHLPLLPAESEEEDEMEVEDQDSKEAKKPNIINFDTSLPTSHTYLGADMEEFHGRTLHDDDSCQVIPVLPQVMMILIPGQTLPLQLFHPQEVSMVRNLIQKDRTFAVLAYSNVQEREAQFGTTAEIYAYREEQDFGIEIVKVKAIGRQRFKVLELRTQSDGIQQAKVQILPECVLPSTMSAVQLESLNKCQIFPSKPVSREDQCSYKWWQKYQKRKFHCANLTSWPRWLYSLYDAETLMDRIKKQLREWDENLKDDSLPSNPIDFSYRVAACLPIDDVLRIQLLKIGSAIQRLRCELDIMNKCTSLCCKQCQETEITTKNEIFSLSLCGPMAAYVNPHGYVHETLTVYKACNLNLIGRPSTEHSWFPGYAWTVAQCKICASHIGWKFTATKKDMSPQKFWGLTRSALLPTIPDTEDEISPDKVILCL

> <PDB ID(s) of Target Chain>
4TZ4,5HXB,5V3O,6UML,6XK9,7LPS,7U8F,8CVP,8D7U,8D7V,8D7W,8D7X,8D7Y,8D7Z,8D80,8D81,8DEY,8OIZ,8OJH

> <UniProt (SwissProt) Recommended Name of Target Chain>
Protein cereblon

> <UniProt (SwissProt) Entry Name of Target Chain>
CRBN_HUMAN

> <UniProt (SwissProt) Primary ID of Target Chain>
Q96SW2

> <UniProt (SwissProt) Secondary ID(s) of Target Chain>
B2R6H4 C9IZA9 C9JAH6 Q6AI62 Q6NVZ0 Q9UHW4

> <UniProt (SwissProt) Alternative ID(s) of Target Chain>


> <UniProt (TrEMBL) Submitted Name of Target Chain>


> <UniProt (TrEMBL) Entry Name of Target Chain>


> <UniProt (TrEMBL) Primary ID of Target Chain>


> <UniProt (TrEMBL) Secondary ID(s) of Target Chain>


> <UniProt (TrEMBL) Alternative ID(s) of Target Chain>


$$$$
 
  Mrv0541 11231401562D          

 19 21  0  0  0  0            999 V2000
    0.8646  -22.9723    0.0000 C   0  0  0  0  0  0  0  0  0  0  0  0
    1.6916  -22.9723    0.0000 C   0  0  0  0  0  0  0  0  0  0  0  0
    2.1028  -22.2600    0.0000 C   0  0  0  0  0  0  0  0  0  0  0  0
    1.6916  -21.5432    0.0000 N   0  0  0  0  0  0  0  0  0  0  0  0
    0.8646  -21.5432    0.0000 C   0  0  0  0  0  0  0  0  0  0  0  0
    0.4488  -22.2600    0.0000 C   0  0  0  0  0  0  0  0  0  0  0  0
   -0.3797  -22.2649    0.0000 N   0  0  0  0  0  0  0  0  0  0  0  0
   -0.8667  -21.5966    0.0000 C   0  0  0  0  0  0  0  0  0  0  0  0
   -0.8649  -22.9346    0.0000 C   0  0  0  0  0  0  0  0  0  0  0  0
   -1.6518  -22.6803    0.0000 C   0  0  0  0  0  0  0  0  0  0  0  0
   -1.6493  -21.8553    0.0000 C   0  0  0  0  0  0  0  0  0  0  0  0
   -2.3613  -21.4425    0.0000 C   0  0  0  0  0  0  0  0  0  0  0  0
   -3.0763  -21.8535    0.0000 C   0  0  0  0  0  0  0  0  0  0  0  0
   -3.0748  -22.6816    0.0000 C   0  0  0  0  0  0  0  0  0  0  0  0
   -2.3622  -23.0907    0.0000 C   0  0  0  0  0  0  0  0  0  0  0  0
   -0.6138  -20.8092    0.0000 O   0  0  0  0  0  0  0  0  0  0  0  0
   -0.6082  -23.7207    0.0000 O   0  0  0  0  0  0  0  0  0  0  0  0
    0.4518  -20.8266    0.0000 O   0  0  0  0  0  0  0  0  0  0  0  0
    2.9298  -22.2612    0.0000 O   0  0  0  0  0  0  0  0  0  0  0  0
  9  7  1  0  0  0  0
  6  7  1  0  0  0  0
  2  3  1  0  0  0  0
  3  4  1  0  0  0  0
 10 11  2  0  0  0  0
  4  5  1  0  0  0  0
 11 12  1  0  0  0  0
  5  6  1  0  0  0  0
 12 13  2  0  0  0  0
  7  8  1  0  0  0  0
 13 14  1  0  0  0  0
 14 15  2  0  0  0  0
 15 10  1  0  0  0  0
  1  2  1  0  0  0  0
  8 16  2  0  0  0  0
  1  6  1  0  0  0  0
  9 17  2  0  0  0  0
  8 11  1  0  0  0  0
  5 18  2  0  0  0  0
 10  9  1  0  0  0  0
  3 19  2  0  0  0  0
M  END
> <From>
www.bindingDB.org

> <BindingDB Reactant_set_id>
51553755

> <Ligand InChI>
InChI=1S/C13H10N2O4/c16-10-6-5-9(11(17)14-10)15-12(18)7-3-1-2-4-8(7)13(15)19/h1-4,9H,5-6H2,(H,14,16,17)

> <Ligand InChI Key>
UEJJHQNACJXSKW-UHFFFAOYSA-N

> <BindingDB MonomerID>
50070114

> <BindingDB Ligand Name>
(+/-)-thalidomide::2-(2,6-Dioxo-piperidin-3-yl)-isoindole-1,3-dione::2-(2,6-dioxopiperidin-3-yl)isoindoline-1,3-dione::CHEMBL468::K-17::THALIDOMIDE::Thalomid::US11059801, Compound D-62::[(R,S)-2-(2,6-dioxo-3-piperidinyl)-1H-isoindole-1,3(2H)-dione

> <Target Name>
Protein cereblon

> <Target Source Organism According to Curator or DataSource>
Homo sapiens

> <Ki (nM)>
 8500

> <IC50 (nM)>


> <Kd (nM)>


> <EC50 (nM)>


> <kon (M-1-s-1)>


> <koff (s-1)>


> <pH>


> <Temp C>


> <Curation/DataSource>
ChEMBL

> <Article DOI>
10.1016/j.ejmech.2022.114990

> <BindingDB Entry DOI>
10.7270/Q2F1944V

> <PMID>
36476642

> <PubChem AID>


> <Patent Number>


> <Authors>
n/a

> <Date of publication>
1/15/2023

> <Date in BindingDB>
12/18/2024

> <Institution>
n/a

> <Link to Ligand in BindingDB>
http://www.bindingdb.org/bind/chemsearch/marvin/MolStructure.jsp?monomerid=50070114

> <Link to Ligand-Target Pair in BindingDB>
http://www.bindingdb.org/jsp/dbsearch/PrimarySearch_ki.jsp?energyterm=kJ/mole&tag=pol&polymerid=50007050&target=Protein+cereblon&column=ki&startPg=0&Increment=50&submit=Search

> <Link to Ligand-Target Pair in BindingDB>
http://www.bindingdb.org/jsp/dbsearch/PrimarySearch_ki.jsp?energyterm=kJ/mole&tag=r21&monomerid=50070114&enzyme=Protein+cereblon&column=ki&startPg=0&Increment=50&submit=Search

> <Ligand HET ID in PDB>
EF2    

> <PDB ID(s) for Ligand-Target Complex>
4CI1,8BC7,5AMI,5AMH,7BQU,5YIZ,7PSO,4V32,4V2Y,5OH1,5AMK,5AMJ,6R13,6R12,6R19,6R18,6R1C,6R1A,6R1W,6R0U,6R0S,5YJ0,4TZC,8OU3

> <PubChem CID of Ligand>
5426

> <PubChem SID of Ligand>
103964042

> <ChEBI ID of Ligand>
74947

> <ChEMBL ID of Ligand>
CHEMBL468

> <DrugBank ID of Ligand>
DB01041

> <IUPHAR_GRAC ID of Ligand>
7327

> <KEGG ID of Ligand>
C07910

> <ZINC ID of Ligand>
ZINC01530948

> <Number of Protein Chains in Target (bigger than 1 implies a multichain complex)>
1

> <BindingDB Target Chain Sequence>
MAGEGDQQDAAHNMGNHLPLLPAESEEEDEMEVEDQDSKEAKKPNIINFDTSLPTSHTYLGADMEEFHGRTLHDDDSCQVIPVLPQVMMILIPGQTLPLQLFHPQEVSMVRNLIQKDRTFAVLAYSNVQEREAQFGTTAEIYAYREEQDFGIEIVKVKAIGRQRFKVLELRTQSDGIQQAKVQILPECVLPSTMSAVQLESLNKCQIFPSKPVSREDQCSYKWWQKYQKRKFHCANLTSWPRWLYSLYDAETLMDRIKKQLREWDENLKDDSLPSNPIDFSYRVAACLPIDDVLRIQLLKIGSAIQRLRCELDIMNKCTSLCCKQCQETEITTKNEIFSLSLCGPMAAYVNPHGYVHETLTVYKACNLNLIGRPSTEHSWFPGYAWTVAQCKICASHIGWKFTATKKDMSPQKFWGLTRSALLPTIPDTEDEISPDKVILCL

> <PDB ID(s) of Target Chain>
8TNR,8TNQ,8TNP,8D81,8D80,8D7Z,8D7Y,8D7X,8D7W,8D7V,8D7U,8CVP,9DQD,8UH6,6BOY,6BNB,6BN9,6BN8,6BN7,6XK9,6UML,5V3O,5HXB,7U8F,8OJH,8OIZ,7LPS,4TZ4,9DJX,9DJT,8U17,8U16,8U15,8TZX,8DEY,9CUO,4M91

> <UniProt (SwissProt) Recommended Name of Target Chain>
Protein cereblon

> <UniProt (SwissProt) Entry Name of Target Chain>
CRBN_HUMAN

> <UniProt (SwissProt) Primary ID of Target Chain>
Q96SW2

> <UniProt (SwissProt) Secondary ID(s) of Target Chain>
B2R6H4 C9IZA9 C9JAH6 Q6AI62 Q6NVZ0 Q9UHW4

> <UniProt (SwissProt) Alternative ID(s) of Target Chain>


> <UniProt (TrEMBL) Submitted Name of Target Chain>


> <UniProt (TrEMBL) Entry Name of Target Chain>


> <UniProt (TrEMBL) Primary ID of Target Chain>


> <UniProt (TrEMBL) Secondary ID(s) of Target Chain>


> <UniProt (TrEMBL) Alternative ID(s) of Target Chain>


$$$$
 
  Mrv0541 11231401562D          

 19 21  0  0  0  0            999 V2000
    0.8646  -22.9723    0.0000 C   0  0  0  0  0  0  0  0  0  0  0  0
    1.6916  -22.9723    0.0000 C   0  0  0  0  0  0  0  0  0  0  0  0
    2.1028  -22.2600    0.0000 C   0  0  0  0  0  0  0  0  0  0  0  0
    1.6916  -21.5432    0.0000 N   0  0  0  0  0  0  0  0  0  0  0  0
    0.8646  -21.5432    0.0000 C   0  0  0  0  0  0  0  0  0  0  0  0
    0.4488  -22.2600    0.0000 C   0  0  0  0  0  0  0  0  0  0  0  0
   -0.3797  -22.2649    0.0000 N   0  0  0  0  0  0  0  0  0  0  0  0
   -0.8667  -21.5966    0.0000 C   0  0  0  0  0  0  0  0  0  0  0  0
   -0.8649  -22.9346    0.0000 C   0  0  0  0  0  0  0  0  0  0  0  0
   -1.6518  -22.6803    0.0000 C   0  0  0  0  0  0  0  0  0  0  0  0
   -1.6493  -21.8553    0.0000 C   0  0  0  0  0  0  0  0  0  0  0  0
   -2.3613  -21.4425    0.0000 C   0  0  0  0  0  0  0  0  0  0  0  0
   -3.0763  -21.8535    0.0000 C   0  0  0  0  0  0  0  0  0  0  0  0
   -3.0748  -22.6816    0.0000 C   0  0  0  0  0  0  0  0  0  0  0  0
   -2.3622  -23.0907    0.0000 C   0  0  0  0  0  0  0  0  0  0  0  0
   -0.6138  -20.8092    0.0000 O   0  0  0  0  0  0  0  0  0  0  0  0
   -0.6082  -23.7207    0.0000 O   0  0  0  0  0  0  0  0  0  0  0  0
    0.4518  -20.8266    0.0000 O   0  0  0  0  0  0  0  0  0  0  0  0
    2.9298  -22.2612    0.0000 O   0  0  0  0  0  0  0  0  0  0  0  0
  9  7  1  0  0  0  0
  6  7  1  0  0  0  0
  2  3  1  0  0  0  0
  3  4  1  0  0  0  0
 10 11  2  0  0  0  0
  4  5  1  0  0  0  0
 11 12  1  0  0  0  0
  5  6  1  0  0  0  0
 12 13  2  0  0  0  0
  7  8  1  0  0  0  0
 13 14  1  0  0  0  0
 14 15  2  0  0  0  0
 15 10  1  0  0  0  0
  1  2  1  0  0  0  0
  8 16  2  0  0  0  0
  1  6  1  0  0  0  0
  9 17  2  0  0  0  0
  8 11  1  0  0  0  0
  5 18  2  0  0  0  0
 10  9  1  0  0  0  0
  3 19  2  0  0  0  0
M  END
> <From>
www.bindingDB.org

> <BindingDB Reactant_set_id>
51359686

> <Ligand InChI>
InChI=1S/C13H10N2O4/c16-10-6-5-9(11(17)14-10)15-12(18)7-3-1-2-4-8(7)13(15)19/h1-4,9H,5-6H2,(H,14,16,17)

> <Ligand InChI Key>
UEJJHQNACJXSKW-UHFFFAOYSA-N

> <BindingDB MonomerID>
50070114

> <BindingDB Ligand Name>
(+/-)-thalidomide::2-(2,6-Dioxo-piperidin-3-yl)-isoindole-1,3-dione::2-(2,6-dioxopiperidin-3-yl)isoindoline-1,3-dione::CHEMBL468::K-17::THALIDOMIDE::Thalomid::US11059801, Compound D-62::[(R,S)-2-(2,6-dioxo-3-piperidinyl)-1H-isoindole-1,3(2H)-dione

> <Target Name>
Protein cereblon

> <Target Source Organism According to Curator or DataSource>
Human

> <Ki (nM)>
 8510

> <IC50 (nM)>


> <Kd (nM)>


> <EC50 (nM)>


> <kon (M-1-s-1)>


> <koff (s-1)>


> <pH>


> <Temp C>


> <Curation/DataSource>
ChEMBL

> <Article DOI>
10.1021/acsmedchemlett.0c00440

> <BindingDB Entry DOI>
10.7270/Q2WM1J1B

> <PMID>
33488967

> <PubChem AID>


> <Patent Number>


> <Authors>
Maiwald, S; Heim, C; Hernandez Alvarez, B; Hartmann, MD

> <Date of publication>
1/14/2021

> <Date in BindingDB>
3/23/2022

> <Institution>
Max Planck Institute for Developmental Biology

> <Link to Ligand in BindingDB>
http://www.bindingdb.org/bind/chemsearch/marvin/MolStructure.jsp?monomerid=50070114

> <Link to Ligand-Target Pair in BindingDB>
http://www.bindingdb.org/jsp/dbsearch/PrimarySearch_ki.jsp?energyterm=kJ/mole&tag=pol&polymerid=50007050&target=Protein+cereblon&column=ki&startPg=0&Increment=50&submit=Search

> <Link to Ligand-Target Pair in BindingDB>
http://www.bindingdb.org/jsp/dbsearch/PrimarySearch_ki.jsp?energyterm=kJ/mole&tag=r21&monomerid=50070114&enzyme=Protein+cereblon&column=ki&startPg=0&Increment=50&submit=Search

> <Ligand HET ID in PDB>
EF2

> <PDB ID(s) for Ligand-Target Complex>
4CI1,8BC7,5AMI,5AMH,7BQU,5YIZ,7PSO,4V32,4V2Y,5OH1,5AMK,5AMJ,6R13,6R12,6R19,6R18,6R1C,6R1A,6R1W,6R0U,6R0S,5YJ0,4TZC

> <PubChem CID of Ligand>
5426

> <PubChem SID of Ligand>
103964042

> <ChEBI ID of Ligand>
74947

> <ChEMBL ID of Ligand>
CHEMBL468

> <DrugBank ID of Ligand>
DB01041

> <IUPHAR_GRAC ID of Ligand>
7327

> <KEGG ID of Ligand>
C07910

> <ZINC ID of Ligand>
ZINC01530948

> <Number of Protein Chains in Target (bigger than 1 implies a multichain complex)>
1

> <BindingDB Target Chain Sequence>
MAGEGDQQDAAHNMGNHLPLLPAESEEEDEMEVEDQDSKEAKKPNIINFDTSLPTSHTYLGADMEEFHGRTLHDDDSCQVIPVLPQVMMILIPGQTLPLQLFHPQEVSMVRNLIQKDRTFAVLAYSNVQEREAQFGTTAEIYAYREEQDFGIEIVKVKAIGRQRFKVLELRTQSDGIQQAKVQILPECVLPSTMSAVQLESLNKCQIFPSKPVSREDQCSYKWWQKYQKRKFHCANLTSWPRWLYSLYDAETLMDRIKKQLREWDENLKDDSLPSNPIDFSYRVAACLPIDDVLRIQLLKIGSAIQRLRCELDIMNKCTSLCCKQCQETEITTKNEIFSLSLCGPMAAYVNPHGYVHETLTVYKACNLNLIGRPSTEHSWFPGYAWTVAQCKICASHIGWKFTATKKDMSPQKFWGLTRSALLPTIPDTEDEISPDKVILCL

> <PDB ID(s) of Target Chain>
4TZ4,5HXB,5V3O,6UML,6XK9,7LPS,7U8F,8CVP,8D7U,8D7V,8D7W,8D7X,8D7Y,8D7Z,8D80,8D81,8DEY,8OIZ,8OJH

> <UniProt (SwissProt) Recommended Name of Target Chain>
Protein cereblon

> <UniProt (SwissProt) Entry Name of Target Chain>
CRBN_HUMAN

> <UniProt (SwissProt) Primary ID of Target Chain>
Q96SW2

> <UniProt (SwissProt) Secondary ID(s) of Target Chain>
B2R6H4 C9IZA9 C9JAH6 Q6AI62 Q6NVZ0 Q9UHW4

> <UniProt (SwissProt) Alternative ID(s) of Target Chain>


> <UniProt (TrEMBL) Submitted Name of Target Chain>


> <UniProt (TrEMBL) Entry Name of Target Chain>


> <UniProt (TrEMBL) Primary ID of Target Chain>


> <UniProt (TrEMBL) Secondary ID(s) of Target Chain>


> <UniProt (TrEMBL) Alternative ID(s) of Target Chain>


$$$$

     RDKit          2D

 19 21  0  0  0  0  0  0  0  0999 V2000
    1.7849    5.4933    0.0000 O   0  0  0  0  0  0  0  0  0  0  0  0
    1.3213    4.0667    0.0000 C   0  0  0  0  0  0  0  0  0  0  0  0
    2.3250    2.9520    0.0000 C   0  0  0  0  0  0  0  0  0  0  0  0
    1.8615    1.5254    0.0000 C   0  0  0  0  0  0  0  0  0  0  0  0
    0.3943    1.2135    0.0000 C   0  0  0  0  0  0  0  0  0  0  0  0
    1.2760    0.0000    0.0000 C   0  0  0  0  0  0  0  0  0  0  0  0
    0.3943   -1.2135    0.0000 C   0  0  0  0  0  0  0  0  0  0  0  0
    0.8578   -2.6401    0.0000 C   0  0  0  0  0  0  0  0  0  0  0  0
   -0.1459   -3.7548    0.0000 C   0  0  0  0  0  0  0  0  0  0  0  0
    0.3177   -5.1814    0.0000 C   0  0  0  0  0  0  0  0  0  0  0  0
    1.7849   -5.4933    0.0000 C   0  0  0  0  0  0  0  0  0  0  0  0
    2.7886   -4.3786    0.0000 C   0  0  0  0  0  0  0  0  0  0  0  0
    2.3250   -2.9520    0.0000 C   0  0  0  0  0  0  0  0  0  0  0  0
    3.3287   -1.8373    0.0000 Br  0  0  0  0  0  0  0  0  0  0  0  0
   -1.0323   -0.7500    0.0000 N   0  0  0  0  0  0  0  0  0  0  0  0
   -1.0323    0.7500    0.0000 O   0  0  0  0  0  0  0  0  0  0  0  0
   -0.6094    2.3282    0.0000 C   0  0  0  0  0  0  0  0  0  0  0  0
   -2.0766    2.0164    0.0000 O   0  0  0  0  0  0  0  0  0  0  0  0
   -0.1459    3.7548    0.0000 N   0  0  0  0  0  0  0  0  0  0  0  0
  1  2  2  0
  2  3  1  0
  3  4  1  0
  4  5  1  0
  5  6  1  0
  6  7  1  0
  7  8  1  0
  8  9  2  0
  9 10  1  0
 10 11  2  0
 11 12  1  0
 12 13  2  0
 13 14  1  0
  7 15  2  0
 15 16  1  0
  5 17  1  0
 17 18  2  0
 17 19  1  0
 19  2  1  0
 16  5  1  0
 13  8  1  0
M  END
> <From>
www.bindingDB.org

> <BindingDB Reactant_set_id>
51588684

> <Ligand InChI>
InChI=1S/C13H11BrN2O3/c14-9-4-2-1-3-8(9)10-7-13(19-16-10)6-5-11(17)15-12(13)18/h1-4H,5-7H2,(H,15,17,18)

> <Ligand InChI Key>
YGMVWDDVTSQRLI-UHFFFAOYSA-N

> <BindingDB MonomerID>
50639641

> <BindingDB Ligand Name>
CHEMBL5555248

> <Target Name>
Protein cereblon

> <Target Source Organism According to Curator or DataSource>
Human

> <Ki (nM)>
 8800

> <IC50 (nM)>


> <Kd (nM)>


> <EC50 (nM)>


> <kon (M-1-s-1)>


> <koff (s-1)>


> <pH>


> <Temp C>


> <Curation/DataSource>
ChEMBL

> <Article DOI>


> <BindingDB Entry DOI>
10.7270/Q2PC3713

> <PMID>
38552426

> <PubChem AID>


> <Patent Number>


> <Authors>
Shevalev, R; Bischof, L; Sapegin, A; Bunev, A; Olga, G; Kantin, G; Kalinin, S; Hartmann, MD

> <Date of publication>
//0

> <Date in BindingDB>
10/11/2025

> <Institution>
Saint Petersburg State University

> <Link to Ligand in BindingDB>
http://www.bindingdb.org/bind/chemsearch/marvin/MolStructure.jsp?monomerid=50639641

> <Link to Ligand-Target Pair in BindingDB>
http://www.bindingdb.org/rwd/jsp/dbsearch/PrimarySearch_ki.jsp?energyterm=kJ/mole&tag=pol&polymerid=50007050&target=Protein+cereblon&column=ki&startPg=0&Increment=50&submit=Search

> <Link to Ligand-Target Pair in BindingDB>
http://www.bindingdb.org/rwd/jsp/dbsearch/PrimarySearch_ki.jsp?energyterm=kJ/mole&tag=r21&monomerid=50639641&enzyme=Protein+cereblon&column=ki&startPg=0&Increment=50&submit=Search

> <Ligand HET ID in PDB>


> <PDB ID(s) for Ligand-Target Complex>


> <PubChem CID of Ligand>
177376701

> <PubChem SID of Ligand>
519660044

> <ChEBI ID of Ligand>


> <ChEMBL ID of Ligand>


> <DrugBank ID of Ligand>


> <IUPHAR_GRAC ID of Ligand>


> <KEGG ID of Ligand>


> <ZINC ID of Ligand>


> <Number of Protein Chains in Target (bigger than 1 implies a multichain complex)>
1

> <BindingDB Target Chain Sequence>
MAGEGDQQDAAHNMGNHLPLLPAESEEEDEMEVEDQDSKEAKKPNIINFDTSLPTSHTYLGADMEEFHGRTLHDDDSCQVIPVLPQVMMILIPGQTLPLQLFHPQEVSMVRNLIQKDRTFAVLAYSNVQEREAQFGTTAEIYAYREEQDFGIEIVKVKAIGRQRFKVLELRTQSDGIQQAKVQILPECVLPSTMSAVQLESLNKCQIFPSKPVSREDQCSYKWWQKYQKRKFHCANLTSWPRWLYSLYDAETLMDRIKKQLREWDENLKDDSLPSNPIDFSYRVAACLPIDDVLRIQLLKIGSAIQRLRCELDIMNKCTSLCCKQCQETEITTKNEIFSLSLCGPMAAYVNPHGYVHETLTVYKACNLNLIGRPSTEHSWFPGYAWTVAQCKICASHIGWKFTATKKDMSPQKFWGLTRSALLPTIPDTEDEISPDKVILCL

> <PDB ID(s) of Target Chain>
9DUR,8TNR,8TNQ,8TNP,9DWW,9DWV,9NGT,9NFR,9NFQ,8D81,8D80,8D7Z,8D7Y,8D7X,8D7W,8D7V,8D7U,8CVP,9Q2D,9Q03,9DQD,8UH6,9SAI,9SAF,9H59,9E2U,6BOY,6BNB,6BN9,6BN8,6BN7,9OUL,9Y7D,6XK9,6UML,5V3O,5HXB,9HNE,9D0X,9D0W,7U8F,9FJX,8OJH,8OIZ,7LPS,9SFM,9OTY,4TZ4,9DJX,9DJT,8U17,8U16,8U15,8TZX,8DEY,9CUO,4M91

> <UniProt (SwissProt) Recommended Name of Target Chain>
Protein cereblon

> <UniProt (SwissProt) Entry Name of Target Chain>
CRBN_HUMAN

> <UniProt (SwissProt) Primary ID of Target Chain>
Q96SW2

> <UniProt (SwissProt) Secondary ID(s) of Target Chain>
B2R6H4 C9IZA9 C9JAH6 Q6AI62 Q6NVZ0 Q9UHW4

> <UniProt (SwissProt) Alternative ID(s) of Target Chain>


> <UniProt (TrEMBL) Submitted Name of Target Chain>


> <UniProt (TrEMBL) Entry Name of Target Chain>


> <UniProt (TrEMBL) Primary ID of Target Chain>


> <UniProt (TrEMBL) Secondary ID(s) of Target Chain>


> <UniProt (TrEMBL) Alternative ID(s) of Target Chain>


$$$$
 
     RDKit          2D

 17 18  0  0  0  0  0  0  0  0999 V2000
   -2.4992   -0.2050    0.0000 C   0  0  0  0  0  0  0  0  0  0  0  0
   -1.7848    0.2074    0.0000 C   0  0  0  0  0  0  0  0  0  0  0  0
   -1.0704   -0.2050    0.0000 C   0  0  0  0  0  0  0  0  0  0  0  0
   -1.0704   -1.0300    0.0000 C   0  0  0  0  0  0  0  0  0  0  0  0
   -1.7848   -1.4424    0.0000 N   0  0  0  0  0  0  0  0  0  0  0  0
   -2.4992   -1.0300    0.0000 C   0  0  0  0  0  0  0  0  0  0  0  0
   -3.2134   -1.4423    0.0000 O   0  0  0  0  0  0  0  0  0  0  0  0
   -0.3562   -1.4423    0.0000 O   0  0  0  0  0  0  0  0  0  0  0  0
   -0.3562    0.2073    0.0000 C   0  0  0  0  0  0  0  0  0  0  0  0
    0.3579   -0.2050    0.0000 S   0  0  0  0  0  0  0  0  0  0  0  0
    1.0721    0.2073    0.0000 C   0  0  0  0  0  0  0  0  0  0  0  0
    1.0723    1.0320    0.0000 C   0  0  0  0  0  0  0  0  0  0  0  0
    1.7848    1.4424    0.0000 C   0  0  0  0  0  0  0  0  0  0  0  0
    2.4992    1.0300    0.0000 C   0  0  0  0  0  0  0  0  0  0  0  0
    2.5008    0.2094    0.0000 C   0  0  0  0  0  0  0  0  0  0  0  0
    1.7894   -0.2068    0.0000 C   0  0  0  0  0  0  0  0  0  0  0  0
    3.2134    1.4423    0.0000 F   0  0  0  0  0  0  0  0  0  0  0  0
  1  2  1  0
  3  2  1  0
  4  3  1  0
  5  4  1  0
  1  6  1  0
  6  5  1  0
  6  7  2  0
  4  8  2  0
  3  9  1  0
  9 10  1  0
 10 11  1  0
 12 11  2  0
 13 12  1  0
 14 13  2  0
 15 14  1  0
 16 15  2  0
 11 16  1  0
 14 17  1  0
M  END
> <From>
www.bindingDB.org

> <BindingDB Reactant_set_id>
51553729

> <Ligand InChI>
InChI=1S/C12H12FNO2S/c13-9-2-4-10(5-3-9)17-7-8-1-6-11(15)14-12(8)16/h2-5,8H,1,6-7H2,(H,14,15,16)

> <Ligand InChI Key>
ZAWXLZWSDZNXTL-UHFFFAOYSA-N

> <BindingDB MonomerID>
50625122

> <BindingDB Ligand Name>
CHEMBL5413552

> <Target Name>
Protein cereblon

> <Target Source Organism According to Curator or DataSource>
Homo sapiens

> <Ki (nM)>
 9000

> <IC50 (nM)>


> <Kd (nM)>


> <EC50 (nM)>


> <kon (M-1-s-1)>


> <koff (s-1)>


> <pH>


> <Temp C>


> <Curation/DataSource>
ChEMBL

> <Article DOI>
10.1016/j.ejmech.2022.114990

> <BindingDB Entry DOI>
10.7270/Q2F1944V

> <PMID>
36476642

> <PubChem AID>


> <Patent Number>


> <Authors>
n/a

> <Date of publication>
1/15/2023

> <Date in BindingDB>
12/18/2024

> <Institution>
n/a

> <Link to Ligand in BindingDB>
http://www.bindingdb.org/bind/chemsearch/marvin/MolStructure.jsp?monomerid=50625122

> <Link to Ligand-Target Pair in BindingDB>
http://www.bindingdb.org/jsp/dbsearch/PrimarySearch_ki.jsp?energyterm=kJ/mole&tag=pol&polymerid=50007050&target=Protein+cereblon&column=ki&startPg=0&Increment=50&submit=Search

> <Link to Ligand-Target Pair in BindingDB>
http://www.bindingdb.org/jsp/dbsearch/PrimarySearch_ki.jsp?energyterm=kJ/mole&tag=r21&monomerid=50625122&enzyme=Protein+cereblon&column=ki&startPg=0&Increment=50&submit=Search

> <Ligand HET ID in PDB>


> <PDB ID(s) for Ligand-Target Complex>


> <PubChem CID>


> <PubChem SID>


> <ChEBI ID of Ligand>


> <ChEMBL ID of Ligand>


> <DrugBank ID of Ligand>


> <IUPHAR_GRAC ID of Ligand>


> <KEGG ID of Ligand>


> <ZINC ID of Ligand>


> <Number of Protein Chains in Target (bigger than 1 implies a multichain complex)>
1

> <BindingDB Target Chain Sequence>
MAGEGDQQDAAHNMGNHLPLLPAESEEEDEMEVEDQDSKEAKKPNIINFDTSLPTSHTYLGADMEEFHGRTLHDDDSCQVIPVLPQVMMILIPGQTLPLQLFHPQEVSMVRNLIQKDRTFAVLAYSNVQEREAQFGTTAEIYAYREEQDFGIEIVKVKAIGRQRFKVLELRTQSDGIQQAKVQILPECVLPSTMSAVQLESLNKCQIFPSKPVSREDQCSYKWWQKYQKRKFHCANLTSWPRWLYSLYDAETLMDRIKKQLREWDENLKDDSLPSNPIDFSYRVAACLPIDDVLRIQLLKIGSAIQRLRCELDIMNKCTSLCCKQCQETEITTKNEIFSLSLCGPMAAYVNPHGYVHETLTVYKACNLNLIGRPSTEHSWFPGYAWTVAQCKICASHIGWKFTATKKDMSPQKFWGLTRSALLPTIPDTEDEISPDKVILCL

> <PDB ID(s) of Target Chain>
8TNR,8TNQ,8TNP,8D81,8D80,8D7Z,8D7Y,8D7X,8D7W,8D7V,8D7U,8CVP,9DQD,8UH6,6BOY,6BNB,6BN9,6BN8,6BN7,6XK9,6UML,5V3O,5HXB,7U8F,8OJH,8OIZ,7LPS,4TZ4,9DJX,9DJT,8U17,8U16,8U15,8TZX,8DEY,9CUO,4M91

> <UniProt (SwissProt) Recommended Name of Target Chain>
Protein cereblon

> <UniProt (SwissProt) Entry Name of Target Chain>
CRBN_HUMAN

> <UniProt (SwissProt) Primary ID of Target Chain>
Q96SW2

> <UniProt (SwissProt) Secondary ID(s) of Target Chain>
B2R6H4 C9IZA9 C9JAH6 Q6AI62 Q6NVZ0 Q9UHW4

> <UniProt (SwissProt) Alternative ID(s) of Target Chain>


> <UniProt (TrEMBL) Submitted Name of Target Chain>


> <UniProt (TrEMBL) Entry Name of Target Chain>


> <UniProt (TrEMBL) Primary ID of Target Chain>


> <UniProt (TrEMBL) Secondary ID(s) of Target Chain>


> <UniProt (TrEMBL) Alternative ID(s) of Target Chain>


$$$$
134780
  Mrv0541 01031813182D          

 20 22  0  0  1  0            999 V2000
    5.1662   -1.6578    0.0000 O   0  0  0  0  0  0  0  0  0  0  0  0
    4.1159    1.2193    0.0000 O   0  0  0  0  0  0  0  0  0  0  0  0
    4.1159   -1.6769    0.0000 O   0  0  0  0  0  0  0  0  0  0  0  0
    7.6412   -0.2289    0.0000 O   0  0  0  0  0  0  0  0  0  0  0  0
    4.3412   -0.2289    0.0000 N   0  0  0  0  0  0  0  0  0  0  0  0
    6.4037   -0.9433    0.0000 N   0  0  0  0  0  0  0  0  0  0  0  0
    2.3645    1.4212    0.0000 N   0  0  0  0  0  0  0  0  0  0  0  0
    5.1662   -0.2289    0.0000 C   0  0  0  0  0  0  0  0  0  0  0  0
    5.5787    0.4857    0.0000 C   0  0  0  0  0  0  0  0  0  0  0  0
    6.4037    0.4857    0.0000 C   0  0  0  0  0  0  0  0  0  0  0  0
    5.5787   -0.9433    0.0000 C   0  0  0  0  0  0  0  0  0  0  0  0
    3.8597    0.4351    0.0000 C   0  0  0  0  0  0  0  0  0  0  0  0
    3.8597   -0.8928    0.0000 C   0  0  0  0  0  0  0  0  0  0  0  0
    3.0790    0.1836    0.0000 C   0  0  0  0  0  0  0  0  0  0  0  0
    3.0790   -0.6414    0.0000 C   0  0  0  0  0  0  0  0  0  0  0  0
    6.8162   -0.2289    0.0000 C   0  0  0  0  0  0  0  0  0  0  0  0
    2.3645    0.5962    0.0000 C   0  0  0  0  0  0  0  0  0  0  0  0
    2.3645   -1.0539    0.0000 C   0  0  0  0  0  0  0  0  0  0  0  0
    1.6500    0.1836    0.0000 C   0  0  0  0  0  0  0  0  0  0  0  0
    1.6500   -0.6414    0.0000 C   0  0  0  0  0  0  0  0  0  0  0  0
  1 11  2  0  0  0  0
  2 12  2  0  0  0  0
  3 13  2  0  0  0  0
  4 16  2  0  0  0  0
  5  8  1  0  0  0  0
  5 12  1  0  0  0  0
  5 13  1  0  0  0  0
  6 11  1  0  0  0  0
  6 16  1  0  0  0  0
  7 17  1  0  0  0  0
  8  9  1  0  0  0  0
  8 11  1  0  0  0  0
  9 10  1  0  0  0  0
 10 16  1  0  0  0  0
 12 14  1  0  0  0  0
 13 15  1  0  0  0  0
 14 15  4  0  0  0  0
 14 17  4  0  0  0  0
 15 18  4  0  0  0  0
 17 19  4  0  0  0  0
 18 20  4  0  0  0  0
 19 20  4  0  0  0  0
M  END
> <From>
www.bindingDB.org

> <BindingDB Reactant_set_id>
51359708

> <Ligand InChI>
InChI=1S/C13H11N3O4/c14-7-3-1-2-6-10(7)13(20)16(12(6)19)8-4-5-9(17)15-11(8)18/h1-3,8H,4-5,14H2,(H,15,17,18)

> <Ligand InChI Key>
UVSMNLNDYGZFPF-UHFFFAOYSA-N

> <BindingDB MonomerID>
65456

> <BindingDB Ligand Name>
19171-19-8::4-amino-2-(2,6-dioxopiperidin-3-yl)isoindoline-1,3-dione::Actimid::CC-4047::Pomalyst::US11059801, Compound D-4::US9694015, 6.2::pomalidomide

> <Target Name>
Protein cereblon

> <Target Source Organism According to Curator or DataSource>
Human

> <Ki (nM)>
 10000

> <IC50 (nM)>


> <Kd (nM)>


> <EC50 (nM)>


> <kon (M-1-s-1)>


> <koff (s-1)>


> <pH>


> <Temp C>


> <Curation/DataSource>
ChEMBL

> <Article DOI>
10.1021/acsmedchemlett.0c00440

> <BindingDB Entry DOI>
10.7270/Q2WM1J1B

> <PMID>
33488967

> <PubChem AID>


> <Patent Number>


> <Authors>
Maiwald, S; Heim, C; Hernandez Alvarez, B; Hartmann, MD

> <Date of publication>
1/14/2021

> <Date in BindingDB>
3/23/2022

> <Institution>
Max Planck Institute for Developmental Biology

> <Link to Ligand in BindingDB>
http://www.bindingdb.org/bind/chemsearch/marvin/MolStructure.jsp?monomerid=65456

> <Link to Ligand-Target Pair in BindingDB>
http://www.bindingdb.org/jsp/dbsearch/PrimarySearch_ki.jsp?energyterm=kJ/mole&tag=pol&polymerid=50007050&target=Protein+cereblon&column=ki&startPg=0&Increment=50&submit=Search

> <Link to Ligand-Target Pair in BindingDB>
http://www.bindingdb.org/jsp/dbsearch/PrimarySearch_ki.jsp?energyterm=kJ/mole&tag=r21&monomerid=65456&enzyme=Protein+cereblon&column=ki&startPg=0&Increment=50&submit=Search

> <Ligand HET ID in PDB>
Y70

> <PDB ID(s) for Ligand-Target Complex>
7SZA

> <PubChem CID of Ligand>
134780

> <PubChem SID of Ligand>
350083086

> <ChEBI ID of Ligand>


> <ChEMBL ID of Ligand>


> <DrugBank ID of Ligand>
DB08910

> <IUPHAR_GRAC ID of Ligand>


> <KEGG ID of Ligand>


> <ZINC ID of Ligand>
ZINC15953204

> <Number of Protein Chains in Target (bigger than 1 implies a multichain complex)>
1

> <BindingDB Target Chain Sequence>
MAGEGDQQDAAHNMGNHLPLLPAESEEEDEMEVEDQDSKEAKKPNIINFDTSLPTSHTYLGADMEEFHGRTLHDDDSCQVIPVLPQVMMILIPGQTLPLQLFHPQEVSMVRNLIQKDRTFAVLAYSNVQEREAQFGTTAEIYAYREEQDFGIEIVKVKAIGRQRFKVLELRTQSDGIQQAKVQILPECVLPSTMSAVQLESLNKCQIFPSKPVSREDQCSYKWWQKYQKRKFHCANLTSWPRWLYSLYDAETLMDRIKKQLREWDENLKDDSLPSNPIDFSYRVAACLPIDDVLRIQLLKIGSAIQRLRCELDIMNKCTSLCCKQCQETEITTKNEIFSLSLCGPMAAYVNPHGYVHETLTVYKACNLNLIGRPSTEHSWFPGYAWTVAQCKICASHIGWKFTATKKDMSPQKFWGLTRSALLPTIPDTEDEISPDKVILCL

> <PDB ID(s) of Target Chain>
4TZ4,5HXB,5V3O,6UML,6XK9,7LPS,7U8F,8CVP,8D7U,8D7V,8D7W,8D7X,8D7Y,8D7Z,8D80,8D81,8DEY,8OIZ,8OJH

> <UniProt (SwissProt) Recommended Name of Target Chain>
Protein cereblon

> <UniProt (SwissProt) Entry Name of Target Chain>
CRBN_HUMAN

> <UniProt (SwissProt) Primary ID of Target Chain>
Q96SW2

> <UniProt (SwissProt) Secondary ID(s) of Target Chain>
B2R6H4 C9IZA9 C9JAH6 Q6AI62 Q6NVZ0 Q9UHW4

> <UniProt (SwissProt) Alternative ID(s) of Target Chain>


> <UniProt (TrEMBL) Submitted Name of Target Chain>


> <UniProt (TrEMBL) Entry Name of Target Chain>


> <UniProt (TrEMBL) Primary ID of Target Chain>


> <UniProt (TrEMBL) Secondary ID(s) of Target Chain>


> <UniProt (TrEMBL) Alternative ID(s) of Target Chain>


$$$$
 
     RDKit          2D

 19 20  0  0  0  0  0  0  0  0999 V2000
   -2.4995   -0.2050    0.0000 C   0  0  0  0  0  0  0  0  0  0  0  0
   -1.7850    0.2074    0.0000 C   0  0  0  0  0  0  0  0  0  0  0  0
   -1.0705   -0.2050    0.0000 C   0  0  0  0  0  0  0  0  0  0  0  0
   -1.0705   -1.0301    0.0000 C   0  0  0  0  0  0  0  0  0  0  0  0
   -1.7850   -1.4426    0.0000 N   0  0  0  0  0  0  0  0  0  0  0  0
   -2.4995   -1.0301    0.0000 C   0  0  0  0  0  0  0  0  0  0  0  0
   -3.2138   -1.4425    0.0000 O   0  0  0  0  0  0  0  0  0  0  0  0
   -0.3562   -1.4425    0.0000 O   0  0  0  0  0  0  0  0  0  0  0  0
   -0.3562    0.2072    0.0000 C   0  0  0  0  0  0  0  0  0  0  0  0
    0.3580   -0.2050    0.0000 S   0  0  0  0  0  0  0  0  0  0  0  0
    1.0722    0.2072    0.0000 C   0  0  0  0  0  0  0  0  0  0  0  0
    1.0725    1.0321    0.0000 C   0  0  0  0  0  0  0  0  0  0  0  0
    1.7850    1.4426    0.0000 C   0  0  0  0  0  0  0  0  0  0  0  0
    2.4995    1.0301    0.0000 C   0  0  0  0  0  0  0  0  0  0  0  0
    2.5011    0.2094    0.0000 C   0  0  0  0  0  0  0  0  0  0  0  0
    1.7896   -0.2068    0.0000 C   0  0  0  0  0  0  0  0  0  0  0  0
   -0.0551   -0.9206    0.0000 O   0  0  0  0  0  0  0  0  0  0  0  0
    0.7695   -0.9206    0.0000 O   0  0  0  0  0  0  0  0  0  0  0  0
    3.2138    1.4425    0.0000 C   0  0  0  0  0  0  0  0  0  0  0  0
  1  2  1  0
  3  2  1  0
  4  3  1  0
  5  4  1  0
  6  5  1  0
  1  6  1  0
  6  7  2  0
  4  8  2  0
  3  9  1  0
  9 10  1  0
 10 11  1  0
 12 11  2  0
 13 12  1  0
 14 13  2  0
 15 14  1  0
 16 15  2  0
 11 16  1  0
 10 17  2  0
 10 18  2  0
 14 19  1  0
M  END
> <From>
www.bindingDB.org

> <BindingDB Reactant_set_id>
51553751

> <Ligand InChI>
InChI=1S/C13H15NO4S/c1-9-2-5-11(6-3-9)19(17,18)8-10-4-7-12(15)14-13(10)16/h2-3,5-6,10H,4,7-8H2,1H3,(H,14,15,16)

> <Ligand InChI Key>
XRWKXCWLWRLPQL-UHFFFAOYSA-N

> <BindingDB MonomerID>
50625143

> <BindingDB Ligand Name>
CHEMBL5429778

> <Target Name>
Protein cereblon

> <Target Source Organism According to Curator or DataSource>
Homo sapiens

> <Ki (nM)>
 10000

> <IC50 (nM)>


> <Kd (nM)>


> <EC50 (nM)>


> <kon (M-1-s-1)>


> <koff (s-1)>


> <pH>


> <Temp C>


> <Curation/DataSource>
ChEMBL

> <Article DOI>
10.1016/j.ejmech.2022.114990

> <BindingDB Entry DOI>
10.7270/Q2F1944V

> <PMID>
36476642

> <PubChem AID>


> <Patent Number>


> <Authors>
n/a

> <Date of publication>
1/15/2023

> <Date in BindingDB>
12/18/2024

> <Institution>
n/a

> <Link to Ligand in BindingDB>
http://www.bindingdb.org/bind/chemsearch/marvin/MolStructure.jsp?monomerid=50625143

> <Link to Ligand-Target Pair in BindingDB>
http://www.bindingdb.org/jsp/dbsearch/PrimarySearch_ki.jsp?energyterm=kJ/mole&tag=pol&polymerid=50007050&target=Protein+cereblon&column=ki&startPg=0&Increment=50&submit=Search

> <Link to Ligand-Target Pair in BindingDB>
http://www.bindingdb.org/jsp/dbsearch/PrimarySearch_ki.jsp?energyterm=kJ/mole&tag=r21&monomerid=50625143&enzyme=Protein+cereblon&column=ki&startPg=0&Increment=50&submit=Search

> <Ligand HET ID in PDB>


> <PDB ID(s) for Ligand-Target Complex>


> <PubChem CID>


> <PubChem SID>


> <ChEBI ID of Ligand>


> <ChEMBL ID of Ligand>


> <DrugBank ID of Ligand>


> <IUPHAR_GRAC ID of Ligand>


> <KEGG ID of Ligand>


> <ZINC ID of Ligand>


> <Number of Protein Chains in Target (bigger than 1 implies a multichain complex)>
1

> <BindingDB Target Chain Sequence>
MAGEGDQQDAAHNMGNHLPLLPAESEEEDEMEVEDQDSKEAKKPNIINFDTSLPTSHTYLGADMEEFHGRTLHDDDSCQVIPVLPQVMMILIPGQTLPLQLFHPQEVSMVRNLIQKDRTFAVLAYSNVQEREAQFGTTAEIYAYREEQDFGIEIVKVKAIGRQRFKVLELRTQSDGIQQAKVQILPECVLPSTMSAVQLESLNKCQIFPSKPVSREDQCSYKWWQKYQKRKFHCANLTSWPRWLYSLYDAETLMDRIKKQLREWDENLKDDSLPSNPIDFSYRVAACLPIDDVLRIQLLKIGSAIQRLRCELDIMNKCTSLCCKQCQETEITTKNEIFSLSLCGPMAAYVNPHGYVHETLTVYKACNLNLIGRPSTEHSWFPGYAWTVAQCKICASHIGWKFTATKKDMSPQKFWGLTRSALLPTIPDTEDEISPDKVILCL

> <PDB ID(s) of Target Chain>
8TNR,8TNQ,8TNP,8D81,8D80,8D7Z,8D7Y,8D7X,8D7W,8D7V,8D7U,8CVP,9DQD,8UH6,6BOY,6BNB,6BN9,6BN8,6BN7,6XK9,6UML,5V3O,5HXB,7U8F,8OJH,8OIZ,7LPS,4TZ4,9DJX,9DJT,8U17,8U16,8U15,8TZX,8DEY,9CUO,4M91

> <UniProt (SwissProt) Recommended Name of Target Chain>
Protein cereblon

> <UniProt (SwissProt) Entry Name of Target Chain>
CRBN_HUMAN

> <UniProt (SwissProt) Primary ID of Target Chain>
Q96SW2

> <UniProt (SwissProt) Secondary ID(s) of Target Chain>
B2R6H4 C9IZA9 C9JAH6 Q6AI62 Q6NVZ0 Q9UHW4

> <UniProt (SwissProt) Alternative ID(s) of Target Chain>


> <UniProt (TrEMBL) Submitted Name of Target Chain>


> <UniProt (TrEMBL) Entry Name of Target Chain>


> <UniProt (TrEMBL) Primary ID of Target Chain>


> <UniProt (TrEMBL) Secondary ID(s) of Target Chain>


> <UniProt (TrEMBL) Alternative ID(s) of Target Chain>


$$$$
 
     RDKit          2D

 20 21  0  0  0  0  0  0  0  0999 V2000
   -1.7852    0.2074    0.0000 C   0  0  0  0  0  0  0  0  0  0  0  0
   -2.4998   -0.2048    0.0000 C   0  0  0  0  0  0  0  0  0  0  0  0
   -2.4998   -1.0333    0.0000 C   0  0  0  0  0  0  0  0  0  0  0  0
   -1.7834   -1.4414    0.0000 C   0  0  0  0  0  0  0  0  0  0  0  0
   -1.0733   -1.0296    0.0000 C   0  0  0  0  0  0  0  0  0  0  0  0
   -1.0733   -0.2044    0.0000 C   0  0  0  0  0  0  0  0  0  0  0  0
   -0.3587    0.2081    0.0000 C   0  0  0  0  0  0  0  0  0  0  0  0
   -0.3587    1.0333    0.0000 O   0  0  0  0  0  0  0  0  0  0  0  0
    0.3558   -0.2044    0.0000 N   0  0  0  0  0  0  0  0  0  0  0  0
    1.0705    0.2081    0.0000 C   0  0  0  0  0  0  0  0  0  0  0  0
    1.0705    1.0333    0.0000 C   0  0  0  0  0  0  0  0  0  0  0  0
    1.7851    1.4459    0.0000 C   0  0  0  0  0  0  0  0  0  0  0  0
    2.4998    1.0333    0.0000 C   0  0  0  0  0  0  0  0  0  0  0  0
    2.4998    0.2081    0.0000 N   0  0  0  0  0  0  0  0  0  0  0  0
    1.7851   -0.2044    0.0000 C   0  0  0  0  0  0  0  0  0  0  0  0
    1.7851   -1.0296    0.0000 O   0  0  0  0  0  0  0  0  0  0  0  0
    3.2144    1.4459    0.0000 O   0  0  0  0  0  0  0  0  0  0  0  0
   -0.3587   -1.4422    0.0000 O   0  0  0  0  0  0  0  0  0  0  0  0
   -3.2144   -1.4459    0.0000 N   0  0  0  0  0  0  0  0  0  0  0  0
    0.3558   -1.0296    0.0000 C   0  0  0  0  0  0  0  0  0  0  0  0
  1  2  2  0
  2  3  1  0
  4  3  2  0
  5  4  1  0
  6  5  2  0
  1  6  1  0
  6  7  1  0
  7  8  2  0
  7  9  1  0
  9 10  1  0
 10 11  1  0
 11 12  1  0
 12 13  1  0
 13 14  1  0
 14 15  1  0
 10 15  1  0
 15 16  2  0
 13 17  2  0
  5 18  1  0
  3 19  1  0
 18 20  1  0
M  END
> <From>
www.bindingDB.org

> <BindingDB Reactant_set_id>
51567945

> <Ligand InChI>
InChI=1S/C13H15N3O4/c1-20-10-6-7(14)2-3-8(10)12(18)15-9-4-5-11(17)16-13(9)19/h2-3,6,9H,4-5,14H2,1H3,(H,15,18)(H,16,17,19)

> <Ligand InChI Key>
SLGDHJMSLPDYEO-UHFFFAOYSA-N

> <BindingDB MonomerID>
50630599

> <BindingDB Ligand Name>
CHEMBL5405986

> <Target Name>
Protein cereblon

> <Target Source Organism According to Curator or DataSource>
Homo sapiens

> <Ki (nM)>
 11000

> <IC50 (nM)>


> <Kd (nM)>


> <EC50 (nM)>


> <kon (M-1-s-1)>


> <koff (s-1)>


> <pH>


> <Temp C>


> <Curation/DataSource>
ChEMBL

> <Article DOI>
10.1021/acs.jmedchem.3c00851

> <BindingDB Entry DOI>
10.7270/Q2PK0MM6

> <PMID>
37902300

> <PubChem AID>


> <Patent Number>


> <Authors>
Steinebach, C; Bricelj, A; Murgai, A; Sosič, I; Bischof, L; Ng, YLD; Heim, C; Maiwald, S; Proj, M; Voget, R; Feller, F; Košmrlj, J; Sapozhnikova, V; Schmidt, A; Zuleeg, MR; Lemnitzer, P; Mertins, P; Hansen, FK; Gütschow, M; Krönke, J; Hartmann, MD

> <Date of publication>
11/9/2023

> <Date in BindingDB>
12/20/2024

> <Institution>
University of Bonn

> <Link to Ligand in BindingDB>
http://www.bindingdb.org/bind/chemsearch/marvin/MolStructure.jsp?monomerid=50630599

> <Link to Ligand-Target Pair in BindingDB>
http://www.bindingdb.org/jsp/dbsearch/PrimarySearch_ki.jsp?energyterm=kJ/mole&tag=pol&polymerid=50007050&target=Protein+cereblon&column=ki&startPg=0&Increment=50&submit=Search

> <Link to Ligand-Target Pair in BindingDB>
http://www.bindingdb.org/jsp/dbsearch/PrimarySearch_ki.jsp?energyterm=kJ/mole&tag=r21&monomerid=50630599&enzyme=Protein+cereblon&column=ki&startPg=0&Increment=50&submit=Search

> <Ligand HET ID in PDB>
W1F    

> <PDB ID(s) for Ligand-Target Complex>
8OU7

> <PubChem CID of Ligand>
81678735

> <PubChem SID of Ligand>
505048570

> <ChEBI ID of Ligand>


> <ChEMBL ID of Ligand>


> <DrugBank ID of Ligand>


> <IUPHAR_GRAC ID of Ligand>


> <KEGG ID of Ligand>


> <ZINC ID of Ligand>


> <Number of Protein Chains in Target (bigger than 1 implies a multichain complex)>
1

> <BindingDB Target Chain Sequence>
MAGEGDQQDAAHNMGNHLPLLPAESEEEDEMEVEDQDSKEAKKPNIINFDTSLPTSHTYLGADMEEFHGRTLHDDDSCQVIPVLPQVMMILIPGQTLPLQLFHPQEVSMVRNLIQKDRTFAVLAYSNVQEREAQFGTTAEIYAYREEQDFGIEIVKVKAIGRQRFKVLELRTQSDGIQQAKVQILPECVLPSTMSAVQLESLNKCQIFPSKPVSREDQCSYKWWQKYQKRKFHCANLTSWPRWLYSLYDAETLMDRIKKQLREWDENLKDDSLPSNPIDFSYRVAACLPIDDVLRIQLLKIGSAIQRLRCELDIMNKCTSLCCKQCQETEITTKNEIFSLSLCGPMAAYVNPHGYVHETLTVYKACNLNLIGRPSTEHSWFPGYAWTVAQCKICASHIGWKFTATKKDMSPQKFWGLTRSALLPTIPDTEDEISPDKVILCL

> <PDB ID(s) of Target Chain>
8TNR,8TNQ,8TNP,8D81,8D80,8D7Z,8D7Y,8D7X,8D7W,8D7V,8D7U,8CVP,9DQD,8UH6,6BOY,6BNB,6BN9,6BN8,6BN7,6XK9,6UML,5V3O,5HXB,7U8F,8OJH,8OIZ,7LPS,4TZ4,9DJX,9DJT,8U17,8U16,8U15,8TZX,8DEY,9CUO,4M91

> <UniProt (SwissProt) Recommended Name of Target Chain>
Protein cereblon

> <UniProt (SwissProt) Entry Name of Target Chain>
CRBN_HUMAN

> <UniProt (SwissProt) Primary ID of Target Chain>
Q96SW2

> <UniProt (SwissProt) Secondary ID(s) of Target Chain>
B2R6H4 C9IZA9 C9JAH6 Q6AI62 Q6NVZ0 Q9UHW4

> <UniProt (SwissProt) Alternative ID(s) of Target Chain>


> <UniProt (TrEMBL) Submitted Name of Target Chain>


> <UniProt (TrEMBL) Entry Name of Target Chain>


> <UniProt (TrEMBL) Primary ID of Target Chain>


> <UniProt (TrEMBL) Secondary ID(s) of Target Chain>


> <UniProt (TrEMBL) Alternative ID(s) of Target Chain>


$$$$

     RDKit          2D

 19 21  0  0  0  0  0  0  0  0999 V2000
    1.7849    5.4933    0.0000 O   0  0  0  0  0  0  0  0  0  0  0  0
    1.3213    4.0667    0.0000 C   0  0  0  0  0  0  0  0  0  0  0  0
    2.3250    2.9520    0.0000 C   0  0  0  0  0  0  0  0  0  0  0  0
    1.8615    1.5254    0.0000 C   0  0  0  0  0  0  0  0  0  0  0  0
    0.3943    1.2135    0.0000 C   0  0  0  0  0  0  0  0  0  0  0  0
    1.2760    0.0000    0.0000 C   0  0  0  0  0  0  0  0  0  0  0  0
    0.3943   -1.2135    0.0000 C   0  0  0  0  0  0  0  0  0  0  0  0
    0.8578   -2.6401    0.0000 C   0  0  0  0  0  0  0  0  0  0  0  0
   -0.1459   -3.7548    0.0000 C   0  0  0  0  0  0  0  0  0  0  0  0
    0.3177   -5.1814    0.0000 C   0  0  0  0  0  0  0  0  0  0  0  0
    1.7849   -5.4933    0.0000 C   0  0  0  0  0  0  0  0  0  0  0  0
    2.7886   -4.3786    0.0000 C   0  0  0  0  0  0  0  0  0  0  0  0
    2.3250   -2.9520    0.0000 C   0  0  0  0  0  0  0  0  0  0  0  0
    3.3287   -1.8373    0.0000 I   0  0  0  0  0  0  0  0  0  0  0  0
   -1.0323   -0.7500    0.0000 N   0  0  0  0  0  0  0  0  0  0  0  0
   -1.0323    0.7500    0.0000 O   0  0  0  0  0  0  0  0  0  0  0  0
   -0.6094    2.3282    0.0000 C   0  0  0  0  0  0  0  0  0  0  0  0
   -2.0766    2.0164    0.0000 O   0  0  0  0  0  0  0  0  0  0  0  0
   -0.1459    3.7548    0.0000 N   0  0  0  0  0  0  0  0  0  0  0  0
  1  2  2  0
  2  3  1  0
  3  4  1  0
  4  5  1  0
  5  6  1  0
  6  7  1  0
  7  8  1  0
  8  9  2  0
  9 10  1  0
 10 11  2  0
 11 12  1  0
 12 13  2  0
 13 14  1  0
  7 15  2  0
 15 16  1  0
  5 17  1  0
 17 18  2  0
 17 19  1  0
 19  2  1  0
 16  5  1  0
 13  8  1  0
M  END
> <From>
www.bindingDB.org

> <BindingDB Reactant_set_id>
51588685

> <Ligand InChI>
InChI=1S/C13H11IN2O3/c14-9-4-2-1-3-8(9)10-7-13(19-16-10)6-5-11(17)15-12(13)18/h1-4H,5-7H2,(H,15,17,18)

> <Ligand InChI Key>
AYVBSMJNHSEWSA-UHFFFAOYSA-N

> <BindingDB MonomerID>
50639642

> <BindingDB Ligand Name>
CHEMBL5555710

> <Target Name>
Protein cereblon

> <Target Source Organism According to Curator or DataSource>
Human

> <Ki (nM)>
 11300

> <IC50 (nM)>


> <Kd (nM)>


> <EC50 (nM)>


> <kon (M-1-s-1)>


> <koff (s-1)>


> <pH>


> <Temp C>


> <Curation/DataSource>
ChEMBL

> <Article DOI>


> <BindingDB Entry DOI>
10.7270/Q2PC3713

> <PMID>
38552426

> <PubChem AID>


> <Patent Number>


> <Authors>
Shevalev, R; Bischof, L; Sapegin, A; Bunev, A; Olga, G; Kantin, G; Kalinin, S; Hartmann, MD

> <Date of publication>
//0

> <Date in BindingDB>
10/11/2025

> <Institution>
Saint Petersburg State University

> <Link to Ligand in BindingDB>
http://www.bindingdb.org/bind/chemsearch/marvin/MolStructure.jsp?monomerid=50639642

> <Link to Ligand-Target Pair in BindingDB>
http://www.bindingdb.org/rwd/jsp/dbsearch/PrimarySearch_ki.jsp?energyterm=kJ/mole&tag=pol&polymerid=50007050&target=Protein+cereblon&column=ki&startPg=0&Increment=50&submit=Search

> <Link to Ligand-Target Pair in BindingDB>
http://www.bindingdb.org/rwd/jsp/dbsearch/PrimarySearch_ki.jsp?energyterm=kJ/mole&tag=r21&monomerid=50639642&enzyme=Protein+cereblon&column=ki&startPg=0&Increment=50&submit=Search

> <Ligand HET ID in PDB>


> <PDB ID(s) for Ligand-Target Complex>


> <PubChem CID of Ligand>
177376702

> <PubChem SID of Ligand>
519660045

> <ChEBI ID of Ligand>


> <ChEMBL ID of Ligand>


> <DrugBank ID of Ligand>


> <IUPHAR_GRAC ID of Ligand>


> <KEGG ID of Ligand>


> <ZINC ID of Ligand>


> <Number of Protein Chains in Target (bigger than 1 implies a multichain complex)>
1

> <BindingDB Target Chain Sequence>
MAGEGDQQDAAHNMGNHLPLLPAESEEEDEMEVEDQDSKEAKKPNIINFDTSLPTSHTYLGADMEEFHGRTLHDDDSCQVIPVLPQVMMILIPGQTLPLQLFHPQEVSMVRNLIQKDRTFAVLAYSNVQEREAQFGTTAEIYAYREEQDFGIEIVKVKAIGRQRFKVLELRTQSDGIQQAKVQILPECVLPSTMSAVQLESLNKCQIFPSKPVSREDQCSYKWWQKYQKRKFHCANLTSWPRWLYSLYDAETLMDRIKKQLREWDENLKDDSLPSNPIDFSYRVAACLPIDDVLRIQLLKIGSAIQRLRCELDIMNKCTSLCCKQCQETEITTKNEIFSLSLCGPMAAYVNPHGYVHETLTVYKACNLNLIGRPSTEHSWFPGYAWTVAQCKICASHIGWKFTATKKDMSPQKFWGLTRSALLPTIPDTEDEISPDKVILCL

> <PDB ID(s) of Target Chain>
9DUR,8TNR,8TNQ,8TNP,9DWW,9DWV,9NGT,9NFR,9NFQ,8D81,8D80,8D7Z,8D7Y,8D7X,8D7W,8D7V,8D7U,8CVP,9Q2D,9Q03,9DQD,8UH6,9SAI,9SAF,9H59,9E2U,6BOY,6BNB,6BN9,6BN8,6BN7,9OUL,9Y7D,6XK9,6UML,5V3O,5HXB,9HNE,9D0X,9D0W,7U8F,9FJX,8OJH,8OIZ,7LPS,9SFM,9OTY,4TZ4,9DJX,9DJT,8U17,8U16,8U15,8TZX,8DEY,9CUO,4M91

> <UniProt (SwissProt) Recommended Name of Target Chain>
Protein cereblon

> <UniProt (SwissProt) Entry Name of Target Chain>
CRBN_HUMAN

> <UniProt (SwissProt) Primary ID of Target Chain>
Q96SW2

> <UniProt (SwissProt) Secondary ID(s) of Target Chain>
B2R6H4 C9IZA9 C9JAH6 Q6AI62 Q6NVZ0 Q9UHW4

> <UniProt (SwissProt) Alternative ID(s) of Target Chain>


> <UniProt (TrEMBL) Submitted Name of Target Chain>


> <UniProt (TrEMBL) Entry Name of Target Chain>


> <UniProt (TrEMBL) Primary ID of Target Chain>


> <UniProt (TrEMBL) Secondary ID(s) of Target Chain>


> <UniProt (TrEMBL) Alternative ID(s) of Target Chain>


$$$$
 
     RDKit          2D

 19 20  0  0  0  0  0  0  0  0999 V2000
   -2.4994   -0.2059    0.0000 C   0  0  0  0  0  0  0  0  0  0  0  0
   -1.7849    0.2065    0.0000 C   0  0  0  0  0  0  0  0  0  0  0  0
   -1.0705   -0.2059    0.0000 C   0  0  0  0  0  0  0  0  0  0  0  0
   -1.0705   -1.0310    0.0000 C   0  0  0  0  0  0  0  0  0  0  0  0
   -1.7849   -1.4435    0.0000 N   0  0  0  0  0  0  0  0  0  0  0  0
   -2.4994   -1.0310    0.0000 C   0  0  0  0  0  0  0  0  0  0  0  0
   -3.2137   -1.4434    0.0000 O   0  0  0  0  0  0  0  0  0  0  0  0
   -0.3562   -1.4434    0.0000 O   0  0  0  0  0  0  0  0  0  0  0  0
   -0.3562    0.2064    0.0000 C   0  0  0  0  0  0  0  0  0  0  0  0
    0.3580   -0.2059    0.0000 S   0  0  0  0  0  0  0  0  0  0  0  0
    1.0722    0.2064    0.0000 C   0  0  0  0  0  0  0  0  0  0  0  0
    1.0725    1.0312    0.0000 C   0  0  0  0  0  0  0  0  0  0  0  0
    1.7850    1.4416    0.0000 C   0  0  0  0  0  0  0  0  0  0  0  0
    2.4994    1.0291    0.0000 C   0  0  0  0  0  0  0  0  0  0  0  0
    2.5010    0.2085    0.0000 C   0  0  0  0  0  0  0  0  0  0  0  0
    1.7895   -0.2077    0.0000 C   0  0  0  0  0  0  0  0  0  0  0  0
    0.3582    1.4435    0.0000 C   0  0  0  0  0  0  0  0  0  0  0  0
    1.7895   -1.0325    0.0000 C   0  0  0  0  0  0  0  0  0  0  0  0
    3.2137    1.4415    0.0000 C   0  0  0  0  0  0  0  0  0  0  0  0
  1  2  1  0
  3  2  1  0
  4  3  1  0
  5  4  1  0
  1  6  1  0
  6  5  1  0
  6  7  2  0
  4  8  2  0
  3  9  1  0
  9 10  1  0
 10 11  1  0
 12 11  2  0
 13 12  1  0
 14 13  2  0
 15 14  1  0
 16 15  2  0
 11 16  1  0
 12 17  1  0
 16 18  1  0
 14 19  1  0
M  END
> <From>
www.bindingDB.org

> <BindingDB Reactant_set_id>
51553731

> <Ligand InChI>
InChI=1S/C15H19NO2S/c1-9-6-10(2)14(11(3)7-9)19-8-12-4-5-13(17)16-15(12)18/h6-7,12H,4-5,8H2,1-3H3,(H,16,17,18)

> <Ligand InChI Key>
GDGLHDANSQBSLX-UHFFFAOYSA-N

> <BindingDB MonomerID>
50625124

> <BindingDB Ligand Name>
CHEMBL5419971

> <Target Name>
Protein cereblon

> <Target Source Organism According to Curator or DataSource>
Homo sapiens

> <Ki (nM)>
 13000

> <IC50 (nM)>


> <Kd (nM)>


> <EC50 (nM)>


> <kon (M-1-s-1)>


> <koff (s-1)>


> <pH>


> <Temp C>


> <Curation/DataSource>
ChEMBL

> <Article DOI>
10.1016/j.ejmech.2022.114990

> <BindingDB Entry DOI>
10.7270/Q2F1944V

> <PMID>
36476642

> <PubChem AID>


> <Patent Number>


> <Authors>
n/a

> <Date of publication>
1/15/2023

> <Date in BindingDB>
12/18/2024

> <Institution>
n/a

> <Link to Ligand in BindingDB>
http://www.bindingdb.org/bind/chemsearch/marvin/MolStructure.jsp?monomerid=50625124

> <Link to Ligand-Target Pair in BindingDB>
http://www.bindingdb.org/jsp/dbsearch/PrimarySearch_ki.jsp?energyterm=kJ/mole&tag=pol&polymerid=50007050&target=Protein+cereblon&column=ki&startPg=0&Increment=50&submit=Search

> <Link to Ligand-Target Pair in BindingDB>
http://www.bindingdb.org/jsp/dbsearch/PrimarySearch_ki.jsp?energyterm=kJ/mole&tag=r21&monomerid=50625124&enzyme=Protein+cereblon&column=ki&startPg=0&Increment=50&submit=Search

> <Ligand HET ID in PDB>


> <PDB ID(s) for Ligand-Target Complex>


> <PubChem CID>


> <PubChem SID>


> <ChEBI ID of Ligand>


> <ChEMBL ID of Ligand>


> <DrugBank ID of Ligand>


> <IUPHAR_GRAC ID of Ligand>


> <KEGG ID of Ligand>


> <ZINC ID of Ligand>


> <Number of Protein Chains in Target (bigger than 1 implies a multichain complex)>
1

> <BindingDB Target Chain Sequence>
MAGEGDQQDAAHNMGNHLPLLPAESEEEDEMEVEDQDSKEAKKPNIINFDTSLPTSHTYLGADMEEFHGRTLHDDDSCQVIPVLPQVMMILIPGQTLPLQLFHPQEVSMVRNLIQKDRTFAVLAYSNVQEREAQFGTTAEIYAYREEQDFGIEIVKVKAIGRQRFKVLELRTQSDGIQQAKVQILPECVLPSTMSAVQLESLNKCQIFPSKPVSREDQCSYKWWQKYQKRKFHCANLTSWPRWLYSLYDAETLMDRIKKQLREWDENLKDDSLPSNPIDFSYRVAACLPIDDVLRIQLLKIGSAIQRLRCELDIMNKCTSLCCKQCQETEITTKNEIFSLSLCGPMAAYVNPHGYVHETLTVYKACNLNLIGRPSTEHSWFPGYAWTVAQCKICASHIGWKFTATKKDMSPQKFWGLTRSALLPTIPDTEDEISPDKVILCL

> <PDB ID(s) of Target Chain>
8TNR,8TNQ,8TNP,8D81,8D80,8D7Z,8D7Y,8D7X,8D7W,8D7V,8D7U,8CVP,9DQD,8UH6,6BOY,6BNB,6BN9,6BN8,6BN7,6XK9,6UML,5V3O,5HXB,7U8F,8OJH,8OIZ,7LPS,4TZ4,9DJX,9DJT,8U17,8U16,8U15,8TZX,8DEY,9CUO,4M91

> <UniProt (SwissProt) Recommended Name of Target Chain>
Protein cereblon

> <UniProt (SwissProt) Entry Name of Target Chain>
CRBN_HUMAN

> <UniProt (SwissProt) Primary ID of Target Chain>
Q96SW2

> <UniProt (SwissProt) Secondary ID(s) of Target Chain>
B2R6H4 C9IZA9 C9JAH6 Q6AI62 Q6NVZ0 Q9UHW4

> <UniProt (SwissProt) Alternative ID(s) of Target Chain>


> <UniProt (TrEMBL) Submitted Name of Target Chain>


> <UniProt (TrEMBL) Entry Name of Target Chain>


> <UniProt (TrEMBL) Primary ID of Target Chain>


> <UniProt (TrEMBL) Secondary ID(s) of Target Chain>


> <UniProt (TrEMBL) Alternative ID(s) of Target Chain>


$$$$
 
     RDKit          2D

 17 18  0  0  0  0  0  0  0  0999 V2000
   -2.5005    0.4128    0.0000 C   0  0  0  0  0  0  0  0  0  0  0  0
   -1.7860    0.8252    0.0000 C   0  0  0  0  0  0  0  0  0  0  0  0
   -1.0715    0.4128    0.0000 C   0  0  0  0  0  0  0  0  0  0  0  0
   -1.0715   -0.4122    0.0000 C   0  0  0  0  0  0  0  0  0  0  0  0
   -1.7860   -0.8248    0.0000 N   0  0  0  0  0  0  0  0  0  0  0  0
   -2.5005   -0.4122    0.0000 C   0  0  0  0  0  0  0  0  0  0  0  0
   -3.2148   -0.8246    0.0000 O   0  0  0  0  0  0  0  0  0  0  0  0
   -0.3572   -0.8246    0.0000 O   0  0  0  0  0  0  0  0  0  0  0  0
   -0.3572    0.8251    0.0000 C   0  0  0  0  0  0  0  0  0  0  0  0
    0.3570    0.4128    0.0000 S   0  0  0  0  0  0  0  0  0  0  0  0
    1.0712    0.8251    0.0000 C   0  0  0  0  0  0  0  0  0  0  0  0
    1.7886    0.4109    0.0000 C   0  0  0  0  0  0  0  0  0  0  0  0
    2.5031    0.8232    0.0000 C   0  0  0  0  0  0  0  0  0  0  0  0
    3.2148    0.4114    0.0000 C   0  0  0  0  0  0  0  0  0  0  0  0
    3.2148   -0.4135    0.0000 C   0  0  0  0  0  0  0  0  0  0  0  0
    2.5049   -0.8252    0.0000 C   0  0  0  0  0  0  0  0  0  0  0  0
    1.7886   -0.4172    0.0000 C   0  0  0  0  0  0  0  0  0  0  0  0
  1  2  1  0
  3  2  1  0
  4  3  1  0
  5  4  1  0
  1  6  1  0
  6  5  1  0
  6  7  2  0
  4  8  2  0
  3  9  1  0
  9 10  1  0
 10 11  1  0
 11 12  1  0
 13 12  2  0
 14 13  1  0
 15 14  2  0
 16 15  1  0
 17 16  2  0
 12 17  1  0
M  END
> <From>
www.bindingDB.org

> <BindingDB Reactant_set_id>
51553737

> <Ligand InChI>
InChI=1S/C13H15NO2S/c15-12-7-6-11(13(16)14-12)9-17-8-10-4-2-1-3-5-10/h1-5,11H,6-9H2,(H,14,15,16)

> <Ligand InChI Key>
SMRFUMNKQVWJJK-UHFFFAOYSA-N

> <BindingDB MonomerID>
50625130

> <BindingDB Ligand Name>
CHEMBL5402303

> <Target Name>
Protein cereblon

> <Target Source Organism According to Curator or DataSource>
Homo sapiens

> <Ki (nM)>
 13000

> <IC50 (nM)>


> <Kd (nM)>


> <EC50 (nM)>


> <kon (M-1-s-1)>


> <koff (s-1)>


> <pH>


> <Temp C>


> <Curation/DataSource>
ChEMBL

> <Article DOI>
10.1016/j.ejmech.2022.114990

> <BindingDB Entry DOI>
10.7270/Q2F1944V

> <PMID>
36476642

> <PubChem AID>


> <Patent Number>


> <Authors>
n/a

> <Date of publication>
1/15/2023

> <Date in BindingDB>
12/18/2024

> <Institution>
n/a

> <Link to Ligand in BindingDB>
http://www.bindingdb.org/bind/chemsearch/marvin/MolStructure.jsp?monomerid=50625130

> <Link to Ligand-Target Pair in BindingDB>
http://www.bindingdb.org/jsp/dbsearch/PrimarySearch_ki.jsp?energyterm=kJ/mole&tag=pol&polymerid=50007050&target=Protein+cereblon&column=ki&startPg=0&Increment=50&submit=Search

> <Link to Ligand-Target Pair in BindingDB>
http://www.bindingdb.org/jsp/dbsearch/PrimarySearch_ki.jsp?energyterm=kJ/mole&tag=r21&monomerid=50625130&enzyme=Protein+cereblon&column=ki&startPg=0&Increment=50&submit=Search

> <Ligand HET ID in PDB>


> <PDB ID(s) for Ligand-Target Complex>


> <PubChem CID>


> <PubChem SID>


> <ChEBI ID of Ligand>


> <ChEMBL ID of Ligand>


> <DrugBank ID of Ligand>


> <IUPHAR_GRAC ID of Ligand>


> <KEGG ID of Ligand>


> <ZINC ID of Ligand>


> <Number of Protein Chains in Target (bigger than 1 implies a multichain complex)>
1

> <BindingDB Target Chain Sequence>
MAGEGDQQDAAHNMGNHLPLLPAESEEEDEMEVEDQDSKEAKKPNIINFDTSLPTSHTYLGADMEEFHGRTLHDDDSCQVIPVLPQVMMILIPGQTLPLQLFHPQEVSMVRNLIQKDRTFAVLAYSNVQEREAQFGTTAEIYAYREEQDFGIEIVKVKAIGRQRFKVLELRTQSDGIQQAKVQILPECVLPSTMSAVQLESLNKCQIFPSKPVSREDQCSYKWWQKYQKRKFHCANLTSWPRWLYSLYDAETLMDRIKKQLREWDENLKDDSLPSNPIDFSYRVAACLPIDDVLRIQLLKIGSAIQRLRCELDIMNKCTSLCCKQCQETEITTKNEIFSLSLCGPMAAYVNPHGYVHETLTVYKACNLNLIGRPSTEHSWFPGYAWTVAQCKICASHIGWKFTATKKDMSPQKFWGLTRSALLPTIPDTEDEISPDKVILCL

> <PDB ID(s) of Target Chain>
8TNR,8TNQ,8TNP,8D81,8D80,8D7Z,8D7Y,8D7X,8D7W,8D7V,8D7U,8CVP,9DQD,8UH6,6BOY,6BNB,6BN9,6BN8,6BN7,6XK9,6UML,5V3O,5HXB,7U8F,8OJH,8OIZ,7LPS,4TZ4,9DJX,9DJT,8U17,8U16,8U15,8TZX,8DEY,9CUO,4M91

> <UniProt (SwissProt) Recommended Name of Target Chain>
Protein cereblon

> <UniProt (SwissProt) Entry Name of Target Chain>
CRBN_HUMAN

> <UniProt (SwissProt) Primary ID of Target Chain>
Q96SW2

> <UniProt (SwissProt) Secondary ID(s) of Target Chain>
B2R6H4 C9IZA9 C9JAH6 Q6AI62 Q6NVZ0 Q9UHW4

> <UniProt (SwissProt) Alternative ID(s) of Target Chain>


> <UniProt (TrEMBL) Submitted Name of Target Chain>


> <UniProt (TrEMBL) Entry Name of Target Chain>


> <UniProt (TrEMBL) Primary ID of Target Chain>


> <UniProt (TrEMBL) Secondary ID(s) of Target Chain>


> <UniProt (TrEMBL) Alternative ID(s) of Target Chain>


$$$$
 
     RDKit          2D

 21 23  0  0  0  0  0  0  0  0999 V2000
   -2.8571    0.5935    0.0000 C   0  0  0  0  0  0  0  0  0  0  0  0
   -2.1425    1.0059    0.0000 C   0  0  0  0  0  0  0  0  0  0  0  0
   -1.4306    0.5939    0.0000 C   0  0  0  0  0  0  0  0  0  0  0  0
   -1.4306   -0.2311    0.0000 C   0  0  0  0  0  0  0  0  0  0  0  0
   -2.1407   -0.6429    0.0000 C   0  0  0  0  0  0  0  0  0  0  0  0
   -2.8571   -0.2348    0.0000 C   0  0  0  0  0  0  0  0  0  0  0  0
   -0.7160    1.0066    0.0000 C   0  0  0  0  0  0  0  0  0  0  0  0
   -0.7160    1.8317    0.0000 O   0  0  0  0  0  0  0  0  0  0  0  0
   -0.0013    0.5939    0.0000 N   0  0  0  0  0  0  0  0  0  0  0  0
    0.7131    1.0066    0.0000 C   0  0  0  0  0  0  0  0  0  0  0  0
    0.7131    1.8317    0.0000 C   0  0  0  0  0  0  0  0  0  0  0  0
    1.4278    2.2443    0.0000 C   0  0  0  0  0  0  0  0  0  0  0  0
    2.1425    1.8317    0.0000 C   0  0  0  0  0  0  0  0  0  0  0  0
    2.1425    1.0065    0.0000 N   0  0  0  0  0  0  0  0  0  0  0  0
    1.4278    0.5939    0.0000 C   0  0  0  0  0  0  0  0  0  0  0  0
    1.4278   -0.2311    0.0000 O   0  0  0  0  0  0  0  0  0  0  0  0
    2.8571    2.2443    0.0000 O   0  0  0  0  0  0  0  0  0  0  0  0
   -1.9685   -1.4454    0.0000 C   0  0  0  0  0  0  0  0  0  0  0  0
   -0.8196   -0.7792    0.0000 O   0  0  0  0  0  0  0  0  0  0  0  0
   -1.1520   -1.5297    0.0000 C   0  0  0  0  0  0  0  0  0  0  0  0
   -0.7393   -2.2443    0.0000 C   0  0  0  0  0  0  0  0  0  0  0  0
  2  1  2  0
  3  2  1  0
  4  3  2  0
  5  4  1  0
  6  5  2  0
  1  6  1  0
  3  7  1  0
  7  8  2  0
  7  9  1  0
  9 10  1  0
 11 10  1  0
 12 11  1  0
 13 12  1  0
 14 13  1  0
 15 14  1  0
 10 15  1  0
 15 16  2  0
 13 17  2  0
  5 18  1  0
  4 19  1  0
 19 20  1  0
 20 18  2  0
 20 21  1  0
M  END
> <From>
www.bindingDB.org

> <BindingDB Reactant_set_id>
51567957

> <Ligand InChI>
InChI=1S/C15H14N2O4/c1-8-7-9-3-2-4-10(13(9)21-8)14(19)16-11-5-6-12(18)17-15(11)20/h2-4,7,11H,5-6H2,1H3,(H,16,19)(H,17,18,20)

> <Ligand InChI Key>
LVMVFZVVJVFJKX-UHFFFAOYSA-N

> <BindingDB MonomerID>
50630611

> <BindingDB Ligand Name>
CHEMBL5414968

> <Target Name>
Protein cereblon

> <Target Source Organism According to Curator or DataSource>
Homo sapiens

> <Ki (nM)>
 15000

> <IC50 (nM)>


> <Kd (nM)>


> <EC50 (nM)>


> <kon (M-1-s-1)>


> <koff (s-1)>


> <pH>


> <Temp C>


> <Curation/DataSource>
ChEMBL

> <Article DOI>
10.1021/acs.jmedchem.3c00851

> <BindingDB Entry DOI>
10.7270/Q2PK0MM6

> <PMID>
37902300

> <PubChem AID>


> <Patent Number>


> <Authors>
Steinebach, C; Bricelj, A; Murgai, A; Sosič, I; Bischof, L; Ng, YLD; Heim, C; Maiwald, S; Proj, M; Voget, R; Feller, F; Košmrlj, J; Sapozhnikova, V; Schmidt, A; Zuleeg, MR; Lemnitzer, P; Mertins, P; Hansen, FK; Gütschow, M; Krönke, J; Hartmann, MD

> <Date of publication>
11/9/2023

> <Date in BindingDB>
12/20/2024

> <Institution>
University of Bonn

> <Link to Ligand in BindingDB>
http://www.bindingdb.org/bind/chemsearch/marvin/MolStructure.jsp?monomerid=50630611

> <Link to Ligand-Target Pair in BindingDB>
http://www.bindingdb.org/jsp/dbsearch/PrimarySearch_ki.jsp?energyterm=kJ/mole&tag=pol&polymerid=50007050&target=Protein+cereblon&column=ki&startPg=0&Increment=50&submit=Search

> <Link to Ligand-Target Pair in BindingDB>
http://www.bindingdb.org/jsp/dbsearch/PrimarySearch_ki.jsp?energyterm=kJ/mole&tag=r21&monomerid=50630611&enzyme=Protein+cereblon&column=ki&startPg=0&Increment=50&submit=Search

> <Ligand HET ID in PDB>


> <PDB ID(s) for Ligand-Target Complex>


> <PubChem CID of Ligand>
156408646

> <PubChem SID of Ligand>
505048582

> <ChEBI ID of Ligand>


> <ChEMBL ID of Ligand>


> <DrugBank ID of Ligand>


> <IUPHAR_GRAC ID of Ligand>


> <KEGG ID of Ligand>


> <ZINC ID of Ligand>


> <Number of Protein Chains in Target (bigger than 1 implies a multichain complex)>
1

> <BindingDB Target Chain Sequence>
MAGEGDQQDAAHNMGNHLPLLPAESEEEDEMEVEDQDSKEAKKPNIINFDTSLPTSHTYLGADMEEFHGRTLHDDDSCQVIPVLPQVMMILIPGQTLPLQLFHPQEVSMVRNLIQKDRTFAVLAYSNVQEREAQFGTTAEIYAYREEQDFGIEIVKVKAIGRQRFKVLELRTQSDGIQQAKVQILPECVLPSTMSAVQLESLNKCQIFPSKPVSREDQCSYKWWQKYQKRKFHCANLTSWPRWLYSLYDAETLMDRIKKQLREWDENLKDDSLPSNPIDFSYRVAACLPIDDVLRIQLLKIGSAIQRLRCELDIMNKCTSLCCKQCQETEITTKNEIFSLSLCGPMAAYVNPHGYVHETLTVYKACNLNLIGRPSTEHSWFPGYAWTVAQCKICASHIGWKFTATKKDMSPQKFWGLTRSALLPTIPDTEDEISPDKVILCL

> <PDB ID(s) of Target Chain>
8TNR,8TNQ,8TNP,8D81,8D80,8D7Z,8D7Y,8D7X,8D7W,8D7V,8D7U,8CVP,9DQD,8UH6,6BOY,6BNB,6BN9,6BN8,6BN7,6XK9,6UML,5V3O,5HXB,7U8F,8OJH,8OIZ,7LPS,4TZ4,9DJX,9DJT,8U17,8U16,8U15,8TZX,8DEY,9CUO,4M91

> <UniProt (SwissProt) Recommended Name of Target Chain>
Protein cereblon

> <UniProt (SwissProt) Entry Name of Target Chain>
CRBN_HUMAN

> <UniProt (SwissProt) Primary ID of Target Chain>
Q96SW2

> <UniProt (SwissProt) Secondary ID(s) of Target Chain>
B2R6H4 C9IZA9 C9JAH6 Q6AI62 Q6NVZ0 Q9UHW4

> <UniProt (SwissProt) Alternative ID(s) of Target Chain>


> <UniProt (TrEMBL) Submitted Name of Target Chain>


> <UniProt (TrEMBL) Entry Name of Target Chain>


> <UniProt (TrEMBL) Primary ID of Target Chain>


> <UniProt (TrEMBL) Secondary ID(s) of Target Chain>


> <UniProt (TrEMBL) Alternative ID(s) of Target Chain>


$$$$

     RDKit          2D

 19 21  0  0  0  0  0  0  0  0999 V2000
    1.7849    5.4933    0.0000 O   0  0  0  0  0  0  0  0  0  0  0  0
    1.3213    4.0667    0.0000 C   0  0  0  0  0  0  0  0  0  0  0  0
    2.3250    2.9520    0.0000 C   0  0  0  0  0  0  0  0  0  0  0  0
    1.8615    1.5254    0.0000 C   0  0  0  0  0  0  0  0  0  0  0  0
    0.3943    1.2135    0.0000 C   0  0  0  0  0  0  0  0  0  0  0  0
    1.2760    0.0000    0.0000 C   0  0  0  0  0  0  0  0  0  0  0  0
    0.3943   -1.2135    0.0000 C   0  0  0  0  0  0  0  0  0  0  0  0
    0.8578   -2.6401    0.0000 C   0  0  0  0  0  0  0  0  0  0  0  0
   -0.1459   -3.7548    0.0000 C   0  0  0  0  0  0  0  0  0  0  0  0
    0.3177   -5.1814    0.0000 C   0  0  0  0  0  0  0  0  0  0  0  0
    1.7849   -5.4933    0.0000 C   0  0  0  0  0  0  0  0  0  0  0  0
    2.7886   -4.3786    0.0000 C   0  0  0  0  0  0  0  0  0  0  0  0
    2.3250   -2.9520    0.0000 C   0  0  0  0  0  0  0  0  0  0  0  0
    3.3287   -1.8373    0.0000 F   0  0  0  0  0  0  0  0  0  0  0  0
   -1.0323   -0.7500    0.0000 N   0  0  0  0  0  0  0  0  0  0  0  0
   -1.0323    0.7500    0.0000 O   0  0  0  0  0  0  0  0  0  0  0  0
   -0.6094    2.3282    0.0000 C   0  0  0  0  0  0  0  0  0  0  0  0
   -2.0766    2.0164    0.0000 O   0  0  0  0  0  0  0  0  0  0  0  0
   -0.1459    3.7548    0.0000 N   0  0  0  0  0  0  0  0  0  0  0  0
  1  2  2  0
  2  3  1  0
  3  4  1  0
  4  5  1  0
  5  6  1  0
  6  7  1  0
  7  8  1  0
  8  9  2  0
  9 10  1  0
 10 11  2  0
 11 12  1  0
 12 13  2  0
 13 14  1  0
  7 15  2  0
 15 16  1  0
  5 17  1  0
 17 18  2  0
 17 19  1  0
 19  2  1  0
 16  5  1  0
 13  8  1  0
M  END
> <From>
www.bindingDB.org

> <BindingDB Reactant_set_id>
51588686

> <Ligand InChI>
InChI=1S/C13H11FN2O3/c14-9-4-2-1-3-8(9)10-7-13(19-16-10)6-5-11(17)15-12(13)18/h1-4H,5-7H2,(H,15,17,18)

> <Ligand InChI Key>
NKWPQDUODSHPBY-UHFFFAOYSA-N

> <BindingDB MonomerID>
50639643

> <BindingDB Ligand Name>
CHEMBL5561864

> <Target Name>
Protein cereblon

> <Target Source Organism According to Curator or DataSource>
Human

> <Ki (nM)>
 15800

> <IC50 (nM)>


> <Kd (nM)>


> <EC50 (nM)>


> <kon (M-1-s-1)>


> <koff (s-1)>


> <pH>


> <Temp C>


> <Curation/DataSource>
ChEMBL

> <Article DOI>


> <BindingDB Entry DOI>
10.7270/Q2PC3713

> <PMID>
38552426

> <PubChem AID>


> <Patent Number>


> <Authors>
Shevalev, R; Bischof, L; Sapegin, A; Bunev, A; Olga, G; Kantin, G; Kalinin, S; Hartmann, MD

> <Date of publication>
//0

> <Date in BindingDB>
10/11/2025

> <Institution>
Saint Petersburg State University

> <Link to Ligand in BindingDB>
http://www.bindingdb.org/bind/chemsearch/marvin/MolStructure.jsp?monomerid=50639643

> <Link to Ligand-Target Pair in BindingDB>
http://www.bindingdb.org/rwd/jsp/dbsearch/PrimarySearch_ki.jsp?energyterm=kJ/mole&tag=pol&polymerid=50007050&target=Protein+cereblon&column=ki&startPg=0&Increment=50&submit=Search

> <Link to Ligand-Target Pair in BindingDB>
http://www.bindingdb.org/rwd/jsp/dbsearch/PrimarySearch_ki.jsp?energyterm=kJ/mole&tag=r21&monomerid=50639643&enzyme=Protein+cereblon&column=ki&startPg=0&Increment=50&submit=Search

> <Ligand HET ID in PDB>


> <PDB ID(s) for Ligand-Target Complex>


> <PubChem CID of Ligand>
177376703

> <PubChem SID of Ligand>
519660046

> <ChEBI ID of Ligand>


> <ChEMBL ID of Ligand>


> <DrugBank ID of Ligand>


> <IUPHAR_GRAC ID of Ligand>


> <KEGG ID of Ligand>


> <ZINC ID of Ligand>


> <Number of Protein Chains in Target (bigger than 1 implies a multichain complex)>
1

> <BindingDB Target Chain Sequence>
MAGEGDQQDAAHNMGNHLPLLPAESEEEDEMEVEDQDSKEAKKPNIINFDTSLPTSHTYLGADMEEFHGRTLHDDDSCQVIPVLPQVMMILIPGQTLPLQLFHPQEVSMVRNLIQKDRTFAVLAYSNVQEREAQFGTTAEIYAYREEQDFGIEIVKVKAIGRQRFKVLELRTQSDGIQQAKVQILPECVLPSTMSAVQLESLNKCQIFPSKPVSREDQCSYKWWQKYQKRKFHCANLTSWPRWLYSLYDAETLMDRIKKQLREWDENLKDDSLPSNPIDFSYRVAACLPIDDVLRIQLLKIGSAIQRLRCELDIMNKCTSLCCKQCQETEITTKNEIFSLSLCGPMAAYVNPHGYVHETLTVYKACNLNLIGRPSTEHSWFPGYAWTVAQCKICASHIGWKFTATKKDMSPQKFWGLTRSALLPTIPDTEDEISPDKVILCL

> <PDB ID(s) of Target Chain>
9DUR,8TNR,8TNQ,8TNP,9DWW,9DWV,9NGT,9NFR,9NFQ,8D81,8D80,8D7Z,8D7Y,8D7X,8D7W,8D7V,8D7U,8CVP,9Q2D,9Q03,9DQD,8UH6,9SAI,9SAF,9H59,9E2U,6BOY,6BNB,6BN9,6BN8,6BN7,9OUL,9Y7D,6XK9,6UML,5V3O,5HXB,9HNE,9D0X,9D0W,7U8F,9FJX,8OJH,8OIZ,7LPS,9SFM,9OTY,4TZ4,9DJX,9DJT,8U17,8U16,8U15,8TZX,8DEY,9CUO,4M91

> <UniProt (SwissProt) Recommended Name of Target Chain>
Protein cereblon

> <UniProt (SwissProt) Entry Name of Target Chain>
CRBN_HUMAN

> <UniProt (SwissProt) Primary ID of Target Chain>
Q96SW2

> <UniProt (SwissProt) Secondary ID(s) of Target Chain>
B2R6H4 C9IZA9 C9JAH6 Q6AI62 Q6NVZ0 Q9UHW4

> <UniProt (SwissProt) Alternative ID(s) of Target Chain>


> <UniProt (TrEMBL) Submitted Name of Target Chain>


> <UniProt (TrEMBL) Entry Name of Target Chain>


> <UniProt (TrEMBL) Primary ID of Target Chain>


> <UniProt (TrEMBL) Secondary ID(s) of Target Chain>


> <UniProt (TrEMBL) Alternative ID(s) of Target Chain>


$$$$
216326
  Mrv0541 01031813182D          

 19 21  0  0  1  0            999 V2000
    4.1147   -1.6769    0.0000 O   0  0  0  0  0  0  0  0  0  0  0  0
    5.1652    1.2004    0.0000 O   0  0  0  0  0  0  0  0  0  0  0  0
    7.6402   -0.2289    0.0000 O   0  0  0  0  0  0  0  0  0  0  0  0
    4.3402   -0.2289    0.0000 N   0  0  0  0  0  0  0  0  0  0  0  0
    6.4025    0.4857    0.0000 N   0  0  0  0  0  0  0  0  0  0  0  0
    2.3633    1.4212    0.0000 N   0  0  0  0  0  0  0  0  0  0  0  0
    5.1652   -0.2289    0.0000 C   0  0  0  0  0  0  0  0  0  0  0  0
    5.5775   -0.9433    0.0000 C   0  0  0  0  0  0  0  0  0  0  0  0
    3.8585    0.4351    0.0000 C   0  0  0  0  0  0  0  0  0  0  0  0
    3.0778    0.1836    0.0000 C   0  0  0  0  0  0  0  0  0  0  0  0
    3.8585   -0.8928    0.0000 C   0  0  0  0  0  0  0  0  0  0  0  0
    6.4025   -0.9433    0.0000 C   0  0  0  0  0  0  0  0  0  0  0  0
    3.0778   -0.6414    0.0000 C   0  0  0  0  0  0  0  0  0  0  0  0
    5.5775    0.4857    0.0000 C   0  0  0  0  0  0  0  0  0  0  0  0
    6.8152   -0.2289    0.0000 C   0  0  0  0  0  0  0  0  0  0  0  0
    2.3633    0.5962    0.0000 C   0  0  0  0  0  0  0  0  0  0  0  0
    2.3633   -1.0539    0.0000 C   0  0  0  0  0  0  0  0  0  0  0  0
    1.6488    0.1836    0.0000 C   0  0  0  0  0  0  0  0  0  0  0  0
    1.6488   -0.6414    0.0000 C   0  0  0  0  0  0  0  0  0  0  0  0
  1 11  2  0  0  0  0
  2 14  2  0  0  0  0
  3 15  2  0  0  0  0
  4  7  1  0  0  0  0
  4  9  1  0  0  0  0
  4 11  1  0  0  0  0
  5 14  1  0  0  0  0
  5 15  1  0  0  0  0
  6 16  1  0  0  0  0
  7  8  1  0  0  0  0
  7 14  1  0  0  0  0
  8 12  1  0  0  0  0
  9 10  1  0  0  0  0
 10 13  4  0  0  0  0
 10 16  4  0  0  0  0
 11 13  1  0  0  0  0
 12 15  1  0  0  0  0
 13 17  4  0  0  0  0
 16 18  4  0  0  0  0
 17 19  4  0  0  0  0
 18 19  4  0  0  0  0
M  END
> <From>
www.bindingDB.org

> <BindingDB Reactant_set_id>
51359710

> <Ligand InChI>
InChI=1S/C13H13N3O3/c14-9-3-1-2-7-8(9)6-16(13(7)19)10-4-5-11(17)15-12(10)18/h1-3,10H,4-6,14H2,(H,15,17,18)

> <Ligand InChI Key>
GOTYRUGSSMKFNF-UHFFFAOYSA-N

> <BindingDB MonomerID>
65454

> <BindingDB Ligand Name>
191732-72-6::CC-5013::Lenalidomide::Revimid::Revlimid::US11530219, Compound Lenalidomide::US9694015, 6.1

> <Target Name>
Protein cereblon

> <Target Source Organism According to Curator or DataSource>
Human

> <Ki (nM)>
 16300

> <IC50 (nM)>


> <Kd (nM)>


> <EC50 (nM)>


> <kon (M-1-s-1)>


> <koff (s-1)>


> <pH>


> <Temp C>


> <Curation/DataSource>
ChEMBL

> <Article DOI>
10.1021/acsmedchemlett.0c00440

> <BindingDB Entry DOI>
10.7270/Q2WM1J1B

> <PMID>
33488967

> <PubChem AID>


> <Patent Number>


> <Authors>
Maiwald, S; Heim, C; Hernandez Alvarez, B; Hartmann, MD

> <Date of publication>
1/14/2021

> <Date in BindingDB>
3/23/2022

> <Institution>
Max Planck Institute for Developmental Biology

> <Link to Ligand in BindingDB>
http://www.bindingdb.org/bind/chemsearch/marvin/MolStructure.jsp?monomerid=65454

> <Link to Ligand-Target Pair in BindingDB>
http://www.bindingdb.org/jsp/dbsearch/PrimarySearch_ki.jsp?energyterm=kJ/mole&tag=pol&polymerid=50007050&target=Protein+cereblon&column=ki&startPg=0&Increment=50&submit=Search

> <Link to Ligand-Target Pair in BindingDB>
http://www.bindingdb.org/jsp/dbsearch/PrimarySearch_ki.jsp?energyterm=kJ/mole&tag=r21&monomerid=65454&enzyme=Protein+cereblon&column=ki&startPg=0&Increment=50&submit=Search

> <Ligand HET ID in PDB>
LVY

> <PDB ID(s) for Ligand-Target Complex>
4CI2,5FQD,4V30,4TZ4

> <PubChem CID of Ligand>
216326

> <PubChem SID of Ligand>
350083085

> <ChEBI ID of Ligand>


> <ChEMBL ID of Ligand>


> <DrugBank ID of Ligand>
DB00480

> <IUPHAR_GRAC ID of Ligand>


> <KEGG ID of Ligand>


> <ZINC ID of Ligand>
ZINC02508407

> <Number of Protein Chains in Target (bigger than 1 implies a multichain complex)>
1

> <BindingDB Target Chain Sequence>
MAGEGDQQDAAHNMGNHLPLLPAESEEEDEMEVEDQDSKEAKKPNIINFDTSLPTSHTYLGADMEEFHGRTLHDDDSCQVIPVLPQVMMILIPGQTLPLQLFHPQEVSMVRNLIQKDRTFAVLAYSNVQEREAQFGTTAEIYAYREEQDFGIEIVKVKAIGRQRFKVLELRTQSDGIQQAKVQILPECVLPSTMSAVQLESLNKCQIFPSKPVSREDQCSYKWWQKYQKRKFHCANLTSWPRWLYSLYDAETLMDRIKKQLREWDENLKDDSLPSNPIDFSYRVAACLPIDDVLRIQLLKIGSAIQRLRCELDIMNKCTSLCCKQCQETEITTKNEIFSLSLCGPMAAYVNPHGYVHETLTVYKACNLNLIGRPSTEHSWFPGYAWTVAQCKICASHIGWKFTATKKDMSPQKFWGLTRSALLPTIPDTEDEISPDKVILCL

> <PDB ID(s) of Target Chain>
4TZ4,5HXB,5V3O,6UML,6XK9,7LPS,7U8F,8CVP,8D7U,8D7V,8D7W,8D7X,8D7Y,8D7Z,8D80,8D81,8DEY,8OIZ,8OJH

> <UniProt (SwissProt) Recommended Name of Target Chain>
Protein cereblon

> <UniProt (SwissProt) Entry Name of Target Chain>
CRBN_HUMAN

> <UniProt (SwissProt) Primary ID of Target Chain>
Q96SW2

> <UniProt (SwissProt) Secondary ID(s) of Target Chain>
B2R6H4 C9IZA9 C9JAH6 Q6AI62 Q6NVZ0 Q9UHW4

> <UniProt (SwissProt) Alternative ID(s) of Target Chain>


> <UniProt (TrEMBL) Submitted Name of Target Chain>


> <UniProt (TrEMBL) Entry Name of Target Chain>


> <UniProt (TrEMBL) Primary ID of Target Chain>


> <UniProt (TrEMBL) Secondary ID(s) of Target Chain>


> <UniProt (TrEMBL) Alternative ID(s) of Target Chain>


$$$$
00021001.cdx
  Mrv0541 01191812422D          

 21 23  0  0  0  0            999 V2000
   -1.4289    0.2062    0.0000 C   0  0  0  0  0  0  0  0  0  0  0  0
   -1.4289    1.0313    0.0000 C   0  0  0  0  0  0  0  0  0  0  0  0
   -2.1434    1.4437    0.0000 C   0  0  0  0  0  0  0  0  0  0  0  0
   -2.8581    1.0313    0.0000 C   0  0  0  0  0  0  0  0  0  0  0  0
   -2.8581    0.2062    0.0000 C   0  0  0  0  0  0  0  0  0  0  0  0
   -2.1434   -0.2062    0.0000 C   0  0  0  0  0  0  0  0  0  0  0  0
   -0.7145   -0.2062    0.0000 C   0  0  0  0  0  0  0  0  0  0  0  0
    0.0000    0.2062    0.0000 N   0  0  0  0  0  0  0  0  0  0  0  0
    0.0000    1.0313    0.0000 C   0  0  0  0  0  0  0  0  0  0  0  0
   -0.7145    1.4437    0.0000 N   0  0  0  0  0  0  0  0  0  0  0  0
    0.7145   -0.2062    0.0000 C   0  0  0  0  0  0  0  0  0  0  0  0
    0.7145   -1.0313    0.0000 C   0  0  0  0  0  0  0  0  0  0  0  0
    1.4289   -1.4437    0.0000 N   0  0  0  0  0  0  0  0  0  0  0  0
    2.1434   -1.0313    0.0000 C   0  0  0  0  0  0  0  0  0  0  0  0
    2.1434   -0.2062    0.0000 C   0  0  0  0  0  0  0  0  0  0  0  0
    1.4289    0.2062    0.0000 C   0  0  0  0  0  0  0  0  0  0  0  0
    0.0000   -1.4437    0.0000 O   0  0  0  0  0  0  0  0  0  0  0  0
    2.8581   -1.4437    0.0000 O   0  0  0  0  0  0  0  0  0  0  0  0
   -0.7145   -1.0313    0.0000 O   0  0  0  0  0  0  0  0  0  0  0  0
   -2.1434   -1.0313    0.0000 N   0  0  0  0  0  0  0  0  0  0  0  0
    0.7145    1.4437    0.0000 C   0  0  0  0  0  0  0  0  0  0  0  0
  1  2  4  0  0  0  0
  2  3  4  0  0  0  0
  3  4  4  0  0  0  0
  4  5  4  0  0  0  0
  5  6  4  0  0  0  0
  6  1  4  0  0  0  0
  1  7  4  0  0  0  0
  7  8  4  0  0  0  0
  8  9  4  0  0  0  0
  9 10  4  0  0  0  0
 10  2  4  0  0  0  0
  8 11  1  0  0  0  0
 11 12  1  0  0  0  0
 12 13  1  0  0  0  0
 13 14  1  0  0  0  0
 14 15  1  0  0  0  0
 15 16  1  0  0  0  0
 16 11  1  0  0  0  0
 12 17  2  0  0  0  0
 14 18  2  0  0  0  0
  7 19  2  0  0  0  0
  6 20  1  0  0  0  0
  9 21  1  0  0  0  0
M  END
> <From>
www.bindingDB.org

> <BindingDB Reactant_set_id>
51359712

> <Ligand InChI>
InChI=1S/C14H14N4O3/c1-7-16-9-4-2-3-8(15)12(9)14(21)18(7)10-5-6-11(19)17-13(10)20/h2-4,10H,5-6,15H2,1H3,(H,17,19,20)

> <Ligand InChI Key>
RSNPAKAFCAAMBH-UHFFFAOYSA-N

> <BindingDB MonomerID>
76986

> <BindingDB Ligand Name>
3-(5-amino-2-methyl-4-oxo-4H-quinazolin-3-yl)-piperidine-2,6-dione::US11059801, Compound D-17::US9694015, Compound A

> <Target Name>
Protein cereblon

> <Target Source Organism According to Curator or DataSource>
Human

> <Ki (nM)>
 16700

> <IC50 (nM)>


> <Kd (nM)>


> <EC50 (nM)>


> <kon (M-1-s-1)>


> <koff (s-1)>


> <pH>


> <Temp C>


> <Curation/DataSource>
ChEMBL

> <Article DOI>
10.1021/acsmedchemlett.0c00440

> <BindingDB Entry DOI>
10.7270/Q2WM1J1B

> <PMID>
33488967

> <PubChem AID>


> <Patent Number>


> <Authors>
Maiwald, S; Heim, C; Hernandez Alvarez, B; Hartmann, MD

> <Date of publication>
1/14/2021

> <Date in BindingDB>
3/23/2022

> <Institution>
Max Planck Institute for Developmental Biology

> <Link to Ligand in BindingDB>
http://www.bindingdb.org/bind/chemsearch/marvin/MolStructure.jsp?monomerid=76986

> <Link to Ligand-Target Pair in BindingDB>
http://www.bindingdb.org/jsp/dbsearch/PrimarySearch_ki.jsp?energyterm=kJ/mole&tag=pol&polymerid=50007050&target=Protein+cereblon&column=ki&startPg=0&Increment=50&submit=Search

> <Link to Ligand-Target Pair in BindingDB>
http://www.bindingdb.org/jsp/dbsearch/PrimarySearch_ki.jsp?energyterm=kJ/mole&tag=r21&monomerid=76986&enzyme=Protein+cereblon&column=ki&startPg=0&Increment=50&submit=Search

> <Ligand HET ID in PDB>
835

> <PDB ID(s) for Ligand-Target Complex>
7PSO

> <PubChem CID of Ligand>
24967599

> <PubChem SID of Ligand>
354327359

> <ChEBI ID of Ligand>


> <ChEMBL ID of Ligand>


> <DrugBank ID of Ligand>


> <IUPHAR_GRAC ID of Ligand>


> <KEGG ID of Ligand>


> <ZINC ID of Ligand>
ZINC04197025

> <Number of Protein Chains in Target (bigger than 1 implies a multichain complex)>
1

> <BindingDB Target Chain Sequence>
MAGEGDQQDAAHNMGNHLPLLPAESEEEDEMEVEDQDSKEAKKPNIINFDTSLPTSHTYLGADMEEFHGRTLHDDDSCQVIPVLPQVMMILIPGQTLPLQLFHPQEVSMVRNLIQKDRTFAVLAYSNVQEREAQFGTTAEIYAYREEQDFGIEIVKVKAIGRQRFKVLELRTQSDGIQQAKVQILPECVLPSTMSAVQLESLNKCQIFPSKPVSREDQCSYKWWQKYQKRKFHCANLTSWPRWLYSLYDAETLMDRIKKQLREWDENLKDDSLPSNPIDFSYRVAACLPIDDVLRIQLLKIGSAIQRLRCELDIMNKCTSLCCKQCQETEITTKNEIFSLSLCGPMAAYVNPHGYVHETLTVYKACNLNLIGRPSTEHSWFPGYAWTVAQCKICASHIGWKFTATKKDMSPQKFWGLTRSALLPTIPDTEDEISPDKVILCL

> <PDB ID(s) of Target Chain>
4TZ4,5HXB,5V3O,6UML,6XK9,7LPS,7U8F,8CVP,8D7U,8D7V,8D7W,8D7X,8D7Y,8D7Z,8D80,8D81,8DEY,8OIZ,8OJH

> <UniProt (SwissProt) Recommended Name of Target Chain>
Protein cereblon

> <UniProt (SwissProt) Entry Name of Target Chain>
CRBN_HUMAN

> <UniProt (SwissProt) Primary ID of Target Chain>
Q96SW2

> <UniProt (SwissProt) Secondary ID(s) of Target Chain>
B2R6H4 C9IZA9 C9JAH6 Q6AI62 Q6NVZ0 Q9UHW4

> <UniProt (SwissProt) Alternative ID(s) of Target Chain>


> <UniProt (TrEMBL) Submitted Name of Target Chain>


> <UniProt (TrEMBL) Entry Name of Target Chain>


> <UniProt (TrEMBL) Primary ID of Target Chain>


> <UniProt (TrEMBL) Secondary ID(s) of Target Chain>


> <UniProt (TrEMBL) Alternative ID(s) of Target Chain>


$$$$

     RDKit          2D

 24 26  0  0  0  0  0  0  0  0999 V2000
    3.7156    7.2317    0.0000 C   0  0  0  0  0  0  0  0  0  0  0  0
    2.2484    6.9199    0.0000 O   0  0  0  0  0  0  0  0  0  0  0  0
    1.7849    5.4933    0.0000 C   0  0  0  0  0  0  0  0  0  0  0  0
    2.7886    4.3786    0.0000 C   0  0  0  0  0  0  0  0  0  0  0  0
    2.3250    2.9520    0.0000 C   0  0  0  0  0  0  0  0  0  0  0  0
    0.8578    2.6401    0.0000 C   0  0  0  0  0  0  0  0  0  0  0  0
    0.3943    1.2135    0.0000 C   0  0  0  0  0  0  0  0  0  0  0  0
    1.2760    0.0000    0.0000 N   0  0  0  0  0  0  0  0  0  0  0  0
    0.3943   -1.2135    0.0000 O   0  0  0  0  0  0  0  0  0  0  0  0
   -1.0323   -0.7500    0.0000 C   0  0  0  0  0  0  0  0  0  0  0  0
   -2.4026   -0.1399    0.0000 C   0  0  0  0  0  0  0  0  0  0  0  0
   -3.6161   -1.0216    0.0000 C   0  0  0  0  0  0  0  0  0  0  0  0
   -3.4593   -2.5134    0.0000 C   0  0  0  0  0  0  0  0  0  0  0  0
   -4.6729   -3.3950    0.0000 O   0  0  0  0  0  0  0  0  0  0  0  0
   -2.0890   -3.1235    0.0000 N   0  0  0  0  0  0  0  0  0  0  0  0
   -0.8755   -2.2418    0.0000 C   0  0  0  0  0  0  0  0  0  0  0  0
    0.4948   -2.8519    0.0000 O   0  0  0  0  0  0  0  0  0  0  0  0
   -1.0323    0.7500    0.0000 C   0  0  0  0  0  0  0  0  0  0  0  0
   -0.1459    3.7548    0.0000 C   0  0  0  0  0  0  0  0  0  0  0  0
   -1.6131    3.4430    0.0000 O   0  0  0  0  0  0  0  0  0  0  0  0
   -2.6168    4.5577    0.0000 C   0  0  0  0  0  0  0  0  0  0  0  0
    0.3177    5.1814    0.0000 C   0  0  0  0  0  0  0  0  0  0  0  0
   -0.6860    6.2961    0.0000 O   0  0  0  0  0  0  0  0  0  0  0  0
   -0.2225    7.7227    0.0000 C   0  0  0  0  0  0  0  0  0  0  0  0
  1  2  1  0
  2  3  1  0
  3  4  2  0
  4  5  1  0
  5  6  2  0
  6  7  1  0
  7  8  2  0
  8  9  1  0
  9 10  1  0
 10 11  1  0
 11 12  1  0
 12 13  1  0
 13 14  2  0
 13 15  1  0
 15 16  1  0
 16 17  2  0
 10 18  1  0
  6 19  1  0
 19 20  1  0
 20 21  1  0
 19 22  2  0
 22 23  1  0
 23 24  1  0
 22  3  1  0
 18  7  1  0
 16 10  1  0
M  END
> <From>
www.bindingDB.org

> <BindingDB Reactant_set_id>
51588689

> <Ligand InChI>
InChI=1S/C16H18N2O6/c1-21-11-5-4-9(13(22-2)14(11)23-3)10-8-16(24-18-10)7-6-12(19)17-15(16)20/h4-5H,6-8H2,1-3H3,(H,17,19,20)

> <Ligand InChI Key>
RKTBPSUWUCWUFM-UHFFFAOYSA-N

> <BindingDB MonomerID>
50639646

> <BindingDB Ligand Name>
CHEMBL5559414

> <Target Name>
Protein cereblon

> <Target Source Organism According to Curator or DataSource>
Human

> <Ki (nM)>
 19300

> <IC50 (nM)>


> <Kd (nM)>


> <EC50 (nM)>


> <kon (M-1-s-1)>


> <koff (s-1)>


> <pH>


> <Temp C>


> <Curation/DataSource>
ChEMBL

> <Article DOI>


> <BindingDB Entry DOI>
10.7270/Q2PC3713

> <PMID>
38552426

> <PubChem AID>


> <Patent Number>


> <Authors>
Shevalev, R; Bischof, L; Sapegin, A; Bunev, A; Olga, G; Kantin, G; Kalinin, S; Hartmann, MD

> <Date of publication>
//0

> <Date in BindingDB>
10/11/2025

> <Institution>
Saint Petersburg State University

> <Link to Ligand in BindingDB>
http://www.bindingdb.org/bind/chemsearch/marvin/MolStructure.jsp?monomerid=50639646

> <Link to Ligand-Target Pair in BindingDB>
http://www.bindingdb.org/rwd/jsp/dbsearch/PrimarySearch_ki.jsp?energyterm=kJ/mole&tag=pol&polymerid=50007050&target=Protein+cereblon&column=ki&startPg=0&Increment=50&submit=Search

> <Link to Ligand-Target Pair in BindingDB>
http://www.bindingdb.org/rwd/jsp/dbsearch/PrimarySearch_ki.jsp?energyterm=kJ/mole&tag=r21&monomerid=50639646&enzyme=Protein+cereblon&column=ki&startPg=0&Increment=50&submit=Search

> <Ligand HET ID in PDB>


> <PDB ID(s) for Ligand-Target Complex>


> <PubChem CID of Ligand>
177376706

> <PubChem SID of Ligand>
519660049

> <ChEBI ID of Ligand>


> <ChEMBL ID of Ligand>


> <DrugBank ID of Ligand>


> <IUPHAR_GRAC ID of Ligand>


> <KEGG ID of Ligand>


> <ZINC ID of Ligand>


> <Number of Protein Chains in Target (bigger than 1 implies a multichain complex)>
1

> <BindingDB Target Chain Sequence>
MAGEGDQQDAAHNMGNHLPLLPAESEEEDEMEVEDQDSKEAKKPNIINFDTSLPTSHTYLGADMEEFHGRTLHDDDSCQVIPVLPQVMMILIPGQTLPLQLFHPQEVSMVRNLIQKDRTFAVLAYSNVQEREAQFGTTAEIYAYREEQDFGIEIVKVKAIGRQRFKVLELRTQSDGIQQAKVQILPECVLPSTMSAVQLESLNKCQIFPSKPVSREDQCSYKWWQKYQKRKFHCANLTSWPRWLYSLYDAETLMDRIKKQLREWDENLKDDSLPSNPIDFSYRVAACLPIDDVLRIQLLKIGSAIQRLRCELDIMNKCTSLCCKQCQETEITTKNEIFSLSLCGPMAAYVNPHGYVHETLTVYKACNLNLIGRPSTEHSWFPGYAWTVAQCKICASHIGWKFTATKKDMSPQKFWGLTRSALLPTIPDTEDEISPDKVILCL

> <PDB ID(s) of Target Chain>
9DUR,8TNR,8TNQ,8TNP,9DWW,9DWV,9NGT,9NFR,9NFQ,8D81,8D80,8D7Z,8D7Y,8D7X,8D7W,8D7V,8D7U,8CVP,9Q2D,9Q03,9DQD,8UH6,9SAI,9SAF,9H59,9E2U,6BOY,6BNB,6BN9,6BN8,6BN7,9OUL,9Y7D,6XK9,6UML,5V3O,5HXB,9HNE,9D0X,9D0W,7U8F,9FJX,8OJH,8OIZ,7LPS,9SFM,9OTY,4TZ4,9DJX,9DJT,8U17,8U16,8U15,8TZX,8DEY,9CUO,4M91

> <UniProt (SwissProt) Recommended Name of Target Chain>
Protein cereblon

> <UniProt (SwissProt) Entry Name of Target Chain>
CRBN_HUMAN

> <UniProt (SwissProt) Primary ID of Target Chain>
Q96SW2

> <UniProt (SwissProt) Secondary ID(s) of Target Chain>
B2R6H4 C9IZA9 C9JAH6 Q6AI62 Q6NVZ0 Q9UHW4

> <UniProt (SwissProt) Alternative ID(s) of Target Chain>


> <UniProt (TrEMBL) Submitted Name of Target Chain>


> <UniProt (TrEMBL) Entry Name of Target Chain>


> <UniProt (TrEMBL) Primary ID of Target Chain>


> <UniProt (TrEMBL) Secondary ID(s) of Target Chain>


> <UniProt (TrEMBL) Alternative ID(s) of Target Chain>


$$$$
00285001.cdx
  Mrv0541 01282313532D          

 16 17  0  0  0  0            999 V2000
   -2.1434   -0.2063    0.0000 C   0  0  0  0  0  0  0  0  0  0  0  0
   -2.1434   -1.0313    0.0000 C   0  0  0  0  0  0  0  0  0  0  0  0
   -1.4289   -1.4438    0.0000 N   0  0  0  0  0  0  0  0  0  0  0  0
   -0.7145   -1.0313    0.0000 C   0  0  0  0  0  0  0  0  0  0  0  0
   -0.7145   -0.2063    0.0000 C   0  0  0  0  0  0  0  0  0  0  0  0
   -1.4289    0.2062    0.0000 C   0  0  0  0  0  0  0  0  0  0  0  0
   -2.8579   -1.4438    0.0000 O   0  0  0  0  0  0  0  0  0  0  0  0
    0.0000   -1.4438    0.0000 O   0  0  0  0  0  0  0  0  0  0  0  0
    0.0000    0.2062    0.0000 S   0  0  0  0  0  0  0  0  0  0  0  0
    0.7145   -0.2062    0.0000 C   0  0  0  0  0  0  0  0  0  0  0  0
    1.4289    0.2063    0.0000 C   0  0  0  0  0  0  0  0  0  0  0  0
    2.1434   -0.2062    0.0000 C   0  0  0  0  0  0  0  0  0  0  0  0
    2.8579    0.2063    0.0000 C   0  0  0  0  0  0  0  0  0  0  0  0
    2.8579    1.0313    0.0000 C   0  0  0  0  0  0  0  0  0  0  0  0
    2.1434    1.4438    0.0000 C   0  0  0  0  0  0  0  0  0  0  0  0
    1.4289    1.0313    0.0000 C   0  0  0  0  0  0  0  0  0  0  0  0
  1  2  1  0  0  0  0
  2  3  1  0  0  0  0
  3  4  1  0  0  0  0
  4  5  1  0  0  0  0
  6  1  1  0  0  0  0
  2  7  2  0  0  0  0
  4  8  2  0  0  0  0
  5  9  1  0  0  0  0
  6  5  1  0  0  0  0
  9 10  1  0  0  0  0
 10 11  1  0  0  0  0
 11 12  4  0  0  0  0
 12 13  4  0  0  0  0
 13 14  4  0  0  0  0
 14 15  4  0  0  0  0
 15 16  4  0  0  0  0
 16 11  4  0  0  0  0
M  END
> <From>
www.bindingDB.org

> <BindingDB Reactant_set_id>
51553748

> <Ligand InChI>
InChI=1S/C12H13NO2S/c14-11-7-6-10(12(15)13-11)16-8-9-4-2-1-3-5-9/h1-5,10H,6-8H2,(H,13,14,15)

> <Ligand InChI Key>
QWOOTRSQFSTMBW-UHFFFAOYSA-N

> <BindingDB MonomerID>
581783

> <BindingDB Ligand Name>
US11512080, Compound I-107

> <Target Name>
Protein cereblon

> <Target Source Organism According to Curator or DataSource>
Homo sapiens

> <Ki (nM)>
 20000

> <IC50 (nM)>


> <Kd (nM)>


> <EC50 (nM)>


> <kon (M-1-s-1)>


> <koff (s-1)>


> <pH>


> <Temp C>


> <Curation/DataSource>
ChEMBL

> <Article DOI>
10.1016/j.ejmech.2022.114990

> <BindingDB Entry DOI>
10.7270/Q2F1944V

> <PMID>
36476642

> <PubChem AID>


> <Patent Number>


> <Authors>
n/a

> <Date of publication>
1/15/2023

> <Date in BindingDB>
12/18/2024

> <Institution>
n/a

> <Link to Ligand in BindingDB>
http://www.bindingdb.org/bind/chemsearch/marvin/MolStructure.jsp?monomerid=581783

> <Link to Ligand-Target Pair in BindingDB>
http://www.bindingdb.org/jsp/dbsearch/PrimarySearch_ki.jsp?energyterm=kJ/mole&tag=pol&polymerid=50007050&target=Protein+cereblon&column=ki&startPg=0&Increment=50&submit=Search

> <Link to Ligand-Target Pair in BindingDB>
http://www.bindingdb.org/jsp/dbsearch/PrimarySearch_ki.jsp?energyterm=kJ/mole&tag=r21&monomerid=581783&enzyme=Protein+cereblon&column=ki&startPg=0&Increment=50&submit=Search

> <Ligand HET ID in PDB>


> <PDB ID(s) for Ligand-Target Complex>


> <PubChem CID of Ligand>
142623291

> <PubChem SID of Ligand>
475727604

> <ChEBI ID of Ligand>


> <ChEMBL ID of Ligand>


> <DrugBank ID of Ligand>


> <IUPHAR_GRAC ID of Ligand>


> <KEGG ID of Ligand>


> <ZINC ID of Ligand>


> <Number of Protein Chains in Target (bigger than 1 implies a multichain complex)>
1

> <BindingDB Target Chain Sequence>
MAGEGDQQDAAHNMGNHLPLLPAESEEEDEMEVEDQDSKEAKKPNIINFDTSLPTSHTYLGADMEEFHGRTLHDDDSCQVIPVLPQVMMILIPGQTLPLQLFHPQEVSMVRNLIQKDRTFAVLAYSNVQEREAQFGTTAEIYAYREEQDFGIEIVKVKAIGRQRFKVLELRTQSDGIQQAKVQILPECVLPSTMSAVQLESLNKCQIFPSKPVSREDQCSYKWWQKYQKRKFHCANLTSWPRWLYSLYDAETLMDRIKKQLREWDENLKDDSLPSNPIDFSYRVAACLPIDDVLRIQLLKIGSAIQRLRCELDIMNKCTSLCCKQCQETEITTKNEIFSLSLCGPMAAYVNPHGYVHETLTVYKACNLNLIGRPSTEHSWFPGYAWTVAQCKICASHIGWKFTATKKDMSPQKFWGLTRSALLPTIPDTEDEISPDKVILCL

> <PDB ID(s) of Target Chain>
8TNR,8TNQ,8TNP,8D81,8D80,8D7Z,8D7Y,8D7X,8D7W,8D7V,8D7U,8CVP,9DQD,8UH6,6BOY,6BNB,6BN9,6BN8,6BN7,6XK9,6UML,5V3O,5HXB,7U8F,8OJH,8OIZ,7LPS,4TZ4,9DJX,9DJT,8U17,8U16,8U15,8TZX,8DEY,9CUO,4M91

> <UniProt (SwissProt) Recommended Name of Target Chain>
Protein cereblon

> <UniProt (SwissProt) Entry Name of Target Chain>
CRBN_HUMAN

> <UniProt (SwissProt) Primary ID of Target Chain>
Q96SW2

> <UniProt (SwissProt) Secondary ID(s) of Target Chain>
B2R6H4 C9IZA9 C9JAH6 Q6AI62 Q6NVZ0 Q9UHW4

> <UniProt (SwissProt) Alternative ID(s) of Target Chain>


> <UniProt (TrEMBL) Submitted Name of Target Chain>


> <UniProt (TrEMBL) Entry Name of Target Chain>


> <UniProt (TrEMBL) Primary ID of Target Chain>


> <UniProt (TrEMBL) Secondary ID(s) of Target Chain>


> <UniProt (TrEMBL) Alternative ID(s) of Target Chain>


$$$$

     RDKit          2D

 21 23  0  0  0  0  0  0  0  0999 V2000
    1.7849    5.4933    0.0000 O   0  0  0  0  0  0  0  0  0  0  0  0
    1.3213    4.0667    0.0000 C   0  0  0  0  0  0  0  0  0  0  0  0
    2.3250    2.9520    0.0000 C   0  0  0  0  0  0  0  0  0  0  0  0
    1.8615    1.5254    0.0000 C   0  0  0  0  0  0  0  0  0  0  0  0
    0.3943    1.2135    0.0000 C   0  0  0  0  0  0  0  0  0  0  0  0
    1.2760    0.0000    0.0000 C   0  0  0  0  0  0  0  0  0  0  0  0
    0.3943   -1.2135    0.0000 C   0  0  0  0  0  0  0  0  0  0  0  0
    0.8578   -2.6401    0.0000 C   0  0  0  0  0  0  0  0  0  0  0  0
   -0.1459   -3.7548    0.0000 C   0  0  0  0  0  0  0  0  0  0  0  0
    0.3177   -5.1814    0.0000 C   0  0  0  0  0  0  0  0  0  0  0  0
    1.7849   -5.4933    0.0000 C   0  0  0  0  0  0  0  0  0  0  0  0
    2.2484   -6.9199    0.0000 C   0  0  0  0  0  0  0  0  0  0  0  0
    3.7156   -7.2317    0.0000 O   0  0  0  0  0  0  0  0  0  0  0  0
    1.2447   -8.0346    0.0000 O   0  0  0  0  0  0  0  0  0  0  0  0
    2.7886   -4.3786    0.0000 C   0  0  0  0  0  0  0  0  0  0  0  0
    2.3250   -2.9520    0.0000 C   0  0  0  0  0  0  0  0  0  0  0  0
   -1.0323   -0.7500    0.0000 N   0  0  0  0  0  0  0  0  0  0  0  0
   -1.0323    0.7500    0.0000 O   0  0  0  0  0  0  0  0  0  0  0  0
   -0.6094    2.3282    0.0000 C   0  0  0  0  0  0  0  0  0  0  0  0
   -2.0766    2.0164    0.0000 O   0  0  0  0  0  0  0  0  0  0  0  0
   -0.1459    3.7548    0.0000 N   0  0  0  0  0  0  0  0  0  0  0  0
  1  2  2  0
  2  3  1  0
  3  4  1  0
  4  5  1  0
  5  6  1  0
  6  7  1  0
  7  8  1  0
  8  9  2  0
  9 10  1  0
 10 11  2  0
 11 12  1  0
 12 13  2  0
 12 14  1  0
 11 15  1  0
 15 16  2  0
  7 17  2  0
 17 18  1  0
  5 19  1  0
 19 20  2  0
 19 21  1  0
 21  2  1  0
 18  5  1  0
 16  8  1  0
M  END
> <From>
www.bindingDB.org

> <BindingDB Reactant_set_id>
51588690

> <Ligand InChI>
InChI=1S/C14H12N2O5/c17-11-5-6-14(13(20)15-11)7-10(16-21-14)8-1-3-9(4-2-8)12(18)19/h1-4H,5-7H2,(H,18,19)(H,15,17,20)

> <Ligand InChI Key>
SPXBYVPKKWXMOT-UHFFFAOYSA-N

> <BindingDB MonomerID>
50639647

> <BindingDB Ligand Name>
CHEMBL5559886

> <Target Name>
Protein cereblon

> <Target Source Organism According to Curator or DataSource>
Human

> <Ki (nM)>
 20400

> <IC50 (nM)>


> <Kd (nM)>


> <EC50 (nM)>


> <kon (M-1-s-1)>


> <koff (s-1)>


> <pH>


> <Temp C>


> <Curation/DataSource>
ChEMBL

> <Article DOI>


> <BindingDB Entry DOI>
10.7270/Q2PC3713

> <PMID>
38552426

> <PubChem AID>


> <Patent Number>


> <Authors>
Shevalev, R; Bischof, L; Sapegin, A; Bunev, A; Olga, G; Kantin, G; Kalinin, S; Hartmann, MD

> <Date of publication>
//0

> <Date in BindingDB>
10/11/2025

> <Institution>
Saint Petersburg State University

> <Link to Ligand in BindingDB>
http://www.bindingdb.org/bind/chemsearch/marvin/MolStructure.jsp?monomerid=50639647

> <Link to Ligand-Target Pair in BindingDB>
http://www.bindingdb.org/rwd/jsp/dbsearch/PrimarySearch_ki.jsp?energyterm=kJ/mole&tag=pol&polymerid=50007050&target=Protein+cereblon&column=ki&startPg=0&Increment=50&submit=Search

> <Link to Ligand-Target Pair in BindingDB>
http://www.bindingdb.org/rwd/jsp/dbsearch/PrimarySearch_ki.jsp?energyterm=kJ/mole&tag=r21&monomerid=50639647&enzyme=Protein+cereblon&column=ki&startPg=0&Increment=50&submit=Search

> <Ligand HET ID in PDB>


> <PDB ID(s) for Ligand-Target Complex>


> <PubChem CID of Ligand>
177376707

> <PubChem SID of Ligand>
519660050

> <ChEBI ID of Ligand>


> <ChEMBL ID of Ligand>


> <DrugBank ID of Ligand>


> <IUPHAR_GRAC ID of Ligand>


> <KEGG ID of Ligand>


> <ZINC ID of Ligand>


> <Number of Protein Chains in Target (bigger than 1 implies a multichain complex)>
1

> <BindingDB Target Chain Sequence>
MAGEGDQQDAAHNMGNHLPLLPAESEEEDEMEVEDQDSKEAKKPNIINFDTSLPTSHTYLGADMEEFHGRTLHDDDSCQVIPVLPQVMMILIPGQTLPLQLFHPQEVSMVRNLIQKDRTFAVLAYSNVQEREAQFGTTAEIYAYREEQDFGIEIVKVKAIGRQRFKVLELRTQSDGIQQAKVQILPECVLPSTMSAVQLESLNKCQIFPSKPVSREDQCSYKWWQKYQKRKFHCANLTSWPRWLYSLYDAETLMDRIKKQLREWDENLKDDSLPSNPIDFSYRVAACLPIDDVLRIQLLKIGSAIQRLRCELDIMNKCTSLCCKQCQETEITTKNEIFSLSLCGPMAAYVNPHGYVHETLTVYKACNLNLIGRPSTEHSWFPGYAWTVAQCKICASHIGWKFTATKKDMSPQKFWGLTRSALLPTIPDTEDEISPDKVILCL

> <PDB ID(s) of Target Chain>
9DUR,8TNR,8TNQ,8TNP,9DWW,9DWV,9NGT,9NFR,9NFQ,8D81,8D80,8D7Z,8D7Y,8D7X,8D7W,8D7V,8D7U,8CVP,9Q2D,9Q03,9DQD,8UH6,9SAI,9SAF,9H59,9E2U,6BOY,6BNB,6BN9,6BN8,6BN7,9OUL,9Y7D,6XK9,6UML,5V3O,5HXB,9HNE,9D0X,9D0W,7U8F,9FJX,8OJH,8OIZ,7LPS,9SFM,9OTY,4TZ4,9DJX,9DJT,8U17,8U16,8U15,8TZX,8DEY,9CUO,4M91

> <UniProt (SwissProt) Recommended Name of Target Chain>
Protein cereblon

> <UniProt (SwissProt) Entry Name of Target Chain>
CRBN_HUMAN

> <UniProt (SwissProt) Primary ID of Target Chain>
Q96SW2

> <UniProt (SwissProt) Secondary ID(s) of Target Chain>
B2R6H4 C9IZA9 C9JAH6 Q6AI62 Q6NVZ0 Q9UHW4

> <UniProt (SwissProt) Alternative ID(s) of Target Chain>


> <UniProt (TrEMBL) Submitted Name of Target Chain>


> <UniProt (TrEMBL) Entry Name of Target Chain>


> <UniProt (TrEMBL) Primary ID of Target Chain>


> <UniProt (TrEMBL) Secondary ID(s) of Target Chain>


> <UniProt (TrEMBL) Alternative ID(s) of Target Chain>


$$$$
 
     RDKit          2D

 16 17  0  0  0  0  0  0  0  0999 V2000
   -2.0809   -0.2889    0.0000 C   0  0  0  0  0  0  0  0  0  0  0  0
   -1.3664    0.1235    0.0000 C   0  0  0  0  0  0  0  0  0  0  0  0
   -0.6520   -0.2889    0.0000 C   0  0  0  0  0  0  0  0  0  0  0  0
   -0.6520   -1.1138    0.0000 C   0  0  0  0  0  0  0  0  0  0  0  0
   -1.3664   -1.5263    0.0000 N   0  0  0  0  0  0  0  0  0  0  0  0
   -2.0809   -1.1138    0.0000 C   0  0  0  0  0  0  0  0  0  0  0  0
   -2.7951   -1.5261    0.0000 O   0  0  0  0  0  0  0  0  0  0  0  0
    0.0620   -1.5261    0.0000 O   0  0  0  0  0  0  0  0  0  0  0  0
    0.0620    0.1234    0.0000 C   0  0  0  0  0  0  0  0  0  0  0  0
    0.7763   -0.2889    0.0000 S   0  0  0  0  0  0  0  0  0  0  0  0
    1.4905    0.1234    0.0000 C   0  0  0  0  0  0  0  0  0  0  0  0
    1.5766    0.9431    0.0000 N   0  0  0  0  0  0  0  0  0  0  0  0
    2.3829    1.1145    0.0000 C   0  0  0  0  0  0  0  0  0  0  0  0
    2.7951    0.4007    0.0000 N   0  0  0  0  0  0  0  0  0  0  0  0
    2.2435   -0.2118    0.0000 N   0  0  0  0  0  0  0  0  0  0  0  0
    0.9935    1.5263    0.0000 C   0  0  0  0  0  0  0  0  0  0  0  0
  1  2  1  0
  3  2  1  0
  4  3  1  0
  5  4  1  0
  1  6  1  0
  6  5  1  0
  6  7  2  0
  4  8  2  0
  3  9  1  0
  9 10  1  0
 10 11  1  0
 12 11  1  0
 12 13  1  0
 13 14  2  0
 14 15  1  0
 15 11  2  0
 12 16  1  0
M  END
> <From>
www.bindingDB.org

> <BindingDB Reactant_set_id>
51553732

> <Ligand InChI>
InChI=1S/C9H12N4O2S/c1-13-5-10-12-9(13)16-4-6-2-3-7(14)11-8(6)15/h5-6H,2-4H2,1H3,(H,11,14,15)

> <Ligand InChI Key>
CZCOBCAEKIBJOY-UHFFFAOYSA-N

> <BindingDB MonomerID>
50625125

> <BindingDB Ligand Name>
CHEMBL5420053

> <Target Name>
Protein cereblon

> <Target Source Organism According to Curator or DataSource>
Homo sapiens

> <Ki (nM)>
 21000

> <IC50 (nM)>


> <Kd (nM)>


> <EC50 (nM)>


> <kon (M-1-s-1)>


> <koff (s-1)>


> <pH>


> <Temp C>


> <Curation/DataSource>
ChEMBL

> <Article DOI>
10.1016/j.ejmech.2022.114990

> <BindingDB Entry DOI>
10.7270/Q2F1944V

> <PMID>
36476642

> <PubChem AID>


> <Patent Number>


> <Authors>
n/a

> <Date of publication>
1/15/2023

> <Date in BindingDB>
12/18/2024

> <Institution>
n/a

> <Link to Ligand in BindingDB>
http://www.bindingdb.org/bind/chemsearch/marvin/MolStructure.jsp?monomerid=50625125

> <Link to Ligand-Target Pair in BindingDB>
http://www.bindingdb.org/jsp/dbsearch/PrimarySearch_ki.jsp?energyterm=kJ/mole&tag=pol&polymerid=50007050&target=Protein+cereblon&column=ki&startPg=0&Increment=50&submit=Search

> <Link to Ligand-Target Pair in BindingDB>
http://www.bindingdb.org/jsp/dbsearch/PrimarySearch_ki.jsp?energyterm=kJ/mole&tag=r21&monomerid=50625125&enzyme=Protein+cereblon&column=ki&startPg=0&Increment=50&submit=Search

> <Ligand HET ID in PDB>


> <PDB ID(s) for Ligand-Target Complex>


> <PubChem CID>


> <PubChem SID>


> <ChEBI ID of Ligand>


> <ChEMBL ID of Ligand>


> <DrugBank ID of Ligand>


> <IUPHAR_GRAC ID of Ligand>


> <KEGG ID of Ligand>


> <ZINC ID of Ligand>


> <Number of Protein Chains in Target (bigger than 1 implies a multichain complex)>
1

> <BindingDB Target Chain Sequence>
MAGEGDQQDAAHNMGNHLPLLPAESEEEDEMEVEDQDSKEAKKPNIINFDTSLPTSHTYLGADMEEFHGRTLHDDDSCQVIPVLPQVMMILIPGQTLPLQLFHPQEVSMVRNLIQKDRTFAVLAYSNVQEREAQFGTTAEIYAYREEQDFGIEIVKVKAIGRQRFKVLELRTQSDGIQQAKVQILPECVLPSTMSAVQLESLNKCQIFPSKPVSREDQCSYKWWQKYQKRKFHCANLTSWPRWLYSLYDAETLMDRIKKQLREWDENLKDDSLPSNPIDFSYRVAACLPIDDVLRIQLLKIGSAIQRLRCELDIMNKCTSLCCKQCQETEITTKNEIFSLSLCGPMAAYVNPHGYVHETLTVYKACNLNLIGRPSTEHSWFPGYAWTVAQCKICASHIGWKFTATKKDMSPQKFWGLTRSALLPTIPDTEDEISPDKVILCL

> <PDB ID(s) of Target Chain>
8TNR,8TNQ,8TNP,8D81,8D80,8D7Z,8D7Y,8D7X,8D7W,8D7V,8D7U,8CVP,9DQD,8UH6,6BOY,6BNB,6BN9,6BN8,6BN7,6XK9,6UML,5V3O,5HXB,7U8F,8OJH,8OIZ,7LPS,4TZ4,9DJX,9DJT,8U17,8U16,8U15,8TZX,8DEY,9CUO,4M91

> <UniProt (SwissProt) Recommended Name of Target Chain>
Protein cereblon

> <UniProt (SwissProt) Entry Name of Target Chain>
CRBN_HUMAN

> <UniProt (SwissProt) Primary ID of Target Chain>
Q96SW2

> <UniProt (SwissProt) Secondary ID(s) of Target Chain>
B2R6H4 C9IZA9 C9JAH6 Q6AI62 Q6NVZ0 Q9UHW4

> <UniProt (SwissProt) Alternative ID(s) of Target Chain>


> <UniProt (TrEMBL) Submitted Name of Target Chain>


> <UniProt (TrEMBL) Entry Name of Target Chain>


> <UniProt (TrEMBL) Primary ID of Target Chain>


> <UniProt (TrEMBL) Secondary ID(s) of Target Chain>


> <UniProt (TrEMBL) Alternative ID(s) of Target Chain>


$$$$
 
  Mrv0541 11231401562D          

 19 21  0  0  0  0            999 V2000
    0.8646  -22.9723    0.0000 C   0  0  0  0  0  0  0  0  0  0  0  0
    1.6916  -22.9723    0.0000 C   0  0  0  0  0  0  0  0  0  0  0  0
    2.1028  -22.2600    0.0000 C   0  0  0  0  0  0  0  0  0  0  0  0
    1.6916  -21.5432    0.0000 N   0  0  0  0  0  0  0  0  0  0  0  0
    0.8646  -21.5432    0.0000 C   0  0  0  0  0  0  0  0  0  0  0  0
    0.4488  -22.2600    0.0000 C   0  0  0  0  0  0  0  0  0  0  0  0
   -0.3797  -22.2649    0.0000 N   0  0  0  0  0  0  0  0  0  0  0  0
   -0.8667  -21.5966    0.0000 C   0  0  0  0  0  0  0  0  0  0  0  0
   -0.8649  -22.9346    0.0000 C   0  0  0  0  0  0  0  0  0  0  0  0
   -1.6518  -22.6803    0.0000 C   0  0  0  0  0  0  0  0  0  0  0  0
   -1.6493  -21.8553    0.0000 C   0  0  0  0  0  0  0  0  0  0  0  0
   -2.3613  -21.4425    0.0000 C   0  0  0  0  0  0  0  0  0  0  0  0
   -3.0763  -21.8535    0.0000 C   0  0  0  0  0  0  0  0  0  0  0  0
   -3.0748  -22.6816    0.0000 C   0  0  0  0  0  0  0  0  0  0  0  0
   -2.3622  -23.0907    0.0000 C   0  0  0  0  0  0  0  0  0  0  0  0
   -0.6138  -20.8092    0.0000 O   0  0  0  0  0  0  0  0  0  0  0  0
   -0.6082  -23.7207    0.0000 O   0  0  0  0  0  0  0  0  0  0  0  0
    0.4518  -20.8266    0.0000 O   0  0  0  0  0  0  0  0  0  0  0  0
    2.9298  -22.2612    0.0000 O   0  0  0  0  0  0  0  0  0  0  0  0
  9  7  1  0  0  0  0
  6  7  1  0  0  0  0
  2  3  1  0  0  0  0
  3  4  1  0  0  0  0
 10 11  2  0  0  0  0
  4  5  1  0  0  0  0
 11 12  1  0  0  0  0
  5  6  1  0  0  0  0
 12 13  2  0  0  0  0
  7  8  1  0  0  0  0
 13 14  1  0  0  0  0
 14 15  2  0  0  0  0
 15 10  1  0  0  0  0
  1  2  1  0  0  0  0
  8 16  2  0  0  0  0
  1  6  1  0  0  0  0
  9 17  2  0  0  0  0
  8 11  1  0  0  0  0
  5 18  2  0  0  0  0
 10  9  1  0  0  0  0
  3 19  2  0  0  0  0
M  END
> <From>
www.bindingDB.org

> <BindingDB Reactant_set_id>
50467271

> <Ligand InChI>
InChI=1S/C13H10N2O4/c16-10-6-5-9(11(17)14-10)15-12(18)7-3-1-2-4-8(7)13(15)19/h1-4,9H,5-6H2,(H,14,16,17)

> <Ligand InChI Key>
UEJJHQNACJXSKW-UHFFFAOYSA-N

> <BindingDB MonomerID>
50070114

> <BindingDB Ligand Name>
(+/-)-thalidomide::2-(2,6-Dioxo-piperidin-3-yl)-isoindole-1,3-dione::2-(2,6-dioxopiperidin-3-yl)isoindoline-1,3-dione::CHEMBL468::K-17::THALIDOMIDE::Thalomid::US11059801, Compound D-62::[(R,S)-2-(2,6-dioxo-3-piperidinyl)-1H-isoindole-1,3(2H)-dione

> <Target Name>
Protein cereblon

> <Target Source Organism According to Curator or DataSource>
Human

> <Ki (nM)>
 22700

> <IC50 (nM)>


> <Kd (nM)>


> <EC50 (nM)>


> <kon (M-1-s-1)>


> <koff (s-1)>


> <pH>


> <Temp C>


> <Curation/DataSource>
ChEMBL

> <Article DOI>
10.1021/acs.jmedchem.5b01735

> <BindingDB Entry DOI>
10.7270/Q2PR7XVF

> <PMID>
26730808

> <PubChem AID>


> <Patent Number>


> <Authors>
Boichenko, I; Deiss, S; Bär, K; Hartmann, MD; Hernandez Alvarez, B

> <Date of publication>
1/28/2016

> <Date in BindingDB>
6/17/2017

> <Institution>
Max Planck Institute for Developmental Biology

> <Link to Ligand in BindingDB>
http://www.bindingdb.org/bind/chemsearch/marvin/MolStructure.jsp?monomerid=50070114

> <Link to Ligand-Target Pair in BindingDB>
http://www.bindingdb.org/jsp/dbsearch/PrimarySearch_ki.jsp?energyterm=kJ/mole&tag=pol&polymerid=50007050&target=Protein+cereblon&column=ki&startPg=0&Increment=50&submit=Search

> <Link to Ligand-Target Pair in BindingDB>
http://www.bindingdb.org/jsp/dbsearch/PrimarySearch_ki.jsp?energyterm=kJ/mole&tag=r21&monomerid=50070114&enzyme=Protein+cereblon&column=ki&startPg=0&Increment=50&submit=Search

> <Ligand HET ID in PDB>
EF2

> <PDB ID(s) for Ligand-Target Complex>
4CI1,8BC7,5AMI,5AMH,7BQU,5YIZ,7PSO,4V32,4V2Y,5OH1,5AMK,5AMJ,6R13,6R12,6R19,6R18,6R1C,6R1A,6R1W,6R0U,6R0S,5YJ0,4TZC

> <PubChem CID of Ligand>
5426

> <PubChem SID of Ligand>
103964042

> <ChEBI ID of Ligand>
74947

> <ChEMBL ID of Ligand>
CHEMBL468

> <DrugBank ID of Ligand>
DB01041

> <IUPHAR_GRAC ID of Ligand>
7327

> <KEGG ID of Ligand>
C07910

> <ZINC ID of Ligand>
ZINC01530948

> <Number of Protein Chains in Target (bigger than 1 implies a multichain complex)>
1

> <BindingDB Target Chain Sequence>
MAGEGDQQDAAHNMGNHLPLLPAESEEEDEMEVEDQDSKEAKKPNIINFDTSLPTSHTYLGADMEEFHGRTLHDDDSCQVIPVLPQVMMILIPGQTLPLQLFHPQEVSMVRNLIQKDRTFAVLAYSNVQEREAQFGTTAEIYAYREEQDFGIEIVKVKAIGRQRFKVLELRTQSDGIQQAKVQILPECVLPSTMSAVQLESLNKCQIFPSKPVSREDQCSYKWWQKYQKRKFHCANLTSWPRWLYSLYDAETLMDRIKKQLREWDENLKDDSLPSNPIDFSYRVAACLPIDDVLRIQLLKIGSAIQRLRCELDIMNKCTSLCCKQCQETEITTKNEIFSLSLCGPMAAYVNPHGYVHETLTVYKACNLNLIGRPSTEHSWFPGYAWTVAQCKICASHIGWKFTATKKDMSPQKFWGLTRSALLPTIPDTEDEISPDKVILCL

> <PDB ID(s) of Target Chain>
4TZ4,5HXB,5V3O,6UML,6XK9,7LPS,7U8F,8CVP,8D7U,8D7V,8D7W,8D7X,8D7Y,8D7Z,8D80,8D81,8DEY,8OIZ,8OJH

> <UniProt (SwissProt) Recommended Name of Target Chain>
Protein cereblon

> <UniProt (SwissProt) Entry Name of Target Chain>
CRBN_HUMAN

> <UniProt (SwissProt) Primary ID of Target Chain>
Q96SW2

> <UniProt (SwissProt) Secondary ID(s) of Target Chain>
B2R6H4 C9IZA9 C9JAH6 Q6AI62 Q6NVZ0 Q9UHW4

> <UniProt (SwissProt) Alternative ID(s) of Target Chain>


> <UniProt (TrEMBL) Submitted Name of Target Chain>


> <UniProt (TrEMBL) Entry Name of Target Chain>


> <UniProt (TrEMBL) Primary ID of Target Chain>


> <UniProt (TrEMBL) Secondary ID(s) of Target Chain>


> <UniProt (TrEMBL) Alternative ID(s) of Target Chain>


$$$$
 
     RDKit          2D

 27 28  0  0  0  0  0  0  0  0999 V2000
    0.7159    0.6200    0.0000 C   0  0  0  0  0  0  0  0  0  0  0  0
    0.0013    0.2077    0.0000 C   0  0  0  0  0  0  0  0  0  0  0  0
    0.0013   -0.6207    0.0000 C   0  0  0  0  0  0  0  0  0  0  0  0
    0.7178   -1.0288    0.0000 C   0  0  0  0  0  0  0  0  0  0  0  0
    1.4279   -0.6170    0.0000 C   0  0  0  0  0  0  0  0  0  0  0  0
    1.4279    0.2081    0.0000 C   0  0  0  0  0  0  0  0  0  0  0  0
    2.1425    0.6207    0.0000 C   0  0  0  0  0  0  0  0  0  0  0  0
    2.1425    1.4459    0.0000 O   0  0  0  0  0  0  0  0  0  0  0  0
    2.8571    0.2081    0.0000 N   0  0  0  0  0  0  0  0  0  0  0  0
    3.5718    0.6207    0.0000 C   0  0  0  0  0  0  0  0  0  0  0  0
    3.5717    1.4459    0.0000 C   0  0  0  0  0  0  0  0  0  0  0  0
    4.2864    1.8585    0.0000 C   0  0  0  0  0  0  0  0  0  0  0  0
    5.0010    1.4459    0.0000 C   0  0  0  0  0  0  0  0  0  0  0  0
    5.0010    0.6207    0.0000 N   0  0  0  0  0  0  0  0  0  0  0  0
    4.2864    0.2081    0.0000 C   0  0  0  0  0  0  0  0  0  0  0  0
    4.2864   -0.6170    0.0000 O   0  0  0  0  0  0  0  0  0  0  0  0
    5.7156    1.8585    0.0000 O   0  0  0  0  0  0  0  0  0  0  0  0
    2.1425   -1.0295    0.0000 F   0  0  0  0  0  0  0  0  0  0  0  0
   -0.7131   -1.0331    0.0000 N   0  0  0  0  0  0  0  0  0  0  0  0
   -1.4278   -0.6207    0.0000 C   0  0  0  0  0  0  0  0  0  0  0  0
   -2.1425   -1.0331    0.0000 C   0  0  0  0  0  0  0  0  0  0  0  0
   -2.8571   -0.6207    0.0000 N   0  0  0  0  0  0  0  0  0  0  0  0
   -2.1425   -1.8585    0.0000 O   0  0  0  0  0  0  0  0  0  0  0  0
   -3.5717   -1.0331    0.0000 C   0  0  0  0  0  0  0  0  0  0  0  0
   -4.2864   -0.6207    0.0000 C   0  0  0  0  0  0  0  0  0  0  0  0
   -5.0010   -1.0331    0.0000 C   0  0  0  0  0  0  0  0  0  0  0  0
   -5.7156   -0.6207    0.0000 C   0  0  0  0  0  0  0  0  0  0  0  0
  1  2  2  0
  2  3  1  0
  4  3  2  0
  5  4  1  0
  6  5  2  0
  1  6  1  0
  6  7  1  0
  7  8  2  0
  7  9  1  0
  9 10  1  0
 10 11  1  0
 11 12  1  0
 12 13  1  0
 13 14  1  0
 14 15  1  0
 10 15  1  0
 15 16  2  0
 13 17  2  0
  5 18  1  0
  3 19  1  0
 19 20  1  0
 20 21  1  0
 21 22  1  0
 21 23  2  0
 22 24  1  0
 24 25  1  0
 25 26  1  0
 26 27  1  0
M  END
> <From>
www.bindingDB.org

> <BindingDB Reactant_set_id>
51567949

> <Ligand InChI>
InChI=1S/C18H23FN4O4/c1-2-3-8-20-16(25)10-21-11-4-5-12(13(19)9-11)17(26)22-14-6-7-15(24)23-18(14)27/h4-5,9,14,21H,2-3,6-8,10H2,1H3,(H,20,25)(H,22,26)(H,23,24,27)

> <Ligand InChI Key>
DALJORPGDUPLPV-UHFFFAOYSA-N

> <BindingDB MonomerID>
50630603

> <BindingDB Ligand Name>
CHEMBL5430307

> <Target Name>
Protein cereblon

> <Target Source Organism According to Curator or DataSource>
Homo sapiens

> <Ki (nM)>
 25000

> <IC50 (nM)>


> <Kd (nM)>


> <EC50 (nM)>


> <kon (M-1-s-1)>


> <koff (s-1)>


> <pH>


> <Temp C>


> <Curation/DataSource>
ChEMBL

> <Article DOI>
10.1021/acs.jmedchem.3c00851

> <BindingDB Entry DOI>
10.7270/Q2PK0MM6

> <PMID>
37902300

> <PubChem AID>


> <Patent Number>


> <Authors>
Steinebach, C; Bricelj, A; Murgai, A; Sosič, I; Bischof, L; Ng, YLD; Heim, C; Maiwald, S; Proj, M; Voget, R; Feller, F; Košmrlj, J; Sapozhnikova, V; Schmidt, A; Zuleeg, MR; Lemnitzer, P; Mertins, P; Hansen, FK; Gütschow, M; Krönke, J; Hartmann, MD

> <Date of publication>
11/9/2023

> <Date in BindingDB>
12/20/2024

> <Institution>
University of Bonn

> <Link to Ligand in BindingDB>
http://www.bindingdb.org/bind/chemsearch/marvin/MolStructure.jsp?monomerid=50630603

> <Link to Ligand-Target Pair in BindingDB>
http://www.bindingdb.org/jsp/dbsearch/PrimarySearch_ki.jsp?energyterm=kJ/mole&tag=pol&polymerid=50007050&target=Protein+cereblon&column=ki&startPg=0&Increment=50&submit=Search

> <Link to Ligand-Target Pair in BindingDB>
http://www.bindingdb.org/jsp/dbsearch/PrimarySearch_ki.jsp?energyterm=kJ/mole&tag=r21&monomerid=50630603&enzyme=Protein+cereblon&column=ki&startPg=0&Increment=50&submit=Search

> <Ligand HET ID in PDB>


> <PDB ID(s) for Ligand-Target Complex>


> <PubChem CID of Ligand>
172467732

> <PubChem SID of Ligand>
505048574

> <ChEBI ID of Ligand>


> <ChEMBL ID of Ligand>


> <DrugBank ID of Ligand>


> <IUPHAR_GRAC ID of Ligand>


> <KEGG ID of Ligand>


> <ZINC ID of Ligand>


> <Number of Protein Chains in Target (bigger than 1 implies a multichain complex)>
1

> <BindingDB Target Chain Sequence>
MAGEGDQQDAAHNMGNHLPLLPAESEEEDEMEVEDQDSKEAKKPNIINFDTSLPTSHTYLGADMEEFHGRTLHDDDSCQVIPVLPQVMMILIPGQTLPLQLFHPQEVSMVRNLIQKDRTFAVLAYSNVQEREAQFGTTAEIYAYREEQDFGIEIVKVKAIGRQRFKVLELRTQSDGIQQAKVQILPECVLPSTMSAVQLESLNKCQIFPSKPVSREDQCSYKWWQKYQKRKFHCANLTSWPRWLYSLYDAETLMDRIKKQLREWDENLKDDSLPSNPIDFSYRVAACLPIDDVLRIQLLKIGSAIQRLRCELDIMNKCTSLCCKQCQETEITTKNEIFSLSLCGPMAAYVNPHGYVHETLTVYKACNLNLIGRPSTEHSWFPGYAWTVAQCKICASHIGWKFTATKKDMSPQKFWGLTRSALLPTIPDTEDEISPDKVILCL

> <PDB ID(s) of Target Chain>
8TNR,8TNQ,8TNP,8D81,8D80,8D7Z,8D7Y,8D7X,8D7W,8D7V,8D7U,8CVP,9DQD,8UH6,6BOY,6BNB,6BN9,6BN8,6BN7,6XK9,6UML,5V3O,5HXB,7U8F,8OJH,8OIZ,7LPS,4TZ4,9DJX,9DJT,8U17,8U16,8U15,8TZX,8DEY,9CUO,4M91

> <UniProt (SwissProt) Recommended Name of Target Chain>
Protein cereblon

> <UniProt (SwissProt) Entry Name of Target Chain>
CRBN_HUMAN

> <UniProt (SwissProt) Primary ID of Target Chain>
Q96SW2

> <UniProt (SwissProt) Secondary ID(s) of Target Chain>
B2R6H4 C9IZA9 C9JAH6 Q6AI62 Q6NVZ0 Q9UHW4

> <UniProt (SwissProt) Alternative ID(s) of Target Chain>


> <UniProt (TrEMBL) Submitted Name of Target Chain>


> <UniProt (TrEMBL) Entry Name of Target Chain>


> <UniProt (TrEMBL) Primary ID of Target Chain>


> <UniProt (TrEMBL) Secondary ID(s) of Target Chain>


> <UniProt (TrEMBL) Alternative ID(s) of Target Chain>


$$$$
Maleimide-Related Compound 13
  Mrv0541 11181423152D          

  7  7  0  0  0  0            999 V2000
   -1.5112    0.8106    0.0000 C   0  0  0  0  0  0  0  0  0  0  0  0
   -1.2563    0.0260    0.0000 C   0  0  0  0  0  0  0  0  0  0  0  0
   -0.4312    0.0260    0.0000 C   0  0  0  0  0  0  0  0  0  0  0  0
   -0.1763    0.8106    0.0000 C   0  0  0  0  0  0  0  0  0  0  0  0
   -2.2958    1.0655    0.0000 O   0  0  0  0  0  0  0  0  0  0  0  0
    0.6083    1.0655    0.0000 O   0  0  0  0  0  0  0  0  0  0  0  0
   -0.8438    1.2955    0.0000 N   0  0  0  0  0  0  0  0  0  0  0  0
  7  1  1  0  0  0  0
  7  4  1  0  0  0  0
  1  2  1  0  0  0  0
  3  4  1  0  0  0  0
  1  5  2  0  0  0  0
  4  6  2  0  0  0  0
  2  3  1  0  0  0  0
M  END
> <From>
www.bindingDB.org

> <BindingDB Reactant_set_id>
50467267

> <Ligand InChI>
InChI=1S/C4H5NO2/c6-3-1-2-4(7)5-3/h1-2H2,(H,5,6,7)

> <Ligand InChI Key>
KZNICNPSHKQLFF-UHFFFAOYSA-N

> <BindingDB MonomerID>
7814

> <BindingDB Ligand Name>
Maleimide-Related Compound 13::pyrrolidine-2,5-dione

> <Target Name>
Protein cereblon

> <Target Source Organism According to Curator or DataSource>
Human

> <Ki (nM)>
 26200

> <IC50 (nM)>


> <Kd (nM)>


> <EC50 (nM)>


> <kon (M-1-s-1)>


> <koff (s-1)>


> <pH>


> <Temp C>


> <Curation/DataSource>
ChEMBL

> <Article DOI>
10.1021/acs.jmedchem.5b01735

> <BindingDB Entry DOI>
10.7270/Q2PR7XVF

> <PMID>
26730808

> <PubChem AID>


> <Patent Number>


> <Authors>
Boichenko, I; Deiss, S; Bär, K; Hartmann, MD; Hernandez Alvarez, B

> <Date of publication>
1/28/2016

> <Date in BindingDB>
6/17/2017

> <Institution>
Max Planck Institute for Developmental Biology

> <Link to Ligand in BindingDB>
http://www.bindingdb.org/bind/chemsearch/marvin/MolStructure.jsp?monomerid=7814

> <Link to Ligand-Target Pair in BindingDB>
http://www.bindingdb.org/jsp/dbsearch/PrimarySearch_ki.jsp?energyterm=kJ/mole&tag=pol&polymerid=50007050&target=Protein+cereblon&column=ki&startPg=0&Increment=50&submit=Search

> <Link to Ligand-Target Pair in BindingDB>
http://www.bindingdb.org/jsp/dbsearch/PrimarySearch_ki.jsp?energyterm=kJ/mole&tag=r21&monomerid=7814&enzyme=Protein+cereblon&column=ki&startPg=0&Increment=50&submit=Search

> <Ligand HET ID in PDB>


> <PDB ID(s) for Ligand-Target Complex>


> <PubChem CID of Ligand>
11439

> <PubChem SID of Ligand>
11108588

> <ChEBI ID of Ligand>
9307

> <ChEMBL ID of Ligand>


> <DrugBank ID of Ligand>


> <IUPHAR_GRAC ID of Ligand>


> <KEGG ID of Ligand>
C07273

> <ZINC ID of Ligand>
ZINC05133396

> <Number of Protein Chains in Target (bigger than 1 implies a multichain complex)>
1

> <BindingDB Target Chain Sequence>
MAGEGDQQDAAHNMGNHLPLLPAESEEEDEMEVEDQDSKEAKKPNIINFDTSLPTSHTYLGADMEEFHGRTLHDDDSCQVIPVLPQVMMILIPGQTLPLQLFHPQEVSMVRNLIQKDRTFAVLAYSNVQEREAQFGTTAEIYAYREEQDFGIEIVKVKAIGRQRFKVLELRTQSDGIQQAKVQILPECVLPSTMSAVQLESLNKCQIFPSKPVSREDQCSYKWWQKYQKRKFHCANLTSWPRWLYSLYDAETLMDRIKKQLREWDENLKDDSLPSNPIDFSYRVAACLPIDDVLRIQLLKIGSAIQRLRCELDIMNKCTSLCCKQCQETEITTKNEIFSLSLCGPMAAYVNPHGYVHETLTVYKACNLNLIGRPSTEHSWFPGYAWTVAQCKICASHIGWKFTATKKDMSPQKFWGLTRSALLPTIPDTEDEISPDKVILCL

> <PDB ID(s) of Target Chain>
4TZ4,5HXB,5V3O,6UML,6XK9,7LPS,7U8F,8CVP,8D7U,8D7V,8D7W,8D7X,8D7Y,8D7Z,8D80,8D81,8DEY,8OIZ,8OJH

> <UniProt (SwissProt) Recommended Name of Target Chain>
Protein cereblon

> <UniProt (SwissProt) Entry Name of Target Chain>
CRBN_HUMAN

> <UniProt (SwissProt) Primary ID of Target Chain>
Q96SW2

> <UniProt (SwissProt) Secondary ID(s) of Target Chain>
B2R6H4 C9IZA9 C9JAH6 Q6AI62 Q6NVZ0 Q9UHW4

> <UniProt (SwissProt) Alternative ID(s) of Target Chain>


> <UniProt (TrEMBL) Submitted Name of Target Chain>


> <UniProt (TrEMBL) Entry Name of Target Chain>


> <UniProt (TrEMBL) Primary ID of Target Chain>


> <UniProt (TrEMBL) Secondary ID(s) of Target Chain>


> <UniProt (TrEMBL) Alternative ID(s) of Target Chain>


$$$$

     RDKit          2D

 18 20  0  0  0  0  0  0  0  0999 V2000
    1.7849    5.4933    0.0000 O   0  0  0  0  0  0  0  0  0  0  0  0
    1.3213    4.0667    0.0000 C   0  0  0  0  0  0  0  0  0  0  0  0
    2.3250    2.9520    0.0000 C   0  0  0  0  0  0  0  0  0  0  0  0
    1.8615    1.5254    0.0000 C   0  0  0  0  0  0  0  0  0  0  0  0
    0.3943    1.2135    0.0000 C   0  0  0  0  0  0  0  0  0  0  0  0
    1.2760    0.0000    0.0000 C   0  0  0  0  0  0  0  0  0  0  0  0
    0.3943   -1.2135    0.0000 C   0  0  0  0  0  0  0  0  0  0  0  0
    0.8578   -2.6401    0.0000 C   0  0  0  0  0  0  0  0  0  0  0  0
   -0.1459   -3.7548    0.0000 C   0  0  0  0  0  0  0  0  0  0  0  0
    0.3177   -5.1814    0.0000 C   0  0  0  0  0  0  0  0  0  0  0  0
    1.7849   -5.4933    0.0000 C   0  0  0  0  0  0  0  0  0  0  0  0
    2.7886   -4.3786    0.0000 C   0  0  0  0  0  0  0  0  0  0  0  0
    2.3250   -2.9520    0.0000 C   0  0  0  0  0  0  0  0  0  0  0  0
   -1.0323   -0.7500    0.0000 N   0  0  0  0  0  0  0  0  0  0  0  0
   -1.0323    0.7500    0.0000 O   0  0  0  0  0  0  0  0  0  0  0  0
   -0.6094    2.3282    0.0000 C   0  0  0  0  0  0  0  0  0  0  0  0
   -2.0766    2.0164    0.0000 O   0  0  0  0  0  0  0  0  0  0  0  0
   -0.1459    3.7548    0.0000 N   0  0  0  0  0  0  0  0  0  0  0  0
  1  2  2  0
  2  3  1  0
  3  4  1  0
  4  5  1  0
  5  6  1  0
  6  7  1  0
  7  8  1  0
  8  9  1  0
  9 10  1  0
 10 11  1  0
 11 12  1  0
 12 13  1  0
  7 14  2  0
 14 15  1  0
  5 16  1  0
 16 17  2  0
 16 18  1  0
 18  2  1  0
 15  5  1  0
 13  8  1  0
M  END
> <From>
www.bindingDB.org

> <BindingDB Reactant_set_id>
51588692

> <Ligand InChI>
InChI=1S/C13H18N2O3/c16-11-6-7-13(12(17)14-11)8-10(15-18-13)9-4-2-1-3-5-9/h9H,1-8H2,(H,14,16,17)

> <Ligand InChI Key>
IWVVUHKXQIOZSS-UHFFFAOYSA-N

> <BindingDB MonomerID>
50639649

> <BindingDB Ligand Name>
CHEMBL5557027

> <Target Name>
Protein cereblon

> <Target Source Organism According to Curator or DataSource>
Human

> <Ki (nM)>
 27100

> <IC50 (nM)>


> <Kd (nM)>


> <EC50 (nM)>


> <kon (M-1-s-1)>


> <koff (s-1)>


> <pH>


> <Temp C>


> <Curation/DataSource>
ChEMBL

> <Article DOI>


> <BindingDB Entry DOI>
10.7270/Q2PC3713

> <PMID>
38552426

> <PubChem AID>


> <Patent Number>


> <Authors>
Shevalev, R; Bischof, L; Sapegin, A; Bunev, A; Olga, G; Kantin, G; Kalinin, S; Hartmann, MD

> <Date of publication>
//0

> <Date in BindingDB>
10/11/2025

> <Institution>
Saint Petersburg State University

> <Link to Ligand in BindingDB>
http://www.bindingdb.org/bind/chemsearch/marvin/MolStructure.jsp?monomerid=50639649

> <Link to Ligand-Target Pair in BindingDB>
http://www.bindingdb.org/rwd/jsp/dbsearch/PrimarySearch_ki.jsp?energyterm=kJ/mole&tag=pol&polymerid=50007050&target=Protein+cereblon&column=ki&startPg=0&Increment=50&submit=Search

> <Link to Ligand-Target Pair in BindingDB>
http://www.bindingdb.org/rwd/jsp/dbsearch/PrimarySearch_ki.jsp?energyterm=kJ/mole&tag=r21&monomerid=50639649&enzyme=Protein+cereblon&column=ki&startPg=0&Increment=50&submit=Search

> <Ligand HET ID in PDB>


> <PDB ID(s) for Ligand-Target Complex>


> <PubChem CID of Ligand>
177376709

> <PubChem SID of Ligand>
519660052

> <ChEBI ID of Ligand>


> <ChEMBL ID of Ligand>


> <DrugBank ID of Ligand>


> <IUPHAR_GRAC ID of Ligand>


> <KEGG ID of Ligand>


> <ZINC ID of Ligand>


> <Number of Protein Chains in Target (bigger than 1 implies a multichain complex)>
1

> <BindingDB Target Chain Sequence>
MAGEGDQQDAAHNMGNHLPLLPAESEEEDEMEVEDQDSKEAKKPNIINFDTSLPTSHTYLGADMEEFHGRTLHDDDSCQVIPVLPQVMMILIPGQTLPLQLFHPQEVSMVRNLIQKDRTFAVLAYSNVQEREAQFGTTAEIYAYREEQDFGIEIVKVKAIGRQRFKVLELRTQSDGIQQAKVQILPECVLPSTMSAVQLESLNKCQIFPSKPVSREDQCSYKWWQKYQKRKFHCANLTSWPRWLYSLYDAETLMDRIKKQLREWDENLKDDSLPSNPIDFSYRVAACLPIDDVLRIQLLKIGSAIQRLRCELDIMNKCTSLCCKQCQETEITTKNEIFSLSLCGPMAAYVNPHGYVHETLTVYKACNLNLIGRPSTEHSWFPGYAWTVAQCKICASHIGWKFTATKKDMSPQKFWGLTRSALLPTIPDTEDEISPDKVILCL

> <PDB ID(s) of Target Chain>
9DUR,8TNR,8TNQ,8TNP,9DWW,9DWV,9NGT,9NFR,9NFQ,8D81,8D80,8D7Z,8D7Y,8D7X,8D7W,8D7V,8D7U,8CVP,9Q2D,9Q03,9DQD,8UH6,9SAI,9SAF,9H59,9E2U,6BOY,6BNB,6BN9,6BN8,6BN7,9OUL,9Y7D,6XK9,6UML,5V3O,5HXB,9HNE,9D0X,9D0W,7U8F,9FJX,8OJH,8OIZ,7LPS,9SFM,9OTY,4TZ4,9DJX,9DJT,8U17,8U16,8U15,8TZX,8DEY,9CUO,4M91

> <UniProt (SwissProt) Recommended Name of Target Chain>
Protein cereblon

> <UniProt (SwissProt) Entry Name of Target Chain>
CRBN_HUMAN

> <UniProt (SwissProt) Primary ID of Target Chain>
Q96SW2

> <UniProt (SwissProt) Secondary ID(s) of Target Chain>
B2R6H4 C9IZA9 C9JAH6 Q6AI62 Q6NVZ0 Q9UHW4

> <UniProt (SwissProt) Alternative ID(s) of Target Chain>


> <UniProt (TrEMBL) Submitted Name of Target Chain>


> <UniProt (TrEMBL) Entry Name of Target Chain>


> <UniProt (TrEMBL) Primary ID of Target Chain>


> <UniProt (TrEMBL) Secondary ID(s) of Target Chain>


> <UniProt (TrEMBL) Alternative ID(s) of Target Chain>


$$$$

  SciTegic12131615192D

  8  8  0  0  0  0            999 V2000
    1.2990   -0.7500    0.0000 C   0  0
    1.2990    0.7500    0.0000 C   0  0
    0.0000    1.5000    0.0000 C   0  0
   -1.2990    0.7500    0.0000 C   0  0
   -1.2990   -0.7500    0.0000 C   0  0
    0.0000   -1.5000    0.0000 N   0  0
    2.3383   -1.3500    0.0000 O   0  0
   -2.3383   -1.3500    0.0000 O   0  0
  1  2  1  0
  1  6  1  0
  2  3  1  0
  3  4  1  0
  4  5  1  0
  5  6  1  0
  1  7  2  0
  5  8  2  0
M  END
> <From>
www.bindingDB.org

> <BindingDB Reactant_set_id>
51545422

> <Ligand InChI>
InChI=1S/C5H7NO2/c7-4-2-1-3-5(8)6-4/h1-3H2,(H,6,7,8)

> <Ligand InChI Key>
KNCYXPMJDCCGSJ-UHFFFAOYSA-N

> <BindingDB MonomerID>
50146597

> <BindingDB Ligand Name>
CHEMBL3763941

> <Target Name>
Protein cereblon

> <Target Source Organism According to Curator or DataSource>
Homo sapiens

> <Ki (nM)>
 28000

> <IC50 (nM)>


> <Kd (nM)>


> <EC50 (nM)>


> <kon (M-1-s-1)>


> <koff (s-1)>


> <pH>


> <Temp C>


> <Curation/DataSource>
ChEMBL

> <Article DOI>
10.1021/acs.jmedchem.2c01882

> <BindingDB Entry DOI>
10.7270/Q2SJ1R0R

> <PMID>
36821822

> <PubChem AID>


> <Patent Number>


> <Authors>
n/a

> <Date of publication>
3/9/2023

> <Date in BindingDB>
12/16/2024

> <Institution>
n/a

> <Link to Ligand in BindingDB>
http://www.bindingdb.org/bind/chemsearch/marvin/MolStructure.jsp?monomerid=50146597

> <Link to Ligand-Target Pair in BindingDB>
http://www.bindingdb.org/jsp/dbsearch/PrimarySearch_ki.jsp?energyterm=kJ/mole&tag=pol&polymerid=50007050&target=Protein+cereblon&column=ki&startPg=0&Increment=50&submit=Search

> <Link to Ligand-Target Pair in BindingDB>
http://www.bindingdb.org/jsp/dbsearch/PrimarySearch_ki.jsp?energyterm=kJ/mole&tag=r21&monomerid=50146597&enzyme=Protein+cereblon&column=ki&startPg=0&Increment=50&submit=Search

> <Ligand HET ID in PDB>
9UZ    

> <PDB ID(s) for Ligand-Target Complex>
5OH4

> <PubChem CID of Ligand>
10179224

> <PubChem SID of Ligand>
104035186

> <ChEBI ID of Ligand>


> <ChEMBL ID of Ligand>
CHEMBL3763941

> <DrugBank ID of Ligand>


> <IUPHAR_GRAC ID of Ligand>


> <KEGG ID of Ligand>
C07275

> <ZINC ID of Ligand>
ZINC13560999

> <Number of Protein Chains in Target (bigger than 1 implies a multichain complex)>
1

> <BindingDB Target Chain Sequence>
MAGEGDQQDAAHNMGNHLPLLPAESEEEDEMEVEDQDSKEAKKPNIINFDTSLPTSHTYLGADMEEFHGRTLHDDDSCQVIPVLPQVMMILIPGQTLPLQLFHPQEVSMVRNLIQKDRTFAVLAYSNVQEREAQFGTTAEIYAYREEQDFGIEIVKVKAIGRQRFKVLELRTQSDGIQQAKVQILPECVLPSTMSAVQLESLNKCQIFPSKPVSREDQCSYKWWQKYQKRKFHCANLTSWPRWLYSLYDAETLMDRIKKQLREWDENLKDDSLPSNPIDFSYRVAACLPIDDVLRIQLLKIGSAIQRLRCELDIMNKCTSLCCKQCQETEITTKNEIFSLSLCGPMAAYVNPHGYVHETLTVYKACNLNLIGRPSTEHSWFPGYAWTVAQCKICASHIGWKFTATKKDMSPQKFWGLTRSALLPTIPDTEDEISPDKVILCL

> <PDB ID(s) of Target Chain>
8TNR,8TNQ,8TNP,8D81,8D80,8D7Z,8D7Y,8D7X,8D7W,8D7V,8D7U,8CVP,9DQD,8UH6,6BOY,6BNB,6BN9,6BN8,6BN7,6XK9,6UML,5V3O,5HXB,7U8F,8OJH,8OIZ,7LPS,4TZ4,9DJX,9DJT,8U17,8U16,8U15,8TZX,8DEY,9CUO,4M91

> <UniProt (SwissProt) Recommended Name of Target Chain>
Protein cereblon

> <UniProt (SwissProt) Entry Name of Target Chain>
CRBN_HUMAN

> <UniProt (SwissProt) Primary ID of Target Chain>
Q96SW2

> <UniProt (SwissProt) Secondary ID(s) of Target Chain>
B2R6H4 C9IZA9 C9JAH6 Q6AI62 Q6NVZ0 Q9UHW4

> <UniProt (SwissProt) Alternative ID(s) of Target Chain>


> <UniProt (TrEMBL) Submitted Name of Target Chain>


> <UniProt (TrEMBL) Entry Name of Target Chain>


> <UniProt (TrEMBL) Primary ID of Target Chain>


> <UniProt (TrEMBL) Secondary ID(s) of Target Chain>


> <UniProt (TrEMBL) Alternative ID(s) of Target Chain>


$$$$
 
     RDKit          2D

 19 20  0  0  0  0  0  0  0  0999 V2000
   -1.7852    0.2074    0.0000 C   0  0  0  0  0  0  0  0  0  0  0  0
   -2.4998   -0.2048    0.0000 C   0  0  0  0  0  0  0  0  0  0  0  0
   -2.4998   -1.0332    0.0000 C   0  0  0  0  0  0  0  0  0  0  0  0
   -1.7833   -1.4413    0.0000 C   0  0  0  0  0  0  0  0  0  0  0  0
   -1.0733   -1.0295    0.0000 C   0  0  0  0  0  0  0  0  0  0  0  0
   -1.0733   -0.2044    0.0000 C   0  0  0  0  0  0  0  0  0  0  0  0
   -0.3586    0.2081    0.0000 C   0  0  0  0  0  0  0  0  0  0  0  0
   -0.3586    1.0333    0.0000 O   0  0  0  0  0  0  0  0  0  0  0  0
    0.3559   -0.2044    0.0000 N   0  0  0  0  0  0  0  0  0  0  0  0
    1.0705    0.2081    0.0000 C   0  0  0  0  0  0  0  0  0  0  0  0
    1.0705    1.0333    0.0000 C   0  0  0  0  0  0  0  0  0  0  0  0
    1.7852    1.4459    0.0000 C   0  0  0  0  0  0  0  0  0  0  0  0
    2.4998    1.0332    0.0000 C   0  0  0  0  0  0  0  0  0  0  0  0
    2.4998    0.2081    0.0000 N   0  0  0  0  0  0  0  0  0  0  0  0
    1.7852   -0.2044    0.0000 C   0  0  0  0  0  0  0  0  0  0  0  0
    1.7852   -1.0295    0.0000 O   0  0  0  0  0  0  0  0  0  0  0  0
    3.2144    1.4459    0.0000 O   0  0  0  0  0  0  0  0  0  0  0  0
   -3.2144   -1.4459    0.0000 N   0  0  0  0  0  0  0  0  0  0  0  0
   -0.3586   -1.4422    0.0000 Cl  0  0  0  0  0  0  0  0  0  0  0  0
  1  2  2  0
  2  3  1  0
  4  3  2  0
  5  4  1  0
  6  5  2  0
  1  6  1  0
  6  7  1  0
  7  8  2  0
  7  9  1  0
  9 10  1  0
 10 11  1  0
 11 12  1  0
 12 13  1  0
 13 14  1  0
 14 15  1  0
 10 15  1  0
 15 16  2  0
 13 17  2  0
  3 18  1  0
  5 19  1  0
M  END
> <From>
www.bindingDB.org

> <BindingDB Reactant_set_id>
51567942

> <Ligand InChI>
InChI=1S/C12H12ClN3O3/c13-8-5-6(14)1-2-7(8)11(18)15-9-3-4-10(17)16-12(9)19/h1-2,5,9H,3-4,14H2,(H,15,18)(H,16,17,19)

> <Ligand InChI Key>
ODBDBMXVJIBLEY-UHFFFAOYSA-N

> <BindingDB MonomerID>
50630596

> <BindingDB Ligand Name>
CHEMBL5405702

> <Target Name>
Protein cereblon

> <Target Source Organism According to Curator or DataSource>
Homo sapiens

> <Ki (nM)>
 28000

> <IC50 (nM)>


> <Kd (nM)>


> <EC50 (nM)>


> <kon (M-1-s-1)>


> <koff (s-1)>


> <pH>


> <Temp C>


> <Curation/DataSource>
ChEMBL

> <Article DOI>
10.1021/acs.jmedchem.3c00851

> <BindingDB Entry DOI>
10.7270/Q2PK0MM6

> <PMID>
37902300

> <PubChem AID>


> <Patent Number>


> <Authors>
Steinebach, C; Bricelj, A; Murgai, A; Sosič, I; Bischof, L; Ng, YLD; Heim, C; Maiwald, S; Proj, M; Voget, R; Feller, F; Košmrlj, J; Sapozhnikova, V; Schmidt, A; Zuleeg, MR; Lemnitzer, P; Mertins, P; Hansen, FK; Gütschow, M; Krönke, J; Hartmann, MD

> <Date of publication>
11/9/2023

> <Date in BindingDB>
12/20/2024

> <Institution>
University of Bonn

> <Link to Ligand in BindingDB>
http://www.bindingdb.org/bind/chemsearch/marvin/MolStructure.jsp?monomerid=50630596

> <Link to Ligand-Target Pair in BindingDB>
http://www.bindingdb.org/jsp/dbsearch/PrimarySearch_ki.jsp?energyterm=kJ/mole&tag=pol&polymerid=50007050&target=Protein+cereblon&column=ki&startPg=0&Increment=50&submit=Search

> <Link to Ligand-Target Pair in BindingDB>
http://www.bindingdb.org/jsp/dbsearch/PrimarySearch_ki.jsp?energyterm=kJ/mole&tag=r21&monomerid=50630596&enzyme=Protein+cereblon&column=ki&startPg=0&Increment=50&submit=Search

> <Ligand HET ID in PDB>
W2F    

> <PDB ID(s) for Ligand-Target Complex>
8OU4

> <PubChem CID of Ligand>
65955448

> <PubChem SID of Ligand>
505048567

> <ChEBI ID of Ligand>


> <ChEMBL ID of Ligand>


> <DrugBank ID of Ligand>


> <IUPHAR_GRAC ID of Ligand>


> <KEGG ID of Ligand>


> <ZINC ID of Ligand>


> <Number of Protein Chains in Target (bigger than 1 implies a multichain complex)>
1

> <BindingDB Target Chain Sequence>
MAGEGDQQDAAHNMGNHLPLLPAESEEEDEMEVEDQDSKEAKKPNIINFDTSLPTSHTYLGADMEEFHGRTLHDDDSCQVIPVLPQVMMILIPGQTLPLQLFHPQEVSMVRNLIQKDRTFAVLAYSNVQEREAQFGTTAEIYAYREEQDFGIEIVKVKAIGRQRFKVLELRTQSDGIQQAKVQILPECVLPSTMSAVQLESLNKCQIFPSKPVSREDQCSYKWWQKYQKRKFHCANLTSWPRWLYSLYDAETLMDRIKKQLREWDENLKDDSLPSNPIDFSYRVAACLPIDDVLRIQLLKIGSAIQRLRCELDIMNKCTSLCCKQCQETEITTKNEIFSLSLCGPMAAYVNPHGYVHETLTVYKACNLNLIGRPSTEHSWFPGYAWTVAQCKICASHIGWKFTATKKDMSPQKFWGLTRSALLPTIPDTEDEISPDKVILCL

> <PDB ID(s) of Target Chain>
8TNR,8TNQ,8TNP,8D81,8D80,8D7Z,8D7Y,8D7X,8D7W,8D7V,8D7U,8CVP,9DQD,8UH6,6BOY,6BNB,6BN9,6BN8,6BN7,6XK9,6UML,5V3O,5HXB,7U8F,8OJH,8OIZ,7LPS,4TZ4,9DJX,9DJT,8U17,8U16,8U15,8TZX,8DEY,9CUO,4M91

> <UniProt (SwissProt) Recommended Name of Target Chain>
Protein cereblon

> <UniProt (SwissProt) Entry Name of Target Chain>
CRBN_HUMAN

> <UniProt (SwissProt) Primary ID of Target Chain>
Q96SW2

> <UniProt (SwissProt) Secondary ID(s) of Target Chain>
B2R6H4 C9IZA9 C9JAH6 Q6AI62 Q6NVZ0 Q9UHW4

> <UniProt (SwissProt) Alternative ID(s) of Target Chain>


> <UniProt (TrEMBL) Submitted Name of Target Chain>


> <UniProt (TrEMBL) Entry Name of Target Chain>


> <UniProt (TrEMBL) Primary ID of Target Chain>


> <UniProt (TrEMBL) Secondary ID(s) of Target Chain>


> <UniProt (TrEMBL) Alternative ID(s) of Target Chain>


$$$$
 
     RDKit          2D

 19 20  0  0  0  0  0  0  0  0999 V2000
   -2.4998   -0.2048    0.0000 C   0  0  0  0  0  0  0  0  0  0  0  0
   -1.7852    0.2074    0.0000 C   0  0  0  0  0  0  0  0  0  0  0  0
   -1.0733   -0.2044    0.0000 C   0  0  0  0  0  0  0  0  0  0  0  0
   -1.0733   -1.0296    0.0000 C   0  0  0  0  0  0  0  0  0  0  0  0
   -1.7834   -1.4414    0.0000 C   0  0  0  0  0  0  0  0  0  0  0  0
   -2.4998   -1.0333    0.0000 C   0  0  0  0  0  0  0  0  0  0  0  0
   -0.3587    0.2081    0.0000 C   0  0  0  0  0  0  0  0  0  0  0  0
   -0.3587    1.0333    0.0000 O   0  0  0  0  0  0  0  0  0  0  0  0
    0.3558   -0.2044    0.0000 N   0  0  0  0  0  0  0  0  0  0  0  0
    1.0705    0.2081    0.0000 C   0  0  0  0  0  0  0  0  0  0  0  0
    1.0705    1.0333    0.0000 C   0  0  0  0  0  0  0  0  0  0  0  0
    1.7851    1.4459    0.0000 C   0  0  0  0  0  0  0  0  0  0  0  0
    2.4998    1.0333    0.0000 C   0  0  0  0  0  0  0  0  0  0  0  0
    2.4998    0.2081    0.0000 N   0  0  0  0  0  0  0  0  0  0  0  0
    1.7851   -0.2044    0.0000 C   0  0  0  0  0  0  0  0  0  0  0  0
    1.7851   -1.0296    0.0000 O   0  0  0  0  0  0  0  0  0  0  0  0
    3.2144    1.4459    0.0000 O   0  0  0  0  0  0  0  0  0  0  0  0
   -0.3587   -1.4422    0.0000 F   0  0  0  0  0  0  0  0  0  0  0  0
   -3.2144   -1.4459    0.0000 N   0  0  0  0  0  0  0  0  0  0  0  0
  2  1  2  0
  3  2  1  0
  4  3  2  0
  5  4  1  0
  6  5  2  0
  1  6  1  0
  3  7  1  0
  7  8  2  0
  7  9  1  0
  9 10  1  0
 11 10  1  0
 12 11  1  0
 13 12  1  0
 14 13  1  0
 15 14  1  0
 10 15  1  0
 15 16  2  0
 13 17  2  0
  4 18  1  0
  6 19  1  0
M  END
> <From>
www.bindingDB.org

> <BindingDB Reactant_set_id>
51567939

> <Ligand InChI>
InChI=1S/C12H12FN3O3/c13-8-5-6(14)1-2-7(8)11(18)15-9-3-4-10(17)16-12(9)19/h1-2,5,9H,3-4,14H2,(H,15,18)(H,16,17,19)

> <Ligand InChI Key>
PDXLABFIWQGDLW-UHFFFAOYSA-N

> <BindingDB MonomerID>
50630593

> <BindingDB Ligand Name>
CHEMBL5410980

> <Target Name>
Protein cereblon

> <Target Source Organism According to Curator or DataSource>
Homo sapiens

> <Ki (nM)>
 29000

> <IC50 (nM)>


> <Kd (nM)>


> <EC50 (nM)>


> <kon (M-1-s-1)>


> <koff (s-1)>


> <pH>


> <Temp C>


> <Curation/DataSource>
ChEMBL

> <Article DOI>
10.1021/acs.jmedchem.3c00851

> <BindingDB Entry DOI>
10.7270/Q2PK0MM6

> <PMID>
37902300

> <PubChem AID>


> <Patent Number>


> <Authors>
Steinebach, C; Bricelj, A; Murgai, A; Sosič, I; Bischof, L; Ng, YLD; Heim, C; Maiwald, S; Proj, M; Voget, R; Feller, F; Košmrlj, J; Sapozhnikova, V; Schmidt, A; Zuleeg, MR; Lemnitzer, P; Mertins, P; Hansen, FK; Gütschow, M; Krönke, J; Hartmann, MD

> <Date of publication>
11/9/2023

> <Date in BindingDB>
12/20/2024

> <Institution>
University of Bonn

> <Link to Ligand in BindingDB>
http://www.bindingdb.org/bind/chemsearch/marvin/MolStructure.jsp?monomerid=50630593

> <Link to Ligand-Target Pair in BindingDB>
http://www.bindingdb.org/jsp/dbsearch/PrimarySearch_ki.jsp?energyterm=kJ/mole&tag=pol&polymerid=50007050&target=Protein+cereblon&column=ki&startPg=0&Increment=50&submit=Search

> <Link to Ligand-Target Pair in BindingDB>
http://www.bindingdb.org/jsp/dbsearch/PrimarySearch_ki.jsp?energyterm=kJ/mole&tag=r21&monomerid=50630593&enzyme=Protein+cereblon&column=ki&startPg=0&Increment=50&submit=Search

> <Ligand HET ID in PDB>
W1T    

> <PDB ID(s) for Ligand-Target Complex>
8OU3

> <PubChem CID of Ligand>
65956251

> <PubChem SID of Ligand>
505048564

> <ChEBI ID of Ligand>


> <ChEMBL ID of Ligand>


> <DrugBank ID of Ligand>


> <IUPHAR_GRAC ID of Ligand>


> <KEGG ID of Ligand>


> <ZINC ID of Ligand>


> <Number of Protein Chains in Target (bigger than 1 implies a multichain complex)>
1

> <BindingDB Target Chain Sequence>
MAGEGDQQDAAHNMGNHLPLLPAESEEEDEMEVEDQDSKEAKKPNIINFDTSLPTSHTYLGADMEEFHGRTLHDDDSCQVIPVLPQVMMILIPGQTLPLQLFHPQEVSMVRNLIQKDRTFAVLAYSNVQEREAQFGTTAEIYAYREEQDFGIEIVKVKAIGRQRFKVLELRTQSDGIQQAKVQILPECVLPSTMSAVQLESLNKCQIFPSKPVSREDQCSYKWWQKYQKRKFHCANLTSWPRWLYSLYDAETLMDRIKKQLREWDENLKDDSLPSNPIDFSYRVAACLPIDDVLRIQLLKIGSAIQRLRCELDIMNKCTSLCCKQCQETEITTKNEIFSLSLCGPMAAYVNPHGYVHETLTVYKACNLNLIGRPSTEHSWFPGYAWTVAQCKICASHIGWKFTATKKDMSPQKFWGLTRSALLPTIPDTEDEISPDKVILCL

> <PDB ID(s) of Target Chain>
8TNR,8TNQ,8TNP,8D81,8D80,8D7Z,8D7Y,8D7X,8D7W,8D7V,8D7U,8CVP,9DQD,8UH6,6BOY,6BNB,6BN9,6BN8,6BN7,6XK9,6UML,5V3O,5HXB,7U8F,8OJH,8OIZ,7LPS,4TZ4,9DJX,9DJT,8U17,8U16,8U15,8TZX,8DEY,9CUO,4M91

> <UniProt (SwissProt) Recommended Name of Target Chain>
Protein cereblon

> <UniProt (SwissProt) Entry Name of Target Chain>
CRBN_HUMAN

> <UniProt (SwissProt) Primary ID of Target Chain>
Q96SW2

> <UniProt (SwissProt) Secondary ID(s) of Target Chain>
B2R6H4 C9IZA9 C9JAH6 Q6AI62 Q6NVZ0 Q9UHW4

> <UniProt (SwissProt) Alternative ID(s) of Target Chain>


> <UniProt (TrEMBL) Submitted Name of Target Chain>


> <UniProt (TrEMBL) Entry Name of Target Chain>


> <UniProt (TrEMBL) Primary ID of Target Chain>


> <UniProt (TrEMBL) Secondary ID(s) of Target Chain>


> <UniProt (TrEMBL) Alternative ID(s) of Target Chain>


$$$$
 
     RDKit          2D

 23 24  0  0  0  0  0  0  0  0999 V2000
   -1.0705    1.4452    0.0000 C   0  0  0  0  0  0  0  0  0  0  0  0
   -1.7851    1.0329    0.0000 C   0  0  0  0  0  0  0  0  0  0  0  0
   -1.7851    0.2044    0.0000 C   0  0  0  0  0  0  0  0  0  0  0  0
   -1.0688   -0.2036    0.0000 C   0  0  0  0  0  0  0  0  0  0  0  0
   -0.3586    0.2081    0.0000 C   0  0  0  0  0  0  0  0  0  0  0  0
   -0.3586    1.0333    0.0000 C   0  0  0  0  0  0  0  0  0  0  0  0
    0.3559    1.4459    0.0000 C   0  0  0  0  0  0  0  0  0  0  0  0
    0.3559    2.2711    0.0000 O   0  0  0  0  0  0  0  0  0  0  0  0
    1.0705    1.0333    0.0000 N   0  0  0  0  0  0  0  0  0  0  0  0
    1.7852    1.4459    0.0000 C   0  0  0  0  0  0  0  0  0  0  0  0
    1.7852    2.2711    0.0000 C   0  0  0  0  0  0  0  0  0  0  0  0
    2.4998    2.6837    0.0000 C   0  0  0  0  0  0  0  0  0  0  0  0
    3.2144    2.2710    0.0000 C   0  0  0  0  0  0  0  0  0  0  0  0
    3.2144    1.4459    0.0000 N   0  0  0  0  0  0  0  0  0  0  0  0
    2.4998    1.0333    0.0000 C   0  0  0  0  0  0  0  0  0  0  0  0
    2.4998    0.2081    0.0000 O   0  0  0  0  0  0  0  0  0  0  0  0
    3.9291    2.6837    0.0000 O   0  0  0  0  0  0  0  0  0  0  0  0
    0.3559   -0.2044    0.0000 F   0  0  0  0  0  0  0  0  0  0  0  0
   -2.4998   -0.2081    0.0000 N   0  0  0  0  0  0  0  0  0  0  0  0
   -2.4998   -1.0333    0.0000 C   0  0  0  0  0  0  0  0  0  0  0  0
   -3.2144   -1.4459    0.0000 C   0  0  0  0  0  0  0  0  0  0  0  0
   -3.2144   -2.2711    0.0000 C   0  0  0  0  0  0  0  0  0  0  0  0
   -3.9291   -2.6837    0.0000 C   0  0  0  0  0  0  0  0  0  0  0  0
  1  2  2  0
  2  3  1  0
  4  3  2  0
  5  4  1  0
  6  5  2  0
  1  6  1  0
  6  7  1  0
  7  8  2  0
  7  9  1  0
  9 10  1  0
 10 11  1  0
 11 12  1  0
 12 13  1  0
 13 14  1  0
 14 15  1  0
 10 15  1  0
 15 16  2  0
 13 17  2  0
  5 18  1  0
  3 19  1  0
 19 20  1  0
 20 21  1  0
 21 22  1  0
 22 23  1  0
M  END
> <From>
www.bindingDB.org

> <BindingDB Reactant_set_id>
51567948

> <Ligand InChI>
InChI=1S/C16H20FN3O3/c1-2-3-8-18-10-4-5-11(12(17)9-10)15(22)19-13-6-7-14(21)20-16(13)23/h4-5,9,13,18H,2-3,6-8H2,1H3,(H,19,22)(H,20,21,23)

> <Ligand InChI Key>
KGCOGSOWVBFTKN-UHFFFAOYSA-N

> <BindingDB MonomerID>
50630602

> <BindingDB Ligand Name>
CHEMBL5416921

> <Target Name>
Protein cereblon

> <Target Source Organism According to Curator or DataSource>
Homo sapiens

> <Ki (nM)>
 29000

> <IC50 (nM)>


> <Kd (nM)>


> <EC50 (nM)>


> <kon (M-1-s-1)>


> <koff (s-1)>


> <pH>


> <Temp C>


> <Curation/DataSource>
ChEMBL

> <Article DOI>
10.1021/acs.jmedchem.3c00851

> <BindingDB Entry DOI>
10.7270/Q2PK0MM6

> <PMID>
37902300

> <PubChem AID>


> <Patent Number>


> <Authors>
Steinebach, C; Bricelj, A; Murgai, A; Sosič, I; Bischof, L; Ng, YLD; Heim, C; Maiwald, S; Proj, M; Voget, R; Feller, F; Košmrlj, J; Sapozhnikova, V; Schmidt, A; Zuleeg, MR; Lemnitzer, P; Mertins, P; Hansen, FK; Gütschow, M; Krönke, J; Hartmann, MD

> <Date of publication>
11/9/2023

> <Date in BindingDB>
12/20/2024

> <Institution>
University of Bonn

> <Link to Ligand in BindingDB>
http://www.bindingdb.org/bind/chemsearch/marvin/MolStructure.jsp?monomerid=50630602

> <Link to Ligand-Target Pair in BindingDB>
http://www.bindingdb.org/jsp/dbsearch/PrimarySearch_ki.jsp?energyterm=kJ/mole&tag=pol&polymerid=50007050&target=Protein+cereblon&column=ki&startPg=0&Increment=50&submit=Search

> <Link to Ligand-Target Pair in BindingDB>
http://www.bindingdb.org/jsp/dbsearch/PrimarySearch_ki.jsp?energyterm=kJ/mole&tag=r21&monomerid=50630602&enzyme=Protein+cereblon&column=ki&startPg=0&Increment=50&submit=Search

> <Ligand HET ID in PDB>


> <PDB ID(s) for Ligand-Target Complex>


> <PubChem CID of Ligand>
172454748

> <PubChem SID of Ligand>
505048573

> <ChEBI ID of Ligand>


> <ChEMBL ID of Ligand>


> <DrugBank ID of Ligand>


> <IUPHAR_GRAC ID of Ligand>


> <KEGG ID of Ligand>


> <ZINC ID of Ligand>


> <Number of Protein Chains in Target (bigger than 1 implies a multichain complex)>
1

> <BindingDB Target Chain Sequence>
MAGEGDQQDAAHNMGNHLPLLPAESEEEDEMEVEDQDSKEAKKPNIINFDTSLPTSHTYLGADMEEFHGRTLHDDDSCQVIPVLPQVMMILIPGQTLPLQLFHPQEVSMVRNLIQKDRTFAVLAYSNVQEREAQFGTTAEIYAYREEQDFGIEIVKVKAIGRQRFKVLELRTQSDGIQQAKVQILPECVLPSTMSAVQLESLNKCQIFPSKPVSREDQCSYKWWQKYQKRKFHCANLTSWPRWLYSLYDAETLMDRIKKQLREWDENLKDDSLPSNPIDFSYRVAACLPIDDVLRIQLLKIGSAIQRLRCELDIMNKCTSLCCKQCQETEITTKNEIFSLSLCGPMAAYVNPHGYVHETLTVYKACNLNLIGRPSTEHSWFPGYAWTVAQCKICASHIGWKFTATKKDMSPQKFWGLTRSALLPTIPDTEDEISPDKVILCL

> <PDB ID(s) of Target Chain>
8TNR,8TNQ,8TNP,8D81,8D80,8D7Z,8D7Y,8D7X,8D7W,8D7V,8D7U,8CVP,9DQD,8UH6,6BOY,6BNB,6BN9,6BN8,6BN7,6XK9,6UML,5V3O,5HXB,7U8F,8OJH,8OIZ,7LPS,4TZ4,9DJX,9DJT,8U17,8U16,8U15,8TZX,8DEY,9CUO,4M91

> <UniProt (SwissProt) Recommended Name of Target Chain>
Protein cereblon

> <UniProt (SwissProt) Entry Name of Target Chain>
CRBN_HUMAN

> <UniProt (SwissProt) Primary ID of Target Chain>
Q96SW2

> <UniProt (SwissProt) Secondary ID(s) of Target Chain>
B2R6H4 C9IZA9 C9JAH6 Q6AI62 Q6NVZ0 Q9UHW4

> <UniProt (SwissProt) Alternative ID(s) of Target Chain>


> <UniProt (TrEMBL) Submitted Name of Target Chain>


> <UniProt (TrEMBL) Entry Name of Target Chain>


> <UniProt (TrEMBL) Primary ID of Target Chain>


> <UniProt (TrEMBL) Secondary ID(s) of Target Chain>


> <UniProt (TrEMBL) Alternative ID(s) of Target Chain>


$$$$
 
     RDKit          2D

 21 22  0  0  0  0  0  0  0  0999 V2000
   -2.4998    0.2055    0.0000 C   0  0  0  0  0  0  0  0  0  0  0  0
   -1.7852    0.6178    0.0000 C   0  0  0  0  0  0  0  0  0  0  0  0
   -1.0733    0.2058    0.0000 C   0  0  0  0  0  0  0  0  0  0  0  0
   -1.0733   -0.6192    0.0000 C   0  0  0  0  0  0  0  0  0  0  0  0
   -1.7833   -1.0310    0.0000 C   0  0  0  0  0  0  0  0  0  0  0  0
   -2.4998   -0.6229    0.0000 C   0  0  0  0  0  0  0  0  0  0  0  0
   -0.3586    0.6185    0.0000 C   0  0  0  0  0  0  0  0  0  0  0  0
   -0.3586    1.4436    0.0000 O   0  0  0  0  0  0  0  0  0  0  0  0
    0.3559    0.2058    0.0000 N   0  0  0  0  0  0  0  0  0  0  0  0
    1.0705    0.6185    0.0000 C   0  0  0  0  0  0  0  0  0  0  0  0
    1.0705    1.4436    0.0000 C   0  0  0  0  0  0  0  0  0  0  0  0
    1.7852    1.8562    0.0000 C   0  0  0  0  0  0  0  0  0  0  0  0
    2.4998    1.4436    0.0000 C   0  0  0  0  0  0  0  0  0  0  0  0
    2.4998    0.6184    0.0000 N   0  0  0  0  0  0  0  0  0  0  0  0
    1.7852    0.2058    0.0000 C   0  0  0  0  0  0  0  0  0  0  0  0
    1.7852   -0.6192    0.0000 O   0  0  0  0  0  0  0  0  0  0  0  0
    3.2144    1.8562    0.0000 O   0  0  0  0  0  0  0  0  0  0  0  0
   -0.3586   -1.0318    0.0000 F   0  0  0  0  0  0  0  0  0  0  0  0
   -1.7833   -1.8562    0.0000 F   0  0  0  0  0  0  0  0  0  0  0  0
   -3.2144   -1.0355    0.0000 F   0  0  0  0  0  0  0  0  0  0  0  0
   -3.2144    0.6180    0.0000 F   0  0  0  0  0  0  0  0  0  0  0  0
  2  1  2  0
  3  2  1  0
  4  3  2  0
  5  4  1  0
  6  5  2  0
  1  6  1  0
  3  7  1  0
  7  8  2  0
  7  9  1  0
  9 10  1  0
 11 10  1  0
 12 11  1  0
 13 12  1  0
 14 13  1  0
 15 14  1  0
 10 15  1  0
 15 16  2  0
 13 17  2  0
  4 18  1  0
  5 19  1  0
  6 20  1  0
  1 21  1  0
M  END
> <From>
www.bindingDB.org

> <BindingDB Reactant_set_id>
51567935

> <Ligand InChI>
InChI=1S/C12H8F4N2O3/c13-5-3-4(8(14)10(16)9(5)15)11(20)17-6-1-2-7(19)18-12(6)21/h3,6H,1-2H2,(H,17,20)(H,18,19,21)

> <Ligand InChI Key>
HOAHVHODYFOOBF-UHFFFAOYSA-N

> <BindingDB MonomerID>
50630589

> <BindingDB Ligand Name>
CHEMBL5437759

> <Target Name>
Protein cereblon

> <Target Source Organism According to Curator or DataSource>
Homo sapiens

> <Ki (nM)>
 30000

> <IC50 (nM)>


> <Kd (nM)>


> <EC50 (nM)>


> <kon (M-1-s-1)>


> <koff (s-1)>


> <pH>


> <Temp C>


> <Curation/DataSource>
ChEMBL

> <Article DOI>
10.1021/acs.jmedchem.3c00851

> <BindingDB Entry DOI>
10.7270/Q2PK0MM6

> <PMID>
37902300

> <PubChem AID>


> <Patent Number>


> <Authors>
Steinebach, C; Bricelj, A; Murgai, A; Sosič, I; Bischof, L; Ng, YLD; Heim, C; Maiwald, S; Proj, M; Voget, R; Feller, F; Košmrlj, J; Sapozhnikova, V; Schmidt, A; Zuleeg, MR; Lemnitzer, P; Mertins, P; Hansen, FK; Gütschow, M; Krönke, J; Hartmann, MD

> <Date of publication>
11/9/2023

> <Date in BindingDB>
12/20/2024

> <Institution>
University of Bonn

> <Link to Ligand in BindingDB>
http://www.bindingdb.org/bind/chemsearch/marvin/MolStructure.jsp?monomerid=50630589

> <Link to Ligand-Target Pair in BindingDB>
http://www.bindingdb.org/jsp/dbsearch/PrimarySearch_ki.jsp?energyterm=kJ/mole&tag=pol&polymerid=50007050&target=Protein+cereblon&column=ki&startPg=0&Increment=50&submit=Search

> <Link to Ligand-Target Pair in BindingDB>
http://www.bindingdb.org/jsp/dbsearch/PrimarySearch_ki.jsp?energyterm=kJ/mole&tag=r21&monomerid=50630589&enzyme=Protein+cereblon&column=ki&startPg=0&Increment=50&submit=Search

> <Ligand HET ID in PDB>


> <PDB ID(s) for Ligand-Target Complex>


> <PubChem CID of Ligand>
65954686

> <PubChem SID of Ligand>
505048560

> <ChEBI ID of Ligand>


> <ChEMBL ID of Ligand>


> <DrugBank ID of Ligand>


> <IUPHAR_GRAC ID of Ligand>


> <KEGG ID of Ligand>


> <ZINC ID of Ligand>


> <Number of Protein Chains in Target (bigger than 1 implies a multichain complex)>
1

> <BindingDB Target Chain Sequence>
MAGEGDQQDAAHNMGNHLPLLPAESEEEDEMEVEDQDSKEAKKPNIINFDTSLPTSHTYLGADMEEFHGRTLHDDDSCQVIPVLPQVMMILIPGQTLPLQLFHPQEVSMVRNLIQKDRTFAVLAYSNVQEREAQFGTTAEIYAYREEQDFGIEIVKVKAIGRQRFKVLELRTQSDGIQQAKVQILPECVLPSTMSAVQLESLNKCQIFPSKPVSREDQCSYKWWQKYQKRKFHCANLTSWPRWLYSLYDAETLMDRIKKQLREWDENLKDDSLPSNPIDFSYRVAACLPIDDVLRIQLLKIGSAIQRLRCELDIMNKCTSLCCKQCQETEITTKNEIFSLSLCGPMAAYVNPHGYVHETLTVYKACNLNLIGRPSTEHSWFPGYAWTVAQCKICASHIGWKFTATKKDMSPQKFWGLTRSALLPTIPDTEDEISPDKVILCL

> <PDB ID(s) of Target Chain>
8TNR,8TNQ,8TNP,8D81,8D80,8D7Z,8D7Y,8D7X,8D7W,8D7V,8D7U,8CVP,9DQD,8UH6,6BOY,6BNB,6BN9,6BN8,6BN7,6XK9,6UML,5V3O,5HXB,7U8F,8OJH,8OIZ,7LPS,4TZ4,9DJX,9DJT,8U17,8U16,8U15,8TZX,8DEY,9CUO,4M91

> <UniProt (SwissProt) Recommended Name of Target Chain>
Protein cereblon

> <UniProt (SwissProt) Entry Name of Target Chain>
CRBN_HUMAN

> <UniProt (SwissProt) Primary ID of Target Chain>
Q96SW2

> <UniProt (SwissProt) Secondary ID(s) of Target Chain>
B2R6H4 C9IZA9 C9JAH6 Q6AI62 Q6NVZ0 Q9UHW4

> <UniProt (SwissProt) Alternative ID(s) of Target Chain>


> <UniProt (TrEMBL) Submitted Name of Target Chain>


> <UniProt (TrEMBL) Entry Name of Target Chain>


> <UniProt (TrEMBL) Primary ID of Target Chain>


> <UniProt (TrEMBL) Secondary ID(s) of Target Chain>


> <UniProt (TrEMBL) Alternative ID(s) of Target Chain>


$$$$

     RDKit          2D

 17 19  0  0  0  0  0  0  0  0999 V2000
    1.7849    5.4933    0.0000 O   0  0  0  0  0  0  0  0  0  0  0  0
    1.3213    4.0667    0.0000 C   0  0  0  0  0  0  0  0  0  0  0  0
    2.3250    2.9520    0.0000 C   0  0  0  0  0  0  0  0  0  0  0  0
    1.8615    1.5254    0.0000 C   0  0  0  0  0  0  0  0  0  0  0  0
    0.3943    1.2135    0.0000 C   0  0  0  0  0  0  0  0  0  0  0  0
    1.2760    0.0000    0.0000 C   0  0  0  0  0  0  0  0  0  0  0  0
    0.3943   -1.2135    0.0000 C   0  0  0  0  0  0  0  0  0  0  0  0
    0.8578   -2.6401    0.0000 C   0  0  0  0  0  0  0  0  0  0  0  0
    2.2844   -3.1036    0.0000 C   0  0  0  0  0  0  0  0  0  0  0  0
    2.2844   -4.6036    0.0000 C   0  0  0  0  0  0  0  0  0  0  0  0
    0.8578   -5.0672    0.0000 C   0  0  0  0  0  0  0  0  0  0  0  0
   -0.0239   -3.8536    0.0000 C   0  0  0  0  0  0  0  0  0  0  0  0
   -1.0323   -0.7500    0.0000 N   0  0  0  0  0  0  0  0  0  0  0  0
   -1.0323    0.7500    0.0000 O   0  0  0  0  0  0  0  0  0  0  0  0
   -0.6094    2.3282    0.0000 C   0  0  0  0  0  0  0  0  0  0  0  0
   -2.0766    2.0164    0.0000 O   0  0  0  0  0  0  0  0  0  0  0  0
   -0.1459    3.7548    0.0000 N   0  0  0  0  0  0  0  0  0  0  0  0
  1  2  2  0
  2  3  1  0
  3  4  1  0
  4  5  1  0
  5  6  1  0
  6  7  1  0
  7  8  1  0
  8  9  1  0
  9 10  1  0
 10 11  1  0
 11 12  1  0
  7 13  2  0
 13 14  1  0
  5 15  1  0
 15 16  2  0
 15 17  1  0
 17  2  1  0
 14  5  1  0
 12  8  1  0
M  END
> <From>
www.bindingDB.org

> <BindingDB Reactant_set_id>
51588693

> <Ligand InChI>
InChI=1S/C12H16N2O3/c15-10-5-6-12(11(16)13-10)7-9(14-17-12)8-3-1-2-4-8/h8H,1-7H2,(H,13,15,16)

> <Ligand InChI Key>
KOWYUOJDYCKZRW-UHFFFAOYSA-N

> <BindingDB MonomerID>
50639650

> <BindingDB Ligand Name>
CHEMBL5563024

> <Target Name>
Protein cereblon

> <Target Source Organism According to Curator or DataSource>
Human

> <Ki (nM)>
 30100

> <IC50 (nM)>


> <Kd (nM)>


> <EC50 (nM)>


> <kon (M-1-s-1)>


> <koff (s-1)>


> <pH>


> <Temp C>


> <Curation/DataSource>
ChEMBL

> <Article DOI>


> <BindingDB Entry DOI>
10.7270/Q2PC3713

> <PMID>
38552426

> <PubChem AID>


> <Patent Number>


> <Authors>
Shevalev, R; Bischof, L; Sapegin, A; Bunev, A; Olga, G; Kantin, G; Kalinin, S; Hartmann, MD

> <Date of publication>
//0

> <Date in BindingDB>
10/11/2025

> <Institution>
Saint Petersburg State University

> <Link to Ligand in BindingDB>
http://www.bindingdb.org/bind/chemsearch/marvin/MolStructure.jsp?monomerid=50639650

> <Link to Ligand-Target Pair in BindingDB>
http://www.bindingdb.org/rwd/jsp/dbsearch/PrimarySearch_ki.jsp?energyterm=kJ/mole&tag=pol&polymerid=50007050&target=Protein+cereblon&column=ki&startPg=0&Increment=50&submit=Search

> <Link to Ligand-Target Pair in BindingDB>
http://www.bindingdb.org/rwd/jsp/dbsearch/PrimarySearch_ki.jsp?energyterm=kJ/mole&tag=r21&monomerid=50639650&enzyme=Protein+cereblon&column=ki&startPg=0&Increment=50&submit=Search

> <Ligand HET ID in PDB>


> <PDB ID(s) for Ligand-Target Complex>


> <PubChem CID of Ligand>
177376710

> <PubChem SID of Ligand>
519660053

> <ChEBI ID of Ligand>


> <ChEMBL ID of Ligand>


> <DrugBank ID of Ligand>


> <IUPHAR_GRAC ID of Ligand>


> <KEGG ID of Ligand>


> <ZINC ID of Ligand>


> <Number of Protein Chains in Target (bigger than 1 implies a multichain complex)>
1

> <BindingDB Target Chain Sequence>
MAGEGDQQDAAHNMGNHLPLLPAESEEEDEMEVEDQDSKEAKKPNIINFDTSLPTSHTYLGADMEEFHGRTLHDDDSCQVIPVLPQVMMILIPGQTLPLQLFHPQEVSMVRNLIQKDRTFAVLAYSNVQEREAQFGTTAEIYAYREEQDFGIEIVKVKAIGRQRFKVLELRTQSDGIQQAKVQILPECVLPSTMSAVQLESLNKCQIFPSKPVSREDQCSYKWWQKYQKRKFHCANLTSWPRWLYSLYDAETLMDRIKKQLREWDENLKDDSLPSNPIDFSYRVAACLPIDDVLRIQLLKIGSAIQRLRCELDIMNKCTSLCCKQCQETEITTKNEIFSLSLCGPMAAYVNPHGYVHETLTVYKACNLNLIGRPSTEHSWFPGYAWTVAQCKICASHIGWKFTATKKDMSPQKFWGLTRSALLPTIPDTEDEISPDKVILCL

> <PDB ID(s) of Target Chain>
9DUR,8TNR,8TNQ,8TNP,9DWW,9DWV,9NGT,9NFR,9NFQ,8D81,8D80,8D7Z,8D7Y,8D7X,8D7W,8D7V,8D7U,8CVP,9Q2D,9Q03,9DQD,8UH6,9SAI,9SAF,9H59,9E2U,6BOY,6BNB,6BN9,6BN8,6BN7,9OUL,9Y7D,6XK9,6UML,5V3O,5HXB,9HNE,9D0X,9D0W,7U8F,9FJX,8OJH,8OIZ,7LPS,9SFM,9OTY,4TZ4,9DJX,9DJT,8U17,8U16,8U15,8TZX,8DEY,9CUO,4M91

> <UniProt (SwissProt) Recommended Name of Target Chain>
Protein cereblon

> <UniProt (SwissProt) Entry Name of Target Chain>
CRBN_HUMAN

> <UniProt (SwissProt) Primary ID of Target Chain>
Q96SW2

> <UniProt (SwissProt) Secondary ID(s) of Target Chain>
B2R6H4 C9IZA9 C9JAH6 Q6AI62 Q6NVZ0 Q9UHW4

> <UniProt (SwissProt) Alternative ID(s) of Target Chain>


> <UniProt (TrEMBL) Submitted Name of Target Chain>


> <UniProt (TrEMBL) Entry Name of Target Chain>


> <UniProt (TrEMBL) Primary ID of Target Chain>


> <UniProt (TrEMBL) Secondary ID(s) of Target Chain>


> <UniProt (TrEMBL) Alternative ID(s) of Target Chain>


$$$$
 
     RDKit          2D

  9  9  0  0  0  0  0  0  0  0999 V2000
   16.1664  -20.3803    0.0000 C   0  0  0  0  0  0  0  0  0  0  0  0
   16.1664  -21.1974    0.0000 C   0  0  0  0  0  0  0  0  0  0  0  0
   16.8716  -21.6019    0.0000 N   0  0  0  0  0  0  0  0  0  0  0  0
   17.5769  -21.1974    0.0000 C   0  0  0  0  0  0  0  0  0  0  0  0
   17.5769  -20.3803    0.0000 N   0  0  0  0  0  0  0  0  0  0  0  0
   16.8716  -19.9675    0.0000 C   0  0  0  0  0  0  0  0  0  0  0  0
   16.8716  -19.1503    0.0000 O   0  0  0  0  0  0  0  0  0  0  0  0
   18.2840  -21.6071    0.0000 O   0  0  0  0  0  0  0  0  0  0  0  0
   16.8716  -22.4191    0.0000 C   0  0  0  0  0  0  0  0  0  0  0  0
  1  2  2  0
  1  6  1  0
  2  3  1  0
  3  4  1  0
  4  5  1  0
  5  6  1  0
  6  7  2  0
  4  8  2  0
  3  9  1  0
M  END
> <From>
www.bindingDB.org

> <BindingDB Reactant_set_id>
51359720

> <Ligand InChI>
InChI=1S/C5H6N2O2/c1-7-3-2-4(8)6-5(7)9/h2-3H,1H3,(H,6,8,9)

> <Ligand InChI Key>
XBCXJKGHPABGSD-UHFFFAOYSA-N

> <BindingDB MonomerID>
50549810

> <BindingDB Ligand Name>
CHEMBL4797970

> <Target Name>
Protein cereblon

> <Target Source Organism According to Curator or DataSource>
Human

> <Ki (nM)>
 30800

> <IC50 (nM)>


> <Kd (nM)>


> <EC50 (nM)>


> <kon (M-1-s-1)>


> <koff (s-1)>


> <pH>


> <Temp C>


> <Curation/DataSource>
ChEMBL

> <Article DOI>
10.1021/acsmedchemlett.0c00440

> <BindingDB Entry DOI>
10.7270/Q2WM1J1B

> <PMID>
33488967

> <PubChem AID>


> <Patent Number>


> <Authors>
Maiwald, S; Heim, C; Hernandez Alvarez, B; Hartmann, MD

> <Date of publication>
1/14/2021

> <Date in BindingDB>
3/23/2022

> <Institution>
Max Planck Institute for Developmental Biology

> <Link to Ligand in BindingDB>
http://www.bindingdb.org/bind/chemsearch/marvin/MolStructure.jsp?monomerid=50549810

> <Link to Ligand-Target Pair in BindingDB>
http://www.bindingdb.org/jsp/dbsearch/PrimarySearch_ki.jsp?energyterm=kJ/mole&tag=pol&polymerid=50007050&target=Protein+cereblon&column=ki&startPg=0&Increment=50&submit=Search

> <Link to Ligand-Target Pair in BindingDB>
http://www.bindingdb.org/jsp/dbsearch/PrimarySearch_ki.jsp?energyterm=kJ/mole&tag=r21&monomerid=50549810&enzyme=Protein+cereblon&column=ki&startPg=0&Increment=50&submit=Search

> <Ligand HET ID in PDB>


> <PDB ID(s) for Ligand-Target Complex>


> <PubChem CID of Ligand>
12009

> <PubChem SID of Ligand>
461680150

> <ChEBI ID of Ligand>


> <ChEMBL ID of Ligand>


> <DrugBank ID of Ligand>


> <IUPHAR_GRAC ID of Ligand>


> <KEGG ID of Ligand>


> <ZINC ID of Ligand>


> <Number of Protein Chains in Target (bigger than 1 implies a multichain complex)>
1

> <BindingDB Target Chain Sequence>
MAGEGDQQDAAHNMGNHLPLLPAESEEEDEMEVEDQDSKEAKKPNIINFDTSLPTSHTYLGADMEEFHGRTLHDDDSCQVIPVLPQVMMILIPGQTLPLQLFHPQEVSMVRNLIQKDRTFAVLAYSNVQEREAQFGTTAEIYAYREEQDFGIEIVKVKAIGRQRFKVLELRTQSDGIQQAKVQILPECVLPSTMSAVQLESLNKCQIFPSKPVSREDQCSYKWWQKYQKRKFHCANLTSWPRWLYSLYDAETLMDRIKKQLREWDENLKDDSLPSNPIDFSYRVAACLPIDDVLRIQLLKIGSAIQRLRCELDIMNKCTSLCCKQCQETEITTKNEIFSLSLCGPMAAYVNPHGYVHETLTVYKACNLNLIGRPSTEHSWFPGYAWTVAQCKICASHIGWKFTATKKDMSPQKFWGLTRSALLPTIPDTEDEISPDKVILCL

> <PDB ID(s) of Target Chain>
4TZ4,5HXB,5V3O,6UML,6XK9,7LPS,7U8F,8CVP,8D7U,8D7V,8D7W,8D7X,8D7Y,8D7Z,8D80,8D81,8DEY,8OIZ,8OJH

> <UniProt (SwissProt) Recommended Name of Target Chain>
Protein cereblon

> <UniProt (SwissProt) Entry Name of Target Chain>
CRBN_HUMAN

> <UniProt (SwissProt) Primary ID of Target Chain>
Q96SW2

> <UniProt (SwissProt) Secondary ID(s) of Target Chain>
B2R6H4 C9IZA9 C9JAH6 Q6AI62 Q6NVZ0 Q9UHW4

> <UniProt (SwissProt) Alternative ID(s) of Target Chain>


> <UniProt (TrEMBL) Submitted Name of Target Chain>


> <UniProt (TrEMBL) Entry Name of Target Chain>


> <UniProt (TrEMBL) Primary ID of Target Chain>


> <UniProt (TrEMBL) Secondary ID(s) of Target Chain>


> <UniProt (TrEMBL) Alternative ID(s) of Target Chain>


$$$$
 
     RDKit          2D

 23 24  0  0  0  0  0  0  0  0999 V2000
   -1.0706    1.4452    0.0000 C   0  0  0  0  0  0  0  0  0  0  0  0
   -1.7852    1.0329    0.0000 C   0  0  0  0  0  0  0  0  0  0  0  0
   -1.7852    0.2044    0.0000 C   0  0  0  0  0  0  0  0  0  0  0  0
   -1.0688   -0.2036    0.0000 C   0  0  0  0  0  0  0  0  0  0  0  0
   -0.3585    0.2081    0.0000 C   0  0  0  0  0  0  0  0  0  0  0  0
   -0.3585    1.0333    0.0000 C   0  0  0  0  0  0  0  0  0  0  0  0
    0.3559    1.4459    0.0000 C   0  0  0  0  0  0  0  0  0  0  0  0
    0.3559    2.2711    0.0000 O   0  0  0  0  0  0  0  0  0  0  0  0
    1.0705    1.0333    0.0000 N   0  0  0  0  0  0  0  0  0  0  0  0
    1.7852    1.4459    0.0000 C   0  0  0  0  0  0  0  0  0  0  0  0
    1.7852    2.2711    0.0000 C   0  0  0  0  0  0  0  0  0  0  0  0
    2.4998    2.6837    0.0000 C   0  0  0  0  0  0  0  0  0  0  0  0
    3.2144    2.2711    0.0000 C   0  0  0  0  0  0  0  0  0  0  0  0
    3.2144    1.4459    0.0000 N   0  0  0  0  0  0  0  0  0  0  0  0
    2.4998    1.0333    0.0000 C   0  0  0  0  0  0  0  0  0  0  0  0
    2.4998    0.2081    0.0000 O   0  0  0  0  0  0  0  0  0  0  0  0
    3.9291    2.6837    0.0000 O   0  0  0  0  0  0  0  0  0  0  0  0
    0.3559   -0.2044    0.0000 F   0  0  0  0  0  0  0  0  0  0  0  0
   -2.4998   -0.2081    0.0000 O   0  0  0  0  0  0  0  0  0  0  0  0
   -2.4998   -1.0333    0.0000 C   0  0  0  0  0  0  0  0  0  0  0  0
   -3.2144   -1.4459    0.0000 C   0  0  0  0  0  0  0  0  0  0  0  0
   -3.2144   -2.2711    0.0000 C   0  0  0  0  0  0  0  0  0  0  0  0
   -3.9291   -2.6837    0.0000 C   0  0  0  0  0  0  0  0  0  0  0  0
  1  2  2  0
  2  3  1  0
  4  3  2  0
  5  4  1  0
  6  5  2  0
  1  6  1  0
  6  7  1  0
  7  8  2  0
  7  9  1  0
  9 10  1  0
 10 11  1  0
 11 12  1  0
 12 13  1  0
 13 14  1  0
 14 15  1  0
 10 15  1  0
 15 16  2  0
 13 17  2  0
  5 18  1  0
  3 19  1  0
 19 20  1  0
 20 21  1  0
 21 22  1  0
 22 23  1  0
M  END
> <From>
www.bindingDB.org

> <BindingDB Reactant_set_id>
51567950

> <Ligand InChI>
InChI=1S/C16H19FN2O4/c1-2-3-8-23-10-4-5-11(12(17)9-10)15(21)18-13-6-7-14(20)19-16(13)22/h4-5,9,13H,2-3,6-8H2,1H3,(H,18,21)(H,19,20,22)

> <Ligand InChI Key>
VWKWRZUXWYSGOU-UHFFFAOYSA-N

> <BindingDB MonomerID>
50630604

> <BindingDB Ligand Name>
CHEMBL5421440

> <Target Name>
Protein cereblon

> <Target Source Organism According to Curator or DataSource>
Homo sapiens

> <Ki (nM)>
 31000

> <IC50 (nM)>


> <Kd (nM)>


> <EC50 (nM)>


> <kon (M-1-s-1)>


> <koff (s-1)>


> <pH>


> <Temp C>


> <Curation/DataSource>
ChEMBL

> <Article DOI>
10.1021/acs.jmedchem.3c00851

> <BindingDB Entry DOI>
10.7270/Q2PK0MM6

> <PMID>
37902300

> <PubChem AID>


> <Patent Number>


> <Authors>
Steinebach, C; Bricelj, A; Murgai, A; Sosič, I; Bischof, L; Ng, YLD; Heim, C; Maiwald, S; Proj, M; Voget, R; Feller, F; Košmrlj, J; Sapozhnikova, V; Schmidt, A; Zuleeg, MR; Lemnitzer, P; Mertins, P; Hansen, FK; Gütschow, M; Krönke, J; Hartmann, MD

> <Date of publication>
11/9/2023

> <Date in BindingDB>
12/20/2024

> <Institution>
University of Bonn

> <Link to Ligand in BindingDB>
http://www.bindingdb.org/bind/chemsearch/marvin/MolStructure.jsp?monomerid=50630604

> <Link to Ligand-Target Pair in BindingDB>
http://www.bindingdb.org/jsp/dbsearch/PrimarySearch_ki.jsp?energyterm=kJ/mole&tag=pol&polymerid=50007050&target=Protein+cereblon&column=ki&startPg=0&Increment=50&submit=Search

> <Link to Ligand-Target Pair in BindingDB>
http://www.bindingdb.org/jsp/dbsearch/PrimarySearch_ki.jsp?energyterm=kJ/mole&tag=r21&monomerid=50630604&enzyme=Protein+cereblon&column=ki&startPg=0&Increment=50&submit=Search

> <Ligand HET ID in PDB>


> <PDB ID(s) for Ligand-Target Complex>


> <PubChem CID of Ligand>
172460911

> <PubChem SID of Ligand>
505048575

> <ChEBI ID of Ligand>


> <ChEMBL ID of Ligand>


> <DrugBank ID of Ligand>


> <IUPHAR_GRAC ID of Ligand>


> <KEGG ID of Ligand>


> <ZINC ID of Ligand>


> <Number of Protein Chains in Target (bigger than 1 implies a multichain complex)>
1

> <BindingDB Target Chain Sequence>
MAGEGDQQDAAHNMGNHLPLLPAESEEEDEMEVEDQDSKEAKKPNIINFDTSLPTSHTYLGADMEEFHGRTLHDDDSCQVIPVLPQVMMILIPGQTLPLQLFHPQEVSMVRNLIQKDRTFAVLAYSNVQEREAQFGTTAEIYAYREEQDFGIEIVKVKAIGRQRFKVLELRTQSDGIQQAKVQILPECVLPSTMSAVQLESLNKCQIFPSKPVSREDQCSYKWWQKYQKRKFHCANLTSWPRWLYSLYDAETLMDRIKKQLREWDENLKDDSLPSNPIDFSYRVAACLPIDDVLRIQLLKIGSAIQRLRCELDIMNKCTSLCCKQCQETEITTKNEIFSLSLCGPMAAYVNPHGYVHETLTVYKACNLNLIGRPSTEHSWFPGYAWTVAQCKICASHIGWKFTATKKDMSPQKFWGLTRSALLPTIPDTEDEISPDKVILCL

> <PDB ID(s) of Target Chain>
8TNR,8TNQ,8TNP,8D81,8D80,8D7Z,8D7Y,8D7X,8D7W,8D7V,8D7U,8CVP,9DQD,8UH6,6BOY,6BNB,6BN9,6BN8,6BN7,6XK9,6UML,5V3O,5HXB,7U8F,8OJH,8OIZ,7LPS,4TZ4,9DJX,9DJT,8U17,8U16,8U15,8TZX,8DEY,9CUO,4M91

> <UniProt (SwissProt) Recommended Name of Target Chain>
Protein cereblon

> <UniProt (SwissProt) Entry Name of Target Chain>
CRBN_HUMAN

> <UniProt (SwissProt) Primary ID of Target Chain>
Q96SW2

> <UniProt (SwissProt) Secondary ID(s) of Target Chain>
B2R6H4 C9IZA9 C9JAH6 Q6AI62 Q6NVZ0 Q9UHW4

> <UniProt (SwissProt) Alternative ID(s) of Target Chain>


> <UniProt (TrEMBL) Submitted Name of Target Chain>


> <UniProt (TrEMBL) Entry Name of Target Chain>


> <UniProt (TrEMBL) Primary ID of Target Chain>


> <UniProt (TrEMBL) Secondary ID(s) of Target Chain>


> <UniProt (TrEMBL) Alternative ID(s) of Target Chain>


$$$$

     RDKit          2D

 18 20  0  0  0  0  0  0  0  0999 V2000
    1.7849    5.4933    0.0000 O   0  0  0  0  0  0  0  0  0  0  0  0
    1.3213    4.0667    0.0000 C   0  0  0  0  0  0  0  0  0  0  0  0
    2.3250    2.9520    0.0000 C   0  0  0  0  0  0  0  0  0  0  0  0
    1.8615    1.5254    0.0000 C   0  0  0  0  0  0  0  0  0  0  0  0
    0.3943    1.2135    0.0000 C   0  0  0  0  0  0  0  0  0  0  0  0
    1.2760    0.0000    0.0000 C   0  0  0  0  0  0  0  0  0  0  0  0
    0.3943   -1.2135    0.0000 C   0  0  0  0  0  0  0  0  0  0  0  0
    0.8578   -2.6401    0.0000 C   0  0  0  0  0  0  0  0  0  0  0  0
   -0.1459   -3.7548    0.0000 C   0  0  0  0  0  0  0  0  0  0  0  0
    0.3177   -5.1814    0.0000 C   0  0  0  0  0  0  0  0  0  0  0  0
    1.7849   -5.4933    0.0000 C   0  0  0  0  0  0  0  0  0  0  0  0
    2.7886   -4.3786    0.0000 N   0  0  0  0  0  0  0  0  0  0  0  0
    2.3250   -2.9520    0.0000 C   0  0  0  0  0  0  0  0  0  0  0  0
   -1.0323   -0.7500    0.0000 N   0  0  0  0  0  0  0  0  0  0  0  0
   -1.0323    0.7500    0.0000 O   0  0  0  0  0  0  0  0  0  0  0  0
   -0.6094    2.3282    0.0000 C   0  0  0  0  0  0  0  0  0  0  0  0
   -2.0766    2.0164    0.0000 O   0  0  0  0  0  0  0  0  0  0  0  0
   -0.1459    3.7548    0.0000 N   0  0  0  0  0  0  0  0  0  0  0  0
  1  2  2  0
  2  3  1  0
  3  4  1  0
  4  5  1  0
  5  6  1  0
  6  7  1  0
  7  8  1  0
  8  9  2  0
  9 10  1  0
 10 11  2  0
 11 12  1  0
 12 13  2  0
  7 14  2  0
 14 15  1  0
  5 16  1  0
 16 17  2  0
 16 18  1  0
 18  2  1  0
 15  5  1  0
 13  8  1  0
M  END
> <From>
www.bindingDB.org

> <BindingDB Reactant_set_id>
51588691

> <Ligand InChI>
InChI=1S/C12H11N3O3/c16-10-3-4-12(11(17)14-10)6-9(15-18-12)8-2-1-5-13-7-8/h1-2,5,7H,3-4,6H2,(H,14,16,17)

> <Ligand InChI Key>
IJLKSGMPZSHADS-UHFFFAOYSA-N

> <BindingDB MonomerID>
50639648

> <BindingDB Ligand Name>
CHEMBL5563719

> <Target Name>
Protein cereblon

> <Target Source Organism According to Curator or DataSource>
Human

> <Ki (nM)>
 33400

> <IC50 (nM)>


> <Kd (nM)>


> <EC50 (nM)>


> <kon (M-1-s-1)>


> <koff (s-1)>


> <pH>


> <Temp C>


> <Curation/DataSource>
ChEMBL

> <Article DOI>


> <BindingDB Entry DOI>
10.7270/Q2PC3713

> <PMID>
38552426

> <PubChem AID>


> <Patent Number>


> <Authors>
Shevalev, R; Bischof, L; Sapegin, A; Bunev, A; Olga, G; Kantin, G; Kalinin, S; Hartmann, MD

> <Date of publication>
//0

> <Date in BindingDB>
10/11/2025

> <Institution>
Saint Petersburg State University

> <Link to Ligand in BindingDB>
http://www.bindingdb.org/bind/chemsearch/marvin/MolStructure.jsp?monomerid=50639648

> <Link to Ligand-Target Pair in BindingDB>
http://www.bindingdb.org/rwd/jsp/dbsearch/PrimarySearch_ki.jsp?energyterm=kJ/mole&tag=pol&polymerid=50007050&target=Protein+cereblon&column=ki&startPg=0&Increment=50&submit=Search

> <Link to Ligand-Target Pair in BindingDB>
http://www.bindingdb.org/rwd/jsp/dbsearch/PrimarySearch_ki.jsp?energyterm=kJ/mole&tag=r21&monomerid=50639648&enzyme=Protein+cereblon&column=ki&startPg=0&Increment=50&submit=Search

> <Ligand HET ID in PDB>


> <PDB ID(s) for Ligand-Target Complex>


> <PubChem CID of Ligand>
177376708

> <PubChem SID of Ligand>
519660051

> <ChEBI ID of Ligand>


> <ChEMBL ID of Ligand>


> <DrugBank ID of Ligand>


> <IUPHAR_GRAC ID of Ligand>


> <KEGG ID of Ligand>


> <ZINC ID of Ligand>


> <Number of Protein Chains in Target (bigger than 1 implies a multichain complex)>
1

> <BindingDB Target Chain Sequence>
MAGEGDQQDAAHNMGNHLPLLPAESEEEDEMEVEDQDSKEAKKPNIINFDTSLPTSHTYLGADMEEFHGRTLHDDDSCQVIPVLPQVMMILIPGQTLPLQLFHPQEVSMVRNLIQKDRTFAVLAYSNVQEREAQFGTTAEIYAYREEQDFGIEIVKVKAIGRQRFKVLELRTQSDGIQQAKVQILPECVLPSTMSAVQLESLNKCQIFPSKPVSREDQCSYKWWQKYQKRKFHCANLTSWPRWLYSLYDAETLMDRIKKQLREWDENLKDDSLPSNPIDFSYRVAACLPIDDVLRIQLLKIGSAIQRLRCELDIMNKCTSLCCKQCQETEITTKNEIFSLSLCGPMAAYVNPHGYVHETLTVYKACNLNLIGRPSTEHSWFPGYAWTVAQCKICASHIGWKFTATKKDMSPQKFWGLTRSALLPTIPDTEDEISPDKVILCL

> <PDB ID(s) of Target Chain>
9DUR,8TNR,8TNQ,8TNP,9DWW,9DWV,9NGT,9NFR,9NFQ,8D81,8D80,8D7Z,8D7Y,8D7X,8D7W,8D7V,8D7U,8CVP,9Q2D,9Q03,9DQD,8UH6,9SAI,9SAF,9H59,9E2U,6BOY,6BNB,6BN9,6BN8,6BN7,9OUL,9Y7D,6XK9,6UML,5V3O,5HXB,9HNE,9D0X,9D0W,7U8F,9FJX,8OJH,8OIZ,7LPS,9SFM,9OTY,4TZ4,9DJX,9DJT,8U17,8U16,8U15,8TZX,8DEY,9CUO,4M91

> <UniProt (SwissProt) Recommended Name of Target Chain>
Protein cereblon

> <UniProt (SwissProt) Entry Name of Target Chain>
CRBN_HUMAN

> <UniProt (SwissProt) Primary ID of Target Chain>
Q96SW2

> <UniProt (SwissProt) Secondary ID(s) of Target Chain>
B2R6H4 C9IZA9 C9JAH6 Q6AI62 Q6NVZ0 Q9UHW4

> <UniProt (SwissProt) Alternative ID(s) of Target Chain>


> <UniProt (TrEMBL) Submitted Name of Target Chain>


> <UniProt (TrEMBL) Entry Name of Target Chain>


> <UniProt (TrEMBL) Primary ID of Target Chain>


> <UniProt (TrEMBL) Secondary ID(s) of Target Chain>


> <UniProt (TrEMBL) Alternative ID(s) of Target Chain>


$$$$

     RDKit          2D

  8  8  0  0  0  0  0  0  0  0999 V2000
    0.1983   -0.9282    0.0000 N   0  0  0  0  0  0  0  0  0  0  0  0
   -0.5162   -0.5157    0.0000 C   0  0  0  0  0  0  0  0  0  0  0  0
   -1.2306   -0.9282    0.0000 O   0  0  0  0  0  0  0  0  0  0  0  0
   -0.5162    0.3093    0.0000 N   0  0  0  0  0  0  0  0  0  0  0  0
    0.1983    0.7218    0.0000 C   0  0  0  0  0  0  0  0  0  0  0  0
    0.1983    1.5468    0.0000 O   0  0  0  0  0  0  0  0  0  0  0  0
    0.9128    0.3093    0.0000 C   0  0  0  0  0  0  0  0  0  0  0  0
    0.9128   -0.5157    0.0000 C   0  0  0  0  0  0  0  0  0  0  0  0
  2  1  1  0
  8  1  1  0
  2  3  2  0
  2  4  1  0
  5  4  1  0
  5  6  2  0
  5  7  1  0
  7  8  2  0
M  END
> <From>
www.bindingDB.org

> <BindingDB Reactant_set_id>
51545428

> <Ligand InChI>
InChI=1S/C4H4N2O2/c7-3-1-2-5-4(8)6-3/h1-2H,(H2,5,6,7,8)

> <Ligand InChI Key>
ISAKRJDGNUQOIC-UHFFFAOYSA-N

> <BindingDB MonomerID>
50549809

> <BindingDB Ligand Name>
BMS-205603-01::CHEBI:17568::Fluorouracil specified compound c::Hybar x::Lamivudine impurity e::Lamivudine impurity e rs::NSC-3970::Pyrod::SQ-6201::SQ-7726::SQ-8493::Uracil

> <Target Name>
Protein cereblon

> <Target Source Organism According to Curator or DataSource>
Homo sapiens

> <Ki (nM)>
 35000

> <IC50 (nM)>


> <Kd (nM)>


> <EC50 (nM)>


> <kon (M-1-s-1)>


> <koff (s-1)>


> <pH>


> <Temp C>


> <Curation/DataSource>
ChEMBL

> <Article DOI>
10.1021/acs.jmedchem.2c01882

> <BindingDB Entry DOI>
10.7270/Q2SJ1R0R

> <PMID>
36821822

> <PubChem AID>


> <Patent Number>


> <Authors>
n/a

> <Date of publication>
3/9/2023

> <Date in BindingDB>
12/16/2024

> <Institution>
n/a

> <Link to Ligand in BindingDB>
http://www.bindingdb.org/bind/chemsearch/marvin/MolStructure.jsp?monomerid=50549809

> <Link to Ligand-Target Pair in BindingDB>
http://www.bindingdb.org/jsp/dbsearch/PrimarySearch_ki.jsp?energyterm=kJ/mole&tag=pol&polymerid=50007050&target=Protein+cereblon&column=ki&startPg=0&Increment=50&submit=Search

> <Link to Ligand-Target Pair in BindingDB>
http://www.bindingdb.org/jsp/dbsearch/PrimarySearch_ki.jsp?energyterm=kJ/mole&tag=r21&monomerid=50549809&enzyme=Protein+cereblon&column=ki&startPg=0&Increment=50&submit=Search

> <Ligand HET ID in PDB>
URA    

> <PDB ID(s) for Ligand-Target Complex>
5LHV,4HK7,3SLF,4YGM,1TGY,3KVY,1BD4,1BRW,4YIG,1UDH,4WRU,4WRV,1UCD,3LOC,6Z1B,6SGL,4YJK,6TEG,5WAN,1KSL,1KSK,1Y1S,4JYK,1SSP,5XLS,4OEH,4KPV,1Q3F,1JLS,5Y48,2XRF,5EUG,5ILX,1EMJ,2EUG,7Q2W,4WPL,3QPB,5MIW,9E1E,3BJE,3QE7,7H93,6IOB,6IOC,6IOA,2RJ3,7M32,1WS3,1OE5,1GTH,1UI0,8OO1,4ZBY,4LZB,8IIP,8IIT,8III,8IIN,8IIL,8IIG,6AJO,6AJR,3CXM,6K5H,1FLZ,4TXL,6UGJ,5GNW,8IIE,4SKN

> <PubChem CID of Ligand>
1174

> <PubChem SID of Ligand>
461680149

> <ChEBI ID of Ligand>


> <ChEMBL ID of Ligand>


> <DrugBank ID of Ligand>


> <IUPHAR_GRAC ID of Ligand>


> <KEGG ID of Ligand>
C00106

> <ZINC ID of Ligand>


> <Number of Protein Chains in Target (bigger than 1 implies a multichain complex)>
1

> <BindingDB Target Chain Sequence>
MAGEGDQQDAAHNMGNHLPLLPAESEEEDEMEVEDQDSKEAKKPNIINFDTSLPTSHTYLGADMEEFHGRTLHDDDSCQVIPVLPQVMMILIPGQTLPLQLFHPQEVSMVRNLIQKDRTFAVLAYSNVQEREAQFGTTAEIYAYREEQDFGIEIVKVKAIGRQRFKVLELRTQSDGIQQAKVQILPECVLPSTMSAVQLESLNKCQIFPSKPVSREDQCSYKWWQKYQKRKFHCANLTSWPRWLYSLYDAETLMDRIKKQLREWDENLKDDSLPSNPIDFSYRVAACLPIDDVLRIQLLKIGSAIQRLRCELDIMNKCTSLCCKQCQETEITTKNEIFSLSLCGPMAAYVNPHGYVHETLTVYKACNLNLIGRPSTEHSWFPGYAWTVAQCKICASHIGWKFTATKKDMSPQKFWGLTRSALLPTIPDTEDEISPDKVILCL

> <PDB ID(s) of Target Chain>
8TNR,8TNQ,8TNP,8D81,8D80,8D7Z,8D7Y,8D7X,8D7W,8D7V,8D7U,8CVP,9DQD,8UH6,6BOY,6BNB,6BN9,6BN8,6BN7,6XK9,6UML,5V3O,5HXB,7U8F,8OJH,8OIZ,7LPS,4TZ4,9DJX,9DJT,8U17,8U16,8U15,8TZX,8DEY,9CUO,4M91

> <UniProt (SwissProt) Recommended Name of Target Chain>
Protein cereblon

> <UniProt (SwissProt) Entry Name of Target Chain>
CRBN_HUMAN

> <UniProt (SwissProt) Primary ID of Target Chain>
Q96SW2

> <UniProt (SwissProt) Secondary ID(s) of Target Chain>
B2R6H4 C9IZA9 C9JAH6 Q6AI62 Q6NVZ0 Q9UHW4

> <UniProt (SwissProt) Alternative ID(s) of Target Chain>


> <UniProt (TrEMBL) Submitted Name of Target Chain>


> <UniProt (TrEMBL) Entry Name of Target Chain>


> <UniProt (TrEMBL) Primary ID of Target Chain>


> <UniProt (TrEMBL) Secondary ID(s) of Target Chain>


> <UniProt (TrEMBL) Alternative ID(s) of Target Chain>


$$$$
 
     RDKit          2D

 18 19  0  0  0  0  0  0  0  0999 V2000
   -2.1425    0.2052    0.0000 C   0  0  0  0  0  0  0  0  0  0  0  0
   -2.8571   -0.2070    0.0000 C   0  0  0  0  0  0  0  0  0  0  0  0
   -2.8571   -1.0355    0.0000 C   0  0  0  0  0  0  0  0  0  0  0  0
   -2.1407   -1.4436    0.0000 C   0  0  0  0  0  0  0  0  0  0  0  0
   -1.4306   -1.0318    0.0000 C   0  0  0  0  0  0  0  0  0  0  0  0
   -1.4306   -0.2067    0.0000 C   0  0  0  0  0  0  0  0  0  0  0  0
   -0.7160    0.2059    0.0000 C   0  0  0  0  0  0  0  0  0  0  0  0
   -0.7160    1.0310    0.0000 O   0  0  0  0  0  0  0  0  0  0  0  0
   -0.0013   -0.2067    0.0000 N   0  0  0  0  0  0  0  0  0  0  0  0
    0.7132    0.2059    0.0000 C   0  0  0  0  0  0  0  0  0  0  0  0
    0.7132    1.0310    0.0000 C   0  0  0  0  0  0  0  0  0  0  0  0
    1.4278    1.4436    0.0000 C   0  0  0  0  0  0  0  0  0  0  0  0
    2.1424    1.0310    0.0000 C   0  0  0  0  0  0  0  0  0  0  0  0
    2.1425    0.2058    0.0000 N   0  0  0  0  0  0  0  0  0  0  0  0
    1.4278   -0.2067    0.0000 C   0  0  0  0  0  0  0  0  0  0  0  0
    1.4278   -1.0318    0.0000 O   0  0  0  0  0  0  0  0  0  0  0  0
    2.8571    1.4436    0.0000 O   0  0  0  0  0  0  0  0  0  0  0  0
   -2.1425    1.0303    0.0000 N   0  0  0  0  0  0  0  0  0  0  0  0
  1  2  2  0
  2  3  1  0
  4  3  2  0
  5  4  1  0
  6  5  2  0
  1  6  1  0
  6  7  1  0
  7  8  2  0
  7  9  1  0
  9 10  1  0
 10 11  1  0
 11 12  1  0
 12 13  1  0
 13 14  1  0
 14 15  1  0
 10 15  1  0
 15 16  2  0
 13 17  2  0
  1 18  1  0
M  END
> <From>
www.bindingDB.org

> <BindingDB Reactant_set_id>
51567940

> <Ligand InChI>
InChI=1S/C12H13N3O3/c13-8-4-2-1-3-7(8)11(17)14-9-5-6-10(16)15-12(9)18/h1-4,9H,5-6,13H2,(H,14,17)(H,15,16,18)

> <Ligand InChI Key>
BXYYCADYTWTGMG-UHFFFAOYSA-N

> <BindingDB MonomerID>
50630594

> <BindingDB Ligand Name>
CHEMBL5399110

> <Target Name>
Protein cereblon

> <Target Source Organism According to Curator or DataSource>
Homo sapiens

> <Ki (nM)>
 35000

> <IC50 (nM)>


> <Kd (nM)>


> <EC50 (nM)>


> <kon (M-1-s-1)>


> <koff (s-1)>


> <pH>


> <Temp C>


> <Curation/DataSource>
ChEMBL

> <Article DOI>
10.1021/acs.jmedchem.3c00851

> <BindingDB Entry DOI>
10.7270/Q2PK0MM6

> <PMID>
37902300

> <PubChem AID>


> <Patent Number>


> <Authors>
Steinebach, C; Bricelj, A; Murgai, A; Sosič, I; Bischof, L; Ng, YLD; Heim, C; Maiwald, S; Proj, M; Voget, R; Feller, F; Košmrlj, J; Sapozhnikova, V; Schmidt, A; Zuleeg, MR; Lemnitzer, P; Mertins, P; Hansen, FK; Gütschow, M; Krönke, J; Hartmann, MD

> <Date of publication>
11/9/2023

> <Date in BindingDB>
12/20/2024

> <Institution>
University of Bonn

> <Link to Ligand in BindingDB>
http://www.bindingdb.org/bind/chemsearch/marvin/MolStructure.jsp?monomerid=50630594

> <Link to Ligand-Target Pair in BindingDB>
http://www.bindingdb.org/jsp/dbsearch/PrimarySearch_ki.jsp?energyterm=kJ/mole&tag=pol&polymerid=50007050&target=Protein+cereblon&column=ki&startPg=0&Increment=50&submit=Search

> <Link to Ligand-Target Pair in BindingDB>
http://www.bindingdb.org/jsp/dbsearch/PrimarySearch_ki.jsp?energyterm=kJ/mole&tag=r21&monomerid=50630594&enzyme=Protein+cereblon&column=ki&startPg=0&Increment=50&submit=Search

> <Ligand HET ID in PDB>


> <PDB ID(s) for Ligand-Target Complex>


> <PubChem CID of Ligand>
21592724

> <PubChem SID of Ligand>
505048565

> <ChEBI ID of Ligand>


> <ChEMBL ID of Ligand>


> <DrugBank ID of Ligand>


> <IUPHAR_GRAC ID of Ligand>


> <KEGG ID of Ligand>


> <ZINC ID of Ligand>


> <Number of Protein Chains in Target (bigger than 1 implies a multichain complex)>
1

> <BindingDB Target Chain Sequence>
MAGEGDQQDAAHNMGNHLPLLPAESEEEDEMEVEDQDSKEAKKPNIINFDTSLPTSHTYLGADMEEFHGRTLHDDDSCQVIPVLPQVMMILIPGQTLPLQLFHPQEVSMVRNLIQKDRTFAVLAYSNVQEREAQFGTTAEIYAYREEQDFGIEIVKVKAIGRQRFKVLELRTQSDGIQQAKVQILPECVLPSTMSAVQLESLNKCQIFPSKPVSREDQCSYKWWQKYQKRKFHCANLTSWPRWLYSLYDAETLMDRIKKQLREWDENLKDDSLPSNPIDFSYRVAACLPIDDVLRIQLLKIGSAIQRLRCELDIMNKCTSLCCKQCQETEITTKNEIFSLSLCGPMAAYVNPHGYVHETLTVYKACNLNLIGRPSTEHSWFPGYAWTVAQCKICASHIGWKFTATKKDMSPQKFWGLTRSALLPTIPDTEDEISPDKVILCL

> <PDB ID(s) of Target Chain>
8TNR,8TNQ,8TNP,8D81,8D80,8D7Z,8D7Y,8D7X,8D7W,8D7V,8D7U,8CVP,9DQD,8UH6,6BOY,6BNB,6BN9,6BN8,6BN7,6XK9,6UML,5V3O,5HXB,7U8F,8OJH,8OIZ,7LPS,4TZ4,9DJX,9DJT,8U17,8U16,8U15,8TZX,8DEY,9CUO,4M91

> <UniProt (SwissProt) Recommended Name of Target Chain>
Protein cereblon

> <UniProt (SwissProt) Entry Name of Target Chain>
CRBN_HUMAN

> <UniProt (SwissProt) Primary ID of Target Chain>
Q96SW2

> <UniProt (SwissProt) Secondary ID(s) of Target Chain>
B2R6H4 C9IZA9 C9JAH6 Q6AI62 Q6NVZ0 Q9UHW4

> <UniProt (SwissProt) Alternative ID(s) of Target Chain>


> <UniProt (TrEMBL) Submitted Name of Target Chain>


> <UniProt (TrEMBL) Entry Name of Target Chain>


> <UniProt (TrEMBL) Primary ID of Target Chain>


> <UniProt (TrEMBL) Secondary ID(s) of Target Chain>


> <UniProt (TrEMBL) Alternative ID(s) of Target Chain>


$$$$
 
     RDKit          2D

 26 27  0  0  0  0  0  0  0  0999 V2000
   -1.0706    1.4452    0.0000 C   0  0  0  0  0  0  0  0  0  0  0  0
   -1.7852    1.0330    0.0000 C   0  0  0  0  0  0  0  0  0  0  0  0
   -1.7852    0.2044    0.0000 C   0  0  0  0  0  0  0  0  0  0  0  0
   -1.0688   -0.2036    0.0000 C   0  0  0  0  0  0  0  0  0  0  0  0
   -0.3587    0.2081    0.0000 C   0  0  0  0  0  0  0  0  0  0  0  0
   -0.3587    1.0333    0.0000 C   0  0  0  0  0  0  0  0  0  0  0  0
    0.3559    1.4459    0.0000 C   0  0  0  0  0  0  0  0  0  0  0  0
    0.3559    2.2712    0.0000 O   0  0  0  0  0  0  0  0  0  0  0  0
    1.0706    1.0333    0.0000 N   0  0  0  0  0  0  0  0  0  0  0  0
    1.7852    1.4459    0.0000 C   0  0  0  0  0  0  0  0  0  0  0  0
    1.7852    2.2712    0.0000 C   0  0  0  0  0  0  0  0  0  0  0  0
    2.4998    2.6838    0.0000 C   0  0  0  0  0  0  0  0  0  0  0  0
    3.2145    2.2712    0.0000 C   0  0  0  0  0  0  0  0  0  0  0  0
    3.2146    1.4459    0.0000 N   0  0  0  0  0  0  0  0  0  0  0  0
    2.4998    1.0333    0.0000 C   0  0  0  0  0  0  0  0  0  0  0  0
    2.4998    0.2081    0.0000 O   0  0  0  0  0  0  0  0  0  0  0  0
    3.9292    2.6838    0.0000 O   0  0  0  0  0  0  0  0  0  0  0  0
    0.3559   -0.2044    0.0000 F   0  0  0  0  0  0  0  0  0  0  0  0
   -2.4998   -0.2081    0.0000 N   0  0  0  0  0  0  0  0  0  0  0  0
   -2.4998   -1.0333    0.0000 C   0  0  0  0  0  0  0  0  0  0  0  0
   -3.2146   -1.4459    0.0000 C   0  0  0  0  0  0  0  0  0  0  0  0
   -3.2146   -2.2712    0.0000 C   0  0  0  0  0  0  0  0  0  0  0  0
   -3.9292   -2.6838    0.0000 C   0  0  0  0  0  0  0  0  0  0  0  0
   -1.0688   -1.0289    0.0000 O   0  0  0  0  0  0  0  0  0  0  0  0
   -0.3542   -1.4414    0.0000 C   0  0  0  0  0  0  0  0  0  0  0  0
   -2.4998    1.4456    0.0000 F   0  0  0  0  0  0  0  0  0  0  0  0
  1  2  2  0
  2  3  1  0
  4  3  2  0
  5  4  1  0
  6  5  2  0
  1  6  1  0
  6  7  1  0
  7  8  2  0
  7  9  1  0
  9 10  1  0
 10 11  1  0
 11 12  1  0
 12 13  1  0
 13 14  1  0
 14 15  1  0
 10 15  1  0
 15 16  2  0
 13 17  2  0
  5 18  1  0
  3 19  1  0
 19 20  1  0
 20 21  1  0
 21 22  1  0
 22 23  1  0
  4 24  1  0
 24 25  1  0
  2 26  1  0
M  END
> <From>
www.bindingDB.org

> <BindingDB Reactant_set_id>
51567951

> <Ligand InChI>
InChI=1S/C17H21F2N3O4/c1-3-4-7-20-14-10(18)8-9(13(19)15(14)26-2)16(24)21-11-5-6-12(23)22-17(11)25/h8,11,20H,3-7H2,1-2H3,(H,21,24)(H,22,23,25)

> <Ligand InChI Key>
IONAEGMCSLASDU-UHFFFAOYSA-N

> <BindingDB MonomerID>
50630605

> <BindingDB Ligand Name>
CHEMBL5435181

> <Target Name>
Protein cereblon

> <Target Source Organism According to Curator or DataSource>
Homo sapiens

> <Ki (nM)>
 35000

> <IC50 (nM)>


> <Kd (nM)>


> <EC50 (nM)>


> <kon (M-1-s-1)>


> <koff (s-1)>


> <pH>


> <Temp C>


> <Curation/DataSource>
ChEMBL

> <Article DOI>
10.1021/acs.jmedchem.3c00851

> <BindingDB Entry DOI>
10.7270/Q2PK0MM6

> <PMID>
37902300

> <PubChem AID>


> <Patent Number>


> <Authors>
Steinebach, C; Bricelj, A; Murgai, A; Sosič, I; Bischof, L; Ng, YLD; Heim, C; Maiwald, S; Proj, M; Voget, R; Feller, F; Košmrlj, J; Sapozhnikova, V; Schmidt, A; Zuleeg, MR; Lemnitzer, P; Mertins, P; Hansen, FK; Gütschow, M; Krönke, J; Hartmann, MD

> <Date of publication>
11/9/2023

> <Date in BindingDB>
12/20/2024

> <Institution>
University of Bonn

> <Link to Ligand in BindingDB>
http://www.bindingdb.org/bind/chemsearch/marvin/MolStructure.jsp?monomerid=50630605

> <Link to Ligand-Target Pair in BindingDB>
http://www.bindingdb.org/jsp/dbsearch/PrimarySearch_ki.jsp?energyterm=kJ/mole&tag=pol&polymerid=50007050&target=Protein+cereblon&column=ki&startPg=0&Increment=50&submit=Search

> <Link to Ligand-Target Pair in BindingDB>
http://www.bindingdb.org/jsp/dbsearch/PrimarySearch_ki.jsp?energyterm=kJ/mole&tag=r21&monomerid=50630605&enzyme=Protein+cereblon&column=ki&startPg=0&Increment=50&submit=Search

> <Ligand HET ID in PDB>


> <PDB ID(s) for Ligand-Target Complex>


> <PubChem CID of Ligand>
172463862

> <PubChem SID of Ligand>
505048576

> <ChEBI ID of Ligand>


> <ChEMBL ID of Ligand>


> <DrugBank ID of Ligand>


> <IUPHAR_GRAC ID of Ligand>


> <KEGG ID of Ligand>


> <ZINC ID of Ligand>


> <Number of Protein Chains in Target (bigger than 1 implies a multichain complex)>
1

> <BindingDB Target Chain Sequence>
MAGEGDQQDAAHNMGNHLPLLPAESEEEDEMEVEDQDSKEAKKPNIINFDTSLPTSHTYLGADMEEFHGRTLHDDDSCQVIPVLPQVMMILIPGQTLPLQLFHPQEVSMVRNLIQKDRTFAVLAYSNVQEREAQFGTTAEIYAYREEQDFGIEIVKVKAIGRQRFKVLELRTQSDGIQQAKVQILPECVLPSTMSAVQLESLNKCQIFPSKPVSREDQCSYKWWQKYQKRKFHCANLTSWPRWLYSLYDAETLMDRIKKQLREWDENLKDDSLPSNPIDFSYRVAACLPIDDVLRIQLLKIGSAIQRLRCELDIMNKCTSLCCKQCQETEITTKNEIFSLSLCGPMAAYVNPHGYVHETLTVYKACNLNLIGRPSTEHSWFPGYAWTVAQCKICASHIGWKFTATKKDMSPQKFWGLTRSALLPTIPDTEDEISPDKVILCL

> <PDB ID(s) of Target Chain>
8TNR,8TNQ,8TNP,8D81,8D80,8D7Z,8D7Y,8D7X,8D7W,8D7V,8D7U,8CVP,9DQD,8UH6,6BOY,6BNB,6BN9,6BN8,6BN7,6XK9,6UML,5V3O,5HXB,7U8F,8OJH,8OIZ,7LPS,4TZ4,9DJX,9DJT,8U17,8U16,8U15,8TZX,8DEY,9CUO,4M91

> <UniProt (SwissProt) Recommended Name of Target Chain>
Protein cereblon

> <UniProt (SwissProt) Entry Name of Target Chain>
CRBN_HUMAN

> <UniProt (SwissProt) Primary ID of Target Chain>
Q96SW2

> <UniProt (SwissProt) Secondary ID(s) of Target Chain>
B2R6H4 C9IZA9 C9JAH6 Q6AI62 Q6NVZ0 Q9UHW4

> <UniProt (SwissProt) Alternative ID(s) of Target Chain>


> <UniProt (TrEMBL) Submitted Name of Target Chain>


> <UniProt (TrEMBL) Entry Name of Target Chain>


> <UniProt (TrEMBL) Primary ID of Target Chain>


> <UniProt (TrEMBL) Secondary ID(s) of Target Chain>


> <UniProt (TrEMBL) Alternative ID(s) of Target Chain>


$$$$
 
     RDKit          2D

  9  9  0  0  0  0  0  0  0  0999 V2000
   26.4968   -2.5836    0.0000 C   0  0  0  0  0  0  0  0  0  0  0  0
   26.4968   -3.4008    0.0000 C   0  0  0  0  0  0  0  0  0  0  0  0
   27.2021   -3.8053    0.0000 N   0  0  0  0  0  0  0  0  0  0  0  0
   27.9074   -3.4008    0.0000 C   0  0  0  0  0  0  0  0  0  0  0  0
   27.9074   -2.5836    0.0000 N   0  0  0  0  0  0  0  0  0  0  0  0
   27.2021   -2.1709    0.0000 C   0  0  0  0  0  0  0  0  0  0  0  0
   27.2021   -1.3537    0.0000 O   0  0  0  0  0  0  0  0  0  0  0  0
   28.6145   -3.8105    0.0000 O   0  0  0  0  0  0  0  0  0  0  0  0
   27.2021   -4.6225    0.0000 N   0  0  0  0  0  0  0  0  0  0  0  0
  1  2  2  0
  1  6  1  0
  2  3  1  0
  3  4  1  0
  4  5  1  0
  5  6  1  0
  6  7  2  0
  4  8  2  0
  3  9  1  0
M  END
> <From>
www.bindingDB.org

> <BindingDB Reactant_set_id>
51359722

> <Ligand InChI>
InChI=1S/C4H5N3O2/c5-7-2-1-3(8)6-4(7)9/h1-2H,5H2,(H,6,8,9)

> <Ligand InChI Key>
IILMINFWXULDNN-UHFFFAOYSA-N

> <BindingDB MonomerID>
50549811

> <BindingDB Ligand Name>
CHEMBL4759876

> <Target Name>
Protein cereblon

> <Target Source Organism According to Curator or DataSource>
Human

> <Ki (nM)>
 40700

> <IC50 (nM)>


> <Kd (nM)>


> <EC50 (nM)>


> <kon (M-1-s-1)>


> <koff (s-1)>


> <pH>


> <Temp C>


> <Curation/DataSource>
ChEMBL

> <Article DOI>
10.1021/acsmedchemlett.0c00440

> <BindingDB Entry DOI>
10.7270/Q2WM1J1B

> <PMID>
33488967

> <PubChem AID>


> <Patent Number>


> <Authors>
Maiwald, S; Heim, C; Hernandez Alvarez, B; Hartmann, MD

> <Date of publication>
1/14/2021

> <Date in BindingDB>
3/23/2022

> <Institution>
Max Planck Institute for Developmental Biology

> <Link to Ligand in BindingDB>
http://www.bindingdb.org/bind/chemsearch/marvin/MolStructure.jsp?monomerid=50549811

> <Link to Ligand-Target Pair in BindingDB>
http://www.bindingdb.org/jsp/dbsearch/PrimarySearch_ki.jsp?energyterm=kJ/mole&tag=pol&polymerid=50007050&target=Protein+cereblon&column=ki&startPg=0&Increment=50&submit=Search

> <Link to Ligand-Target Pair in BindingDB>
http://www.bindingdb.org/jsp/dbsearch/PrimarySearch_ki.jsp?energyterm=kJ/mole&tag=r21&monomerid=50549811&enzyme=Protein+cereblon&column=ki&startPg=0&Increment=50&submit=Search

> <Ligand HET ID in PDB>


> <PDB ID(s) for Ligand-Target Complex>


> <PubChem CID of Ligand>
5743371

> <PubChem SID of Ligand>
461680151

> <ChEBI ID of Ligand>


> <ChEMBL ID of Ligand>


> <DrugBank ID of Ligand>


> <IUPHAR_GRAC ID of Ligand>


> <KEGG ID of Ligand>


> <ZINC ID of Ligand>


> <Number of Protein Chains in Target (bigger than 1 implies a multichain complex)>
1

> <BindingDB Target Chain Sequence>
MAGEGDQQDAAHNMGNHLPLLPAESEEEDEMEVEDQDSKEAKKPNIINFDTSLPTSHTYLGADMEEFHGRTLHDDDSCQVIPVLPQVMMILIPGQTLPLQLFHPQEVSMVRNLIQKDRTFAVLAYSNVQEREAQFGTTAEIYAYREEQDFGIEIVKVKAIGRQRFKVLELRTQSDGIQQAKVQILPECVLPSTMSAVQLESLNKCQIFPSKPVSREDQCSYKWWQKYQKRKFHCANLTSWPRWLYSLYDAETLMDRIKKQLREWDENLKDDSLPSNPIDFSYRVAACLPIDDVLRIQLLKIGSAIQRLRCELDIMNKCTSLCCKQCQETEITTKNEIFSLSLCGPMAAYVNPHGYVHETLTVYKACNLNLIGRPSTEHSWFPGYAWTVAQCKICASHIGWKFTATKKDMSPQKFWGLTRSALLPTIPDTEDEISPDKVILCL

> <PDB ID(s) of Target Chain>
4TZ4,5HXB,5V3O,6UML,6XK9,7LPS,7U8F,8CVP,8D7U,8D7V,8D7W,8D7X,8D7Y,8D7Z,8D80,8D81,8DEY,8OIZ,8OJH

> <UniProt (SwissProt) Recommended Name of Target Chain>
Protein cereblon

> <UniProt (SwissProt) Entry Name of Target Chain>
CRBN_HUMAN

> <UniProt (SwissProt) Primary ID of Target Chain>
Q96SW2

> <UniProt (SwissProt) Secondary ID(s) of Target Chain>
B2R6H4 C9IZA9 C9JAH6 Q6AI62 Q6NVZ0 Q9UHW4

> <UniProt (SwissProt) Alternative ID(s) of Target Chain>


> <UniProt (TrEMBL) Submitted Name of Target Chain>


> <UniProt (TrEMBL) Entry Name of Target Chain>


> <UniProt (TrEMBL) Primary ID of Target Chain>


> <UniProt (TrEMBL) Secondary ID(s) of Target Chain>


> <UniProt (TrEMBL) Alternative ID(s) of Target Chain>


$$$$
 
     RDKit          2D

 18 19  0  0  0  0  0  0  0  0999 V2000
   -2.4998   -0.2048    0.0000 C   0  0  0  0  0  0  0  0  0  0  0  0
   -1.7852    0.2074    0.0000 C   0  0  0  0  0  0  0  0  0  0  0  0
   -1.0732   -0.2044    0.0000 C   0  0  0  0  0  0  0  0  0  0  0  0
   -1.0732   -1.0296    0.0000 C   0  0  0  0  0  0  0  0  0  0  0  0
   -1.7833   -1.4414    0.0000 C   0  0  0  0  0  0  0  0  0  0  0  0
   -2.4998   -1.0333    0.0000 C   0  0  0  0  0  0  0  0  0  0  0  0
   -0.3585    0.2081    0.0000 C   0  0  0  0  0  0  0  0  0  0  0  0
   -0.3585    1.0333    0.0000 O   0  0  0  0  0  0  0  0  0  0  0  0
    0.3559   -0.2044    0.0000 N   0  0  0  0  0  0  0  0  0  0  0  0
    1.0706    0.2081    0.0000 C   0  0  0  0  0  0  0  0  0  0  0  0
    1.0705    1.0333    0.0000 C   0  0  0  0  0  0  0  0  0  0  0  0
    1.7852    1.4459    0.0000 C   0  0  0  0  0  0  0  0  0  0  0  0
    2.4998    1.0333    0.0000 C   0  0  0  0  0  0  0  0  0  0  0  0
    2.4998    0.2081    0.0000 N   0  0  0  0  0  0  0  0  0  0  0  0
    1.7852   -0.2044    0.0000 C   0  0  0  0  0  0  0  0  0  0  0  0
    1.7852   -1.0296    0.0000 O   0  0  0  0  0  0  0  0  0  0  0  0
    3.2144    1.4459    0.0000 O   0  0  0  0  0  0  0  0  0  0  0  0
   -3.2144   -1.4459    0.0000 N   0  0  0  0  0  0  0  0  0  0  0  0
  2  1  2  0
  3  2  1  0
  4  3  2  0
  5  4  1  0
  6  5  2  0
  1  6  1  0
  3  7  1  0
  7  8  2  0
  7  9  1  0
  9 10  1  0
 11 10  1  0
 12 11  1  0
 13 12  1  0
 14 13  1  0
 15 14  1  0
 10 15  1  0
 15 16  2  0
 13 17  2  0
  6 18  1  0
M  END
> <From>
www.bindingDB.org

> <BindingDB Reactant_set_id>
51567938

> <Ligand InChI>
InChI=1S/C12H13N3O3/c13-8-3-1-7(2-4-8)11(17)14-9-5-6-10(16)15-12(9)18/h1-4,9H,5-6,13H2,(H,14,17)(H,15,16,18)

> <Ligand InChI Key>
JBOKBLSWHXNCMS-UHFFFAOYSA-N

> <BindingDB MonomerID>
50630592

> <BindingDB Ligand Name>
CHEMBL5424655

> <Target Name>
Protein cereblon

> <Target Source Organism According to Curator or DataSource>
Homo sapiens

> <Ki (nM)>
 41000

> <IC50 (nM)>


> <Kd (nM)>


> <EC50 (nM)>


> <kon (M-1-s-1)>


> <koff (s-1)>


> <pH>


> <Temp C>


> <Curation/DataSource>
ChEMBL

> <Article DOI>
10.1021/acs.jmedchem.3c00851

> <BindingDB Entry DOI>
10.7270/Q2PK0MM6

> <PMID>
37902300

> <PubChem AID>


> <Patent Number>


> <Authors>
Steinebach, C; Bricelj, A; Murgai, A; Sosič, I; Bischof, L; Ng, YLD; Heim, C; Maiwald, S; Proj, M; Voget, R; Feller, F; Košmrlj, J; Sapozhnikova, V; Schmidt, A; Zuleeg, MR; Lemnitzer, P; Mertins, P; Hansen, FK; Gütschow, M; Krönke, J; Hartmann, MD

> <Date of publication>
11/9/2023

> <Date in BindingDB>
12/20/2024

> <Institution>
University of Bonn

> <Link to Ligand in BindingDB>
http://www.bindingdb.org/bind/chemsearch/marvin/MolStructure.jsp?monomerid=50630592

> <Link to Ligand-Target Pair in BindingDB>
http://www.bindingdb.org/jsp/dbsearch/PrimarySearch_ki.jsp?energyterm=kJ/mole&tag=pol&polymerid=50007050&target=Protein+cereblon&column=ki&startPg=0&Increment=50&submit=Search

> <Link to Ligand-Target Pair in BindingDB>
http://www.bindingdb.org/jsp/dbsearch/PrimarySearch_ki.jsp?energyterm=kJ/mole&tag=r21&monomerid=50630592&enzyme=Protein+cereblon&column=ki&startPg=0&Increment=50&submit=Search

> <Ligand HET ID in PDB>


> <PDB ID(s) for Ligand-Target Complex>


> <PubChem CID of Ligand>
65956249

> <PubChem SID of Ligand>
505048563

> <ChEBI ID of Ligand>


> <ChEMBL ID of Ligand>


> <DrugBank ID of Ligand>


> <IUPHAR_GRAC ID of Ligand>


> <KEGG ID of Ligand>


> <ZINC ID of Ligand>


> <Number of Protein Chains in Target (bigger than 1 implies a multichain complex)>
1

> <BindingDB Target Chain Sequence>
MAGEGDQQDAAHNMGNHLPLLPAESEEEDEMEVEDQDSKEAKKPNIINFDTSLPTSHTYLGADMEEFHGRTLHDDDSCQVIPVLPQVMMILIPGQTLPLQLFHPQEVSMVRNLIQKDRTFAVLAYSNVQEREAQFGTTAEIYAYREEQDFGIEIVKVKAIGRQRFKVLELRTQSDGIQQAKVQILPECVLPSTMSAVQLESLNKCQIFPSKPVSREDQCSYKWWQKYQKRKFHCANLTSWPRWLYSLYDAETLMDRIKKQLREWDENLKDDSLPSNPIDFSYRVAACLPIDDVLRIQLLKIGSAIQRLRCELDIMNKCTSLCCKQCQETEITTKNEIFSLSLCGPMAAYVNPHGYVHETLTVYKACNLNLIGRPSTEHSWFPGYAWTVAQCKICASHIGWKFTATKKDMSPQKFWGLTRSALLPTIPDTEDEISPDKVILCL

> <PDB ID(s) of Target Chain>
8TNR,8TNQ,8TNP,8D81,8D80,8D7Z,8D7Y,8D7X,8D7W,8D7V,8D7U,8CVP,9DQD,8UH6,6BOY,6BNB,6BN9,6BN8,6BN7,6XK9,6UML,5V3O,5HXB,7U8F,8OJH,8OIZ,7LPS,4TZ4,9DJX,9DJT,8U17,8U16,8U15,8TZX,8DEY,9CUO,4M91

> <UniProt (SwissProt) Recommended Name of Target Chain>
Protein cereblon

> <UniProt (SwissProt) Entry Name of Target Chain>
CRBN_HUMAN

> <UniProt (SwissProt) Primary ID of Target Chain>
Q96SW2

> <UniProt (SwissProt) Secondary ID(s) of Target Chain>
B2R6H4 C9IZA9 C9JAH6 Q6AI62 Q6NVZ0 Q9UHW4

> <UniProt (SwissProt) Alternative ID(s) of Target Chain>


> <UniProt (TrEMBL) Submitted Name of Target Chain>


> <UniProt (TrEMBL) Entry Name of Target Chain>


> <UniProt (TrEMBL) Primary ID of Target Chain>


> <UniProt (TrEMBL) Secondary ID(s) of Target Chain>


> <UniProt (TrEMBL) Alternative ID(s) of Target Chain>


$$$$

     RDKit          2D

 15 16  0  0  0  0  0  0  0  0999 V2000
    5.0260   -1.2990    0.0000 C   0  0  0  0  0  0  0  0  0  0  0  0
    3.5260   -1.2990    0.0000 C   0  0  0  0  0  0  0  0  0  0  0  0
    2.7760    0.0000    0.0000 C   0  0  0  0  0  0  0  0  0  0  0  0
    1.2760    0.0000    0.0000 C   0  0  0  0  0  0  0  0  0  0  0  0
    0.3943    1.2135    0.0000 N   0  0  0  0  0  0  0  0  0  0  0  0
   -1.0323    0.7500    0.0000 O   0  0  0  0  0  0  0  0  0  0  0  0
   -1.0323   -0.7500    0.0000 C   0  0  0  0  0  0  0  0  0  0  0  0
   -2.4026   -0.1399    0.0000 C   0  0  0  0  0  0  0  0  0  0  0  0
   -3.6161   -1.0216    0.0000 C   0  0  0  0  0  0  0  0  0  0  0  0
   -3.4593   -2.5134    0.0000 C   0  0  0  0  0  0  0  0  0  0  0  0
   -4.6729   -3.3950    0.0000 O   0  0  0  0  0  0  0  0  0  0  0  0
   -2.0890   -3.1235    0.0000 N   0  0  0  0  0  0  0  0  0  0  0  0
   -0.8755   -2.2418    0.0000 C   0  0  0  0  0  0  0  0  0  0  0  0
    0.4948   -2.8519    0.0000 O   0  0  0  0  0  0  0  0  0  0  0  0
    0.3943   -1.2135    0.0000 C   0  0  0  0  0  0  0  0  0  0  0  0
  1  2  1  0
  2  3  1  0
  3  4  1  0
  4  5  2  0
  5  6  1  0
  6  7  1  0
  7  8  1  0
  8  9  1  0
  9 10  1  0
 10 11  2  0
 10 12  1  0
 12 13  1  0
 13 14  2  0
  7 15  1  0
 15  4  1  0
 13  7  1  0
M  END
> <From>
www.bindingDB.org

> <BindingDB Reactant_set_id>
51588694

> <Ligand InChI>
InChI=1S/C10H14N2O3/c1-2-3-7-6-10(15-12-7)5-4-8(13)11-9(10)14/h2-6H2,1H3,(H,11,13,14)

> <Ligand InChI Key>
OAZWNLVYHKDPJX-UHFFFAOYSA-N

> <BindingDB MonomerID>
50639651

> <BindingDB Ligand Name>
CHEMBL5557543

> <Target Name>
Protein cereblon

> <Target Source Organism According to Curator or DataSource>
Human

> <Ki (nM)>
 41600

> <IC50 (nM)>


> <Kd (nM)>


> <EC50 (nM)>


> <kon (M-1-s-1)>


> <koff (s-1)>


> <pH>


> <Temp C>


> <Curation/DataSource>
ChEMBL

> <Article DOI>


> <BindingDB Entry DOI>
10.7270/Q2PC3713

> <PMID>
38552426

> <PubChem AID>


> <Patent Number>


> <Authors>
Shevalev, R; Bischof, L; Sapegin, A; Bunev, A; Olga, G; Kantin, G; Kalinin, S; Hartmann, MD

> <Date of publication>
//0

> <Date in BindingDB>
10/11/2025

> <Institution>
Saint Petersburg State University

> <Link to Ligand in BindingDB>
http://www.bindingdb.org/bind/chemsearch/marvin/MolStructure.jsp?monomerid=50639651

> <Link to Ligand-Target Pair in BindingDB>
http://www.bindingdb.org/rwd/jsp/dbsearch/PrimarySearch_ki.jsp?energyterm=kJ/mole&tag=pol&polymerid=50007050&target=Protein+cereblon&column=ki&startPg=0&Increment=50&submit=Search

> <Link to Ligand-Target Pair in BindingDB>
http://www.bindingdb.org/rwd/jsp/dbsearch/PrimarySearch_ki.jsp?energyterm=kJ/mole&tag=r21&monomerid=50639651&enzyme=Protein+cereblon&column=ki&startPg=0&Increment=50&submit=Search

> <Ligand HET ID in PDB>


> <PDB ID(s) for Ligand-Target Complex>


> <PubChem CID of Ligand>
177376711

> <PubChem SID of Ligand>
519660054

> <ChEBI ID of Ligand>


> <ChEMBL ID of Ligand>


> <DrugBank ID of Ligand>


> <IUPHAR_GRAC ID of Ligand>


> <KEGG ID of Ligand>


> <ZINC ID of Ligand>


> <Number of Protein Chains in Target (bigger than 1 implies a multichain complex)>
1

> <BindingDB Target Chain Sequence>
MAGEGDQQDAAHNMGNHLPLLPAESEEEDEMEVEDQDSKEAKKPNIINFDTSLPTSHTYLGADMEEFHGRTLHDDDSCQVIPVLPQVMMILIPGQTLPLQLFHPQEVSMVRNLIQKDRTFAVLAYSNVQEREAQFGTTAEIYAYREEQDFGIEIVKVKAIGRQRFKVLELRTQSDGIQQAKVQILPECVLPSTMSAVQLESLNKCQIFPSKPVSREDQCSYKWWQKYQKRKFHCANLTSWPRWLYSLYDAETLMDRIKKQLREWDENLKDDSLPSNPIDFSYRVAACLPIDDVLRIQLLKIGSAIQRLRCELDIMNKCTSLCCKQCQETEITTKNEIFSLSLCGPMAAYVNPHGYVHETLTVYKACNLNLIGRPSTEHSWFPGYAWTVAQCKICASHIGWKFTATKKDMSPQKFWGLTRSALLPTIPDTEDEISPDKVILCL

> <PDB ID(s) of Target Chain>
9DUR,8TNR,8TNQ,8TNP,9DWW,9DWV,9NGT,9NFR,9NFQ,8D81,8D80,8D7Z,8D7Y,8D7X,8D7W,8D7V,8D7U,8CVP,9Q2D,9Q03,9DQD,8UH6,9SAI,9SAF,9H59,9E2U,6BOY,6BNB,6BN9,6BN8,6BN7,9OUL,9Y7D,6XK9,6UML,5V3O,5HXB,9HNE,9D0X,9D0W,7U8F,9FJX,8OJH,8OIZ,7LPS,9SFM,9OTY,4TZ4,9DJX,9DJT,8U17,8U16,8U15,8TZX,8DEY,9CUO,4M91

> <UniProt (SwissProt) Recommended Name of Target Chain>
Protein cereblon

> <UniProt (SwissProt) Entry Name of Target Chain>
CRBN_HUMAN

> <UniProt (SwissProt) Primary ID of Target Chain>
Q96SW2

> <UniProt (SwissProt) Secondary ID(s) of Target Chain>
B2R6H4 C9IZA9 C9JAH6 Q6AI62 Q6NVZ0 Q9UHW4

> <UniProt (SwissProt) Alternative ID(s) of Target Chain>


> <UniProt (TrEMBL) Submitted Name of Target Chain>


> <UniProt (TrEMBL) Entry Name of Target Chain>


> <UniProt (TrEMBL) Primary ID of Target Chain>


> <UniProt (TrEMBL) Secondary ID(s) of Target Chain>


> <UniProt (TrEMBL) Alternative ID(s) of Target Chain>


$$$$
 
     RDKit          2D

 22 23  0  0  0  0  0  0  0  0999 V2000
   -1.7852    0.6182    0.0000 C   0  0  0  0  0  0  0  0  0  0  0  0
   -2.4998    0.2059    0.0000 C   0  0  0  0  0  0  0  0  0  0  0  0
   -2.4998   -0.6225    0.0000 C   0  0  0  0  0  0  0  0  0  0  0  0
   -1.7834   -1.0306    0.0000 C   0  0  0  0  0  0  0  0  0  0  0  0
   -1.0733   -0.6188    0.0000 C   0  0  0  0  0  0  0  0  0  0  0  0
   -1.0733    0.2063    0.0000 C   0  0  0  0  0  0  0  0  0  0  0  0
   -0.3587    0.6189    0.0000 C   0  0  0  0  0  0  0  0  0  0  0  0
   -0.3587    1.4440    0.0000 O   0  0  0  0  0  0  0  0  0  0  0  0
    0.3558    0.2063    0.0000 N   0  0  0  0  0  0  0  0  0  0  0  0
    1.0705    0.6189    0.0000 C   0  0  0  0  0  0  0  0  0  0  0  0
    1.0705    1.4440    0.0000 C   0  0  0  0  0  0  0  0  0  0  0  0
    1.7851    1.8566    0.0000 C   0  0  0  0  0  0  0  0  0  0  0  0
    2.4998    1.4440    0.0000 C   0  0  0  0  0  0  0  0  0  0  0  0
    2.4998    0.6189    0.0000 N   0  0  0  0  0  0  0  0  0  0  0  0
    1.7852    0.2063    0.0000 C   0  0  0  0  0  0  0  0  0  0  0  0
    1.7852   -0.6188    0.0000 O   0  0  0  0  0  0  0  0  0  0  0  0
    3.2144    1.8566    0.0000 O   0  0  0  0  0  0  0  0  0  0  0  0
   -0.3587   -1.0314    0.0000 C   0  0  0  0  0  0  0  0  0  0  0  0
   -3.2144   -1.0351    0.0000 N   0  0  0  0  0  0  0  0  0  0  0  0
    0.3558   -0.6188    0.0000 F   0  0  0  0  0  0  0  0  0  0  0  0
   -0.3587   -1.8566    0.0000 F   0  0  0  0  0  0  0  0  0  0  0  0
    0.3558   -1.4440    0.0000 F   0  0  0  0  0  0  0  0  0  0  0  0
  1  2  2  0
  2  3  1  0
  4  3  2  0
  5  4  1  0
  6  5  2  0
  1  6  1  0
  6  7  1  0
  7  8  2  0
  7  9  1  0
  9 10  1  0
 10 11  1  0
 11 12  1  0
 12 13  1  0
 13 14  1  0
 14 15  1  0
 10 15  1  0
 15 16  2  0
 13 17  2  0
  5 18  1  0
  3 19  1  0
 18 20  1  0
 18 21  1  0
 18 22  1  0
M  END
> <From>
www.bindingDB.org

> <BindingDB Reactant_set_id>
51567943

> <Ligand InChI>
InChI=1S/C13H12F3N3O3/c14-13(15,16)8-5-6(17)1-2-7(8)11(21)18-9-3-4-10(20)19-12(9)22/h1-2,5,9H,3-4,17H2,(H,18,21)(H,19,20,22)

> <Ligand InChI Key>
HPKPRXOHNCNKLQ-UHFFFAOYSA-N

> <BindingDB MonomerID>
50630597

> <BindingDB Ligand Name>
CHEMBL5404650

> <Target Name>
Protein cereblon

> <Target Source Organism According to Curator or DataSource>
Homo sapiens

> <Ki (nM)>
 42000

> <IC50 (nM)>


> <Kd (nM)>


> <EC50 (nM)>


> <kon (M-1-s-1)>


> <koff (s-1)>


> <pH>


> <Temp C>


> <Curation/DataSource>
ChEMBL

> <Article DOI>
10.1021/acs.jmedchem.3c00851

> <BindingDB Entry DOI>
10.7270/Q2PK0MM6

> <PMID>
37902300

> <PubChem AID>


> <Patent Number>


> <Authors>
Steinebach, C; Bricelj, A; Murgai, A; Sosič, I; Bischof, L; Ng, YLD; Heim, C; Maiwald, S; Proj, M; Voget, R; Feller, F; Košmrlj, J; Sapozhnikova, V; Schmidt, A; Zuleeg, MR; Lemnitzer, P; Mertins, P; Hansen, FK; Gütschow, M; Krönke, J; Hartmann, MD

> <Date of publication>
11/9/2023

> <Date in BindingDB>
12/20/2024

> <Institution>
University of Bonn

> <Link to Ligand in BindingDB>
http://www.bindingdb.org/bind/chemsearch/marvin/MolStructure.jsp?monomerid=50630597

> <Link to Ligand-Target Pair in BindingDB>
http://www.bindingdb.org/jsp/dbsearch/PrimarySearch_ki.jsp?energyterm=kJ/mole&tag=pol&polymerid=50007050&target=Protein+cereblon&column=ki&startPg=0&Increment=50&submit=Search

> <Link to Ligand-Target Pair in BindingDB>
http://www.bindingdb.org/jsp/dbsearch/PrimarySearch_ki.jsp?energyterm=kJ/mole&tag=r21&monomerid=50630597&enzyme=Protein+cereblon&column=ki&startPg=0&Increment=50&submit=Search

> <Ligand HET ID in PDB>
W1X    

> <PDB ID(s) for Ligand-Target Complex>
8OU5

> <PubChem CID of Ligand>
172443703

> <PubChem SID of Ligand>
505048568

> <ChEBI ID of Ligand>


> <ChEMBL ID of Ligand>


> <DrugBank ID of Ligand>


> <IUPHAR_GRAC ID of Ligand>


> <KEGG ID of Ligand>


> <ZINC ID of Ligand>


> <Number of Protein Chains in Target (bigger than 1 implies a multichain complex)>
1

> <BindingDB Target Chain Sequence>
MAGEGDQQDAAHNMGNHLPLLPAESEEEDEMEVEDQDSKEAKKPNIINFDTSLPTSHTYLGADMEEFHGRTLHDDDSCQVIPVLPQVMMILIPGQTLPLQLFHPQEVSMVRNLIQKDRTFAVLAYSNVQEREAQFGTTAEIYAYREEQDFGIEIVKVKAIGRQRFKVLELRTQSDGIQQAKVQILPECVLPSTMSAVQLESLNKCQIFPSKPVSREDQCSYKWWQKYQKRKFHCANLTSWPRWLYSLYDAETLMDRIKKQLREWDENLKDDSLPSNPIDFSYRVAACLPIDDVLRIQLLKIGSAIQRLRCELDIMNKCTSLCCKQCQETEITTKNEIFSLSLCGPMAAYVNPHGYVHETLTVYKACNLNLIGRPSTEHSWFPGYAWTVAQCKICASHIGWKFTATKKDMSPQKFWGLTRSALLPTIPDTEDEISPDKVILCL

> <PDB ID(s) of Target Chain>
8TNR,8TNQ,8TNP,8D81,8D80,8D7Z,8D7Y,8D7X,8D7W,8D7V,8D7U,8CVP,9DQD,8UH6,6BOY,6BNB,6BN9,6BN8,6BN7,6XK9,6UML,5V3O,5HXB,7U8F,8OJH,8OIZ,7LPS,4TZ4,9DJX,9DJT,8U17,8U16,8U15,8TZX,8DEY,9CUO,4M91

> <UniProt (SwissProt) Recommended Name of Target Chain>
Protein cereblon

> <UniProt (SwissProt) Entry Name of Target Chain>
CRBN_HUMAN

> <UniProt (SwissProt) Primary ID of Target Chain>
Q96SW2

> <UniProt (SwissProt) Secondary ID(s) of Target Chain>
B2R6H4 C9IZA9 C9JAH6 Q6AI62 Q6NVZ0 Q9UHW4

> <UniProt (SwissProt) Alternative ID(s) of Target Chain>


> <UniProt (TrEMBL) Submitted Name of Target Chain>


> <UniProt (TrEMBL) Entry Name of Target Chain>


> <UniProt (TrEMBL) Primary ID of Target Chain>


> <UniProt (TrEMBL) Secondary ID(s) of Target Chain>


> <UniProt (TrEMBL) Alternative ID(s) of Target Chain>


$$$$

     RDKit          2D

  7  7  0  0  0  0  0  0  0  0999 V2000
    0.7654   -1.2734    0.0000 O   0  0  0  0  0  0  0  0  0  0  0  0
    0.2805   -0.6060    0.0000 C   0  0  0  0  0  0  0  0  0  0  0  0
   -0.5445   -0.6060    0.0000 C   0  0  0  0  0  0  0  0  0  0  0  0
   -0.7995    0.1787    0.0000 N   0  0  0  0  0  0  0  0  0  0  0  0
    0.5354    0.1787    0.0000 N   0  0  0  0  0  0  0  0  0  0  0  0
   -0.1320    0.6636    0.0000 C   0  0  0  0  0  0  0  0  0  0  0  0
   -0.1320    1.4886    0.0000 O   0  0  0  0  0  0  0  0  0  0  0  0
  2  1  2  0
  2  3  1  0
  2  5  1  0
  3  4  1  0
  6  4  1  0
  6  5  1  0
  6  7  2  0
M  END
> <From>
www.bindingDB.org

> <BindingDB Reactant_set_id>
51545427

> <Ligand InChI>
InChI=1S/C3H4N2O2/c6-2-1-4-3(7)5-2/h1H2,(H2,4,5,6,7)

> <Ligand InChI Key>
WJRBRSLFGCUECM-UHFFFAOYSA-N

> <BindingDB MonomerID>
50549804

> <BindingDB Ligand Name>
CHEBI:27612::Hydantoin::Imidazolidine-2,4-Dione

> <Target Name>
Protein cereblon

> <Target Source Organism According to Curator or DataSource>
Homo sapiens

> <Ki (nM)>
 43000

> <IC50 (nM)>


> <Kd (nM)>


> <EC50 (nM)>


> <kon (M-1-s-1)>


> <koff (s-1)>


> <pH>


> <Temp C>


> <Curation/DataSource>
ChEMBL

> <Article DOI>
10.1021/acs.jmedchem.2c01882

> <BindingDB Entry DOI>
10.7270/Q2SJ1R0R

> <PMID>
36821822

> <PubChem AID>


> <Patent Number>


> <Authors>
n/a

> <Date of publication>
3/9/2023

> <Date in BindingDB>
12/16/2024

> <Institution>
n/a

> <Link to Ligand in BindingDB>
http://www.bindingdb.org/bind/chemsearch/marvin/MolStructure.jsp?monomerid=50549804

> <Link to Ligand-Target Pair in BindingDB>
http://www.bindingdb.org/jsp/dbsearch/PrimarySearch_ki.jsp?energyterm=kJ/mole&tag=pol&polymerid=50007050&target=Protein+cereblon&column=ki&startPg=0&Increment=50&submit=Search

> <Link to Ligand-Target Pair in BindingDB>
http://www.bindingdb.org/jsp/dbsearch/PrimarySearch_ki.jsp?energyterm=kJ/mole&tag=r21&monomerid=50549804&enzyme=Protein+cereblon&column=ki&startPg=0&Increment=50&submit=Search

> <Ligand HET ID in PDB>
HYN    

> <PDB ID(s) for Ligand-Target Complex>
4LCS,5OH7,6TX9,3CL7,5S46

> <PubChem CID of Ligand>
10006

> <PubChem SID of Ligand>
461680144

> <ChEBI ID of Ligand>


> <ChEMBL ID of Ligand>


> <DrugBank ID of Ligand>


> <IUPHAR_GRAC ID of Ligand>


> <KEGG ID of Ligand>
C05146

> <ZINC ID of Ligand>


> <Number of Protein Chains in Target (bigger than 1 implies a multichain complex)>
1

> <BindingDB Target Chain Sequence>
MAGEGDQQDAAHNMGNHLPLLPAESEEEDEMEVEDQDSKEAKKPNIINFDTSLPTSHTYLGADMEEFHGRTLHDDDSCQVIPVLPQVMMILIPGQTLPLQLFHPQEVSMVRNLIQKDRTFAVLAYSNVQEREAQFGTTAEIYAYREEQDFGIEIVKVKAIGRQRFKVLELRTQSDGIQQAKVQILPECVLPSTMSAVQLESLNKCQIFPSKPVSREDQCSYKWWQKYQKRKFHCANLTSWPRWLYSLYDAETLMDRIKKQLREWDENLKDDSLPSNPIDFSYRVAACLPIDDVLRIQLLKIGSAIQRLRCELDIMNKCTSLCCKQCQETEITTKNEIFSLSLCGPMAAYVNPHGYVHETLTVYKACNLNLIGRPSTEHSWFPGYAWTVAQCKICASHIGWKFTATKKDMSPQKFWGLTRSALLPTIPDTEDEISPDKVILCL

> <PDB ID(s) of Target Chain>
8TNR,8TNQ,8TNP,8D81,8D80,8D7Z,8D7Y,8D7X,8D7W,8D7V,8D7U,8CVP,9DQD,8UH6,6BOY,6BNB,6BN9,6BN8,6BN7,6XK9,6UML,5V3O,5HXB,7U8F,8OJH,8OIZ,7LPS,4TZ4,9DJX,9DJT,8U17,8U16,8U15,8TZX,8DEY,9CUO,4M91

> <UniProt (SwissProt) Recommended Name of Target Chain>
Protein cereblon

> <UniProt (SwissProt) Entry Name of Target Chain>
CRBN_HUMAN

> <UniProt (SwissProt) Primary ID of Target Chain>
Q96SW2

> <UniProt (SwissProt) Secondary ID(s) of Target Chain>
B2R6H4 C9IZA9 C9JAH6 Q6AI62 Q6NVZ0 Q9UHW4

> <UniProt (SwissProt) Alternative ID(s) of Target Chain>


> <UniProt (TrEMBL) Submitted Name of Target Chain>


> <UniProt (TrEMBL) Entry Name of Target Chain>


> <UniProt (TrEMBL) Primary ID of Target Chain>


> <UniProt (TrEMBL) Secondary ID(s) of Target Chain>


> <UniProt (TrEMBL) Alternative ID(s) of Target Chain>


$$$$
 
     RDKit          2D

 22 23  0  0  0  0  0  0  0  0999 V2000
   -1.7852    0.8241    0.0000 C   0  0  0  0  0  0  0  0  0  0  0  0
   -2.4998    0.4118    0.0000 C   0  0  0  0  0  0  0  0  0  0  0  0
   -2.4998   -0.4166    0.0000 C   0  0  0  0  0  0  0  0  0  0  0  0
   -1.7833   -0.8247    0.0000 C   0  0  0  0  0  0  0  0  0  0  0  0
   -1.0733   -0.4129    0.0000 C   0  0  0  0  0  0  0  0  0  0  0  0
   -1.0733    0.4122    0.0000 C   0  0  0  0  0  0  0  0  0  0  0  0
   -0.3585    0.8248    0.0000 C   0  0  0  0  0  0  0  0  0  0  0  0
   -0.3585    1.6500    0.0000 O   0  0  0  0  0  0  0  0  0  0  0  0
    0.3559    0.4122    0.0000 N   0  0  0  0  0  0  0  0  0  0  0  0
    1.0705    0.8248    0.0000 C   0  0  0  0  0  0  0  0  0  0  0  0
    1.0705    1.6499    0.0000 C   0  0  0  0  0  0  0  0  0  0  0  0
    1.7852    2.0625    0.0000 C   0  0  0  0  0  0  0  0  0  0  0  0
    2.4998    1.6499    0.0000 C   0  0  0  0  0  0  0  0  0  0  0  0
    2.4998    0.8248    0.0000 N   0  0  0  0  0  0  0  0  0  0  0  0
    1.7852    0.4122    0.0000 C   0  0  0  0  0  0  0  0  0  0  0  0
    1.7852   -0.4129    0.0000 O   0  0  0  0  0  0  0  0  0  0  0  0
    3.2144    2.0625    0.0000 O   0  0  0  0  0  0  0  0  0  0  0  0
   -0.3585   -0.8255    0.0000 F   0  0  0  0  0  0  0  0  0  0  0  0
   -3.2144   -0.8292    0.0000 N   0  0  0  0  0  0  0  0  0  0  0  0
   -1.7833   -1.6499    0.0000 O   0  0  0  0  0  0  0  0  0  0  0  0
   -1.0688   -2.0625    0.0000 C   0  0  0  0  0  0  0  0  0  0  0  0
   -3.2144    0.8243    0.0000 F   0  0  0  0  0  0  0  0  0  0  0  0
  1  2  2  0
  2  3  1  0
  4  3  2  0
  5  4  1  0
  6  5  2  0
  1  6  1  0
  6  7  1  0
  7  8  2  0
  7  9  1  0
  9 10  1  0
 10 11  1  0
 11 12  1  0
 12 13  1  0
 13 14  1  0
 14 15  1  0
 10 15  1  0
 15 16  2  0
 13 17  2  0
  5 18  1  0
  3 19  1  0
  4 20  1  0
 20 21  1  0
  2 22  1  0
M  END
> <From>
www.bindingDB.org

> <BindingDB Reactant_set_id>
51567947

> <Ligand InChI>
InChI=1S/C13H13F2N3O4/c1-22-11-9(15)5(4-6(14)10(11)16)12(20)17-7-2-3-8(19)18-13(7)21/h4,7H,2-3,16H2,1H3,(H,17,20)(H,18,19,21)

> <Ligand InChI Key>
AJJIOMGESOLWQL-UHFFFAOYSA-N

> <BindingDB MonomerID>
50630601

> <BindingDB Ligand Name>
CHEMBL5403248

> <Target Name>
Protein cereblon

> <Target Source Organism According to Curator or DataSource>
Homo sapiens

> <Ki (nM)>
 44000

> <IC50 (nM)>


> <Kd (nM)>


> <EC50 (nM)>


> <kon (M-1-s-1)>


> <koff (s-1)>


> <pH>


> <Temp C>


> <Curation/DataSource>
ChEMBL

> <Article DOI>
10.1021/acs.jmedchem.3c00851

> <BindingDB Entry DOI>
10.7270/Q2PK0MM6

> <PMID>
37902300

> <PubChem AID>


> <Patent Number>


> <Authors>
Steinebach, C; Bricelj, A; Murgai, A; Sosič, I; Bischof, L; Ng, YLD; Heim, C; Maiwald, S; Proj, M; Voget, R; Feller, F; Košmrlj, J; Sapozhnikova, V; Schmidt, A; Zuleeg, MR; Lemnitzer, P; Mertins, P; Hansen, FK; Gütschow, M; Krönke, J; Hartmann, MD

> <Date of publication>
11/9/2023

> <Date in BindingDB>
12/20/2024

> <Institution>
University of Bonn

> <Link to Ligand in BindingDB>
http://www.bindingdb.org/bind/chemsearch/marvin/MolStructure.jsp?monomerid=50630601

> <Link to Ligand-Target Pair in BindingDB>
http://www.bindingdb.org/jsp/dbsearch/PrimarySearch_ki.jsp?energyterm=kJ/mole&tag=pol&polymerid=50007050&target=Protein+cereblon&column=ki&startPg=0&Increment=50&submit=Search

> <Link to Ligand-Target Pair in BindingDB>
http://www.bindingdb.org/jsp/dbsearch/PrimarySearch_ki.jsp?energyterm=kJ/mole&tag=r21&monomerid=50630601&enzyme=Protein+cereblon&column=ki&startPg=0&Increment=50&submit=Search

> <Ligand HET ID in PDB>
W0Z    

> <PDB ID(s) for Ligand-Target Complex>
8OUA

> <PubChem CID of Ligand>
172445578

> <PubChem SID of Ligand>
505048572

> <ChEBI ID of Ligand>


> <ChEMBL ID of Ligand>


> <DrugBank ID of Ligand>


> <IUPHAR_GRAC ID of Ligand>


> <KEGG ID of Ligand>


> <ZINC ID of Ligand>


> <Number of Protein Chains in Target (bigger than 1 implies a multichain complex)>
1

> <BindingDB Target Chain Sequence>
MAGEGDQQDAAHNMGNHLPLLPAESEEEDEMEVEDQDSKEAKKPNIINFDTSLPTSHTYLGADMEEFHGRTLHDDDSCQVIPVLPQVMMILIPGQTLPLQLFHPQEVSMVRNLIQKDRTFAVLAYSNVQEREAQFGTTAEIYAYREEQDFGIEIVKVKAIGRQRFKVLELRTQSDGIQQAKVQILPECVLPSTMSAVQLESLNKCQIFPSKPVSREDQCSYKWWQKYQKRKFHCANLTSWPRWLYSLYDAETLMDRIKKQLREWDENLKDDSLPSNPIDFSYRVAACLPIDDVLRIQLLKIGSAIQRLRCELDIMNKCTSLCCKQCQETEITTKNEIFSLSLCGPMAAYVNPHGYVHETLTVYKACNLNLIGRPSTEHSWFPGYAWTVAQCKICASHIGWKFTATKKDMSPQKFWGLTRSALLPTIPDTEDEISPDKVILCL

> <PDB ID(s) of Target Chain>
8TNR,8TNQ,8TNP,8D81,8D80,8D7Z,8D7Y,8D7X,8D7W,8D7V,8D7U,8CVP,9DQD,8UH6,6BOY,6BNB,6BN9,6BN8,6BN7,6XK9,6UML,5V3O,5HXB,7U8F,8OJH,8OIZ,7LPS,4TZ4,9DJX,9DJT,8U17,8U16,8U15,8TZX,8DEY,9CUO,4M91

> <UniProt (SwissProt) Recommended Name of Target Chain>
Protein cereblon

> <UniProt (SwissProt) Entry Name of Target Chain>
CRBN_HUMAN

> <UniProt (SwissProt) Primary ID of Target Chain>
Q96SW2

> <UniProt (SwissProt) Secondary ID(s) of Target Chain>
B2R6H4 C9IZA9 C9JAH6 Q6AI62 Q6NVZ0 Q9UHW4

> <UniProt (SwissProt) Alternative ID(s) of Target Chain>


> <UniProt (TrEMBL) Submitted Name of Target Chain>


> <UniProt (TrEMBL) Entry Name of Target Chain>


> <UniProt (TrEMBL) Primary ID of Target Chain>


> <UniProt (TrEMBL) Secondary ID(s) of Target Chain>


> <UniProt (TrEMBL) Alternative ID(s) of Target Chain>


$$$$
 
     RDKit          2D

 19 20  0  0  0  0  0  0  0  0999 V2000
   -2.8571    0.2055    0.0000 C   0  0  0  0  0  0  0  0  0  0  0  0
   -2.1425    0.6178    0.0000 C   0  0  0  0  0  0  0  0  0  0  0  0
   -1.4306    0.2058    0.0000 C   0  0  0  0  0  0  0  0  0  0  0  0
   -1.4306   -0.6192    0.0000 C   0  0  0  0  0  0  0  0  0  0  0  0
   -2.1407   -1.0310    0.0000 C   0  0  0  0  0  0  0  0  0  0  0  0
   -2.8571   -0.6229    0.0000 C   0  0  0  0  0  0  0  0  0  0  0  0
   -0.7160    0.6185    0.0000 C   0  0  0  0  0  0  0  0  0  0  0  0
   -0.7160    1.4436    0.0000 O   0  0  0  0  0  0  0  0  0  0  0  0
   -0.0013    0.2058    0.0000 N   0  0  0  0  0  0  0  0  0  0  0  0
    0.7132    0.6185    0.0000 C   0  0  0  0  0  0  0  0  0  0  0  0
    0.7132    1.4436    0.0000 C   0  0  0  0  0  0  0  0  0  0  0  0
    1.4278    1.8562    0.0000 C   0  0  0  0  0  0  0  0  0  0  0  0
    2.1424    1.4436    0.0000 C   0  0  0  0  0  0  0  0  0  0  0  0
    2.1425    0.6184    0.0000 N   0  0  0  0  0  0  0  0  0  0  0  0
    1.4278    0.2058    0.0000 C   0  0  0  0  0  0  0  0  0  0  0  0
    1.4278   -0.6192    0.0000 O   0  0  0  0  0  0  0  0  0  0  0  0
    2.8571    1.8562    0.0000 O   0  0  0  0  0  0  0  0  0  0  0  0
   -0.7160   -1.0318    0.0000 F   0  0  0  0  0  0  0  0  0  0  0  0
   -2.1407   -1.8562    0.0000 N   0  0  0  0  0  0  0  0  0  0  0  0
  2  1  2  0
  3  2  1  0
  4  3  2  0
  5  4  1  0
  6  5  2  0
  1  6  1  0
  3  7  1  0
  7  8  2  0
  7  9  1  0
  9 10  1  0
 11 10  1  0
 12 11  1  0
 13 12  1  0
 14 13  1  0
 15 14  1  0
 10 15  1  0
 15 16  2  0
 13 17  2  0
  4 18  1  0
  5 19  1  0
M  END
> <From>
www.bindingDB.org

> <BindingDB Reactant_set_id>
51567937

> <Ligand InChI>
InChI=1S/C12H12FN3O3/c13-10-6(2-1-3-7(10)14)11(18)15-8-4-5-9(17)16-12(8)19/h1-3,8H,4-5,14H2,(H,15,18)(H,16,17,19)

> <Ligand InChI Key>
JXKRMKVDNCFRFC-UHFFFAOYSA-N

> <BindingDB MonomerID>
50630591

> <BindingDB Ligand Name>
CHEMBL5411174

> <Target Name>
Protein cereblon

> <Target Source Organism According to Curator or DataSource>
Homo sapiens

> <Ki (nM)>
 45000

> <IC50 (nM)>


> <Kd (nM)>


> <EC50 (nM)>


> <kon (M-1-s-1)>


> <koff (s-1)>


> <pH>


> <Temp C>


> <Curation/DataSource>
ChEMBL

> <Article DOI>
10.1021/acs.jmedchem.3c00851

> <BindingDB Entry DOI>
10.7270/Q2PK0MM6

> <PMID>
37902300

> <PubChem AID>


> <Patent Number>


> <Authors>
Steinebach, C; Bricelj, A; Murgai, A; Sosič, I; Bischof, L; Ng, YLD; Heim, C; Maiwald, S; Proj, M; Voget, R; Feller, F; Košmrlj, J; Sapozhnikova, V; Schmidt, A; Zuleeg, MR; Lemnitzer, P; Mertins, P; Hansen, FK; Gütschow, M; Krönke, J; Hartmann, MD

> <Date of publication>
11/9/2023

> <Date in BindingDB>
12/20/2024

> <Institution>
University of Bonn

> <Link to Ligand in BindingDB>
http://www.bindingdb.org/bind/chemsearch/marvin/MolStructure.jsp?monomerid=50630591

> <Link to Ligand-Target Pair in BindingDB>
http://www.bindingdb.org/jsp/dbsearch/PrimarySearch_ki.jsp?energyterm=kJ/mole&tag=pol&polymerid=50007050&target=Protein+cereblon&column=ki&startPg=0&Increment=50&submit=Search

> <Link to Ligand-Target Pair in BindingDB>
http://www.bindingdb.org/jsp/dbsearch/PrimarySearch_ki.jsp?energyterm=kJ/mole&tag=r21&monomerid=50630591&enzyme=Protein+cereblon&column=ki&startPg=0&Increment=50&submit=Search

> <Ligand HET ID in PDB>


> <PDB ID(s) for Ligand-Target Complex>


> <PubChem CID of Ligand>
172450529

> <PubChem SID of Ligand>
505048562

> <ChEBI ID of Ligand>


> <ChEMBL ID of Ligand>


> <DrugBank ID of Ligand>


> <IUPHAR_GRAC ID of Ligand>


> <KEGG ID of Ligand>


> <ZINC ID of Ligand>


> <Number of Protein Chains in Target (bigger than 1 implies a multichain complex)>
1

> <BindingDB Target Chain Sequence>
MAGEGDQQDAAHNMGNHLPLLPAESEEEDEMEVEDQDSKEAKKPNIINFDTSLPTSHTYLGADMEEFHGRTLHDDDSCQVIPVLPQVMMILIPGQTLPLQLFHPQEVSMVRNLIQKDRTFAVLAYSNVQEREAQFGTTAEIYAYREEQDFGIEIVKVKAIGRQRFKVLELRTQSDGIQQAKVQILPECVLPSTMSAVQLESLNKCQIFPSKPVSREDQCSYKWWQKYQKRKFHCANLTSWPRWLYSLYDAETLMDRIKKQLREWDENLKDDSLPSNPIDFSYRVAACLPIDDVLRIQLLKIGSAIQRLRCELDIMNKCTSLCCKQCQETEITTKNEIFSLSLCGPMAAYVNPHGYVHETLTVYKACNLNLIGRPSTEHSWFPGYAWTVAQCKICASHIGWKFTATKKDMSPQKFWGLTRSALLPTIPDTEDEISPDKVILCL

> <PDB ID(s) of Target Chain>
8TNR,8TNQ,8TNP,8D81,8D80,8D7Z,8D7Y,8D7X,8D7W,8D7V,8D7U,8CVP,9DQD,8UH6,6BOY,6BNB,6BN9,6BN8,6BN7,6XK9,6UML,5V3O,5HXB,7U8F,8OJH,8OIZ,7LPS,4TZ4,9DJX,9DJT,8U17,8U16,8U15,8TZX,8DEY,9CUO,4M91

> <UniProt (SwissProt) Recommended Name of Target Chain>
Protein cereblon

> <UniProt (SwissProt) Entry Name of Target Chain>
CRBN_HUMAN

> <UniProt (SwissProt) Primary ID of Target Chain>
Q96SW2

> <UniProt (SwissProt) Secondary ID(s) of Target Chain>
B2R6H4 C9IZA9 C9JAH6 Q6AI62 Q6NVZ0 Q9UHW4

> <UniProt (SwissProt) Alternative ID(s) of Target Chain>


> <UniProt (TrEMBL) Submitted Name of Target Chain>


> <UniProt (TrEMBL) Entry Name of Target Chain>


> <UniProt (TrEMBL) Primary ID of Target Chain>


> <UniProt (TrEMBL) Secondary ID(s) of Target Chain>


> <UniProt (TrEMBL) Alternative ID(s) of Target Chain>


$$$$
 
     RDKit          2D

 18 19  0  0  0  0  0  0  0  0999 V2000
   -2.8571    0.2055    0.0000 C   0  0  0  0  0  0  0  0  0  0  0  0
   -2.1425    0.6178    0.0000 C   0  0  0  0  0  0  0  0  0  0  0  0
   -1.4306    0.2058    0.0000 C   0  0  0  0  0  0  0  0  0  0  0  0
   -1.4306   -0.6192    0.0000 C   0  0  0  0  0  0  0  0  0  0  0  0
   -2.1407   -1.0310    0.0000 C   0  0  0  0  0  0  0  0  0  0  0  0
   -2.8571   -0.6229    0.0000 C   0  0  0  0  0  0  0  0  0  0  0  0
   -0.7160    0.6185    0.0000 C   0  0  0  0  0  0  0  0  0  0  0  0
   -0.7160    1.4436    0.0000 O   0  0  0  0  0  0  0  0  0  0  0  0
   -0.0013    0.2058    0.0000 N   0  0  0  0  0  0  0  0  0  0  0  0
    0.7132    0.6185    0.0000 C   0  0  0  0  0  0  0  0  0  0  0  0
    0.7132    1.4436    0.0000 C   0  0  0  0  0  0  0  0  0  0  0  0
    1.4278    1.8562    0.0000 C   0  0  0  0  0  0  0  0  0  0  0  0
    2.1425    1.4436    0.0000 C   0  0  0  0  0  0  0  0  0  0  0  0
    2.1425    0.6184    0.0000 N   0  0  0  0  0  0  0  0  0  0  0  0
    1.4279    0.2058    0.0000 C   0  0  0  0  0  0  0  0  0  0  0  0
    1.4279   -0.6192    0.0000 O   0  0  0  0  0  0  0  0  0  0  0  0
    2.8571    1.8562    0.0000 O   0  0  0  0  0  0  0  0  0  0  0  0
   -2.1407   -1.8562    0.0000 N   0  0  0  0  0  0  0  0  0  0  0  0
  2  1  2  0
  3  2  1  0
  4  3  2  0
  5  4  1  0
  1  6  1  0
  6  5  2  0
  3  7  1  0
  7  8  2  0
  7  9  1  0
  9 10  1  0
 11 10  1  0
 12 11  1  0
 13 12  1  0
 14 13  1  0
 15 14  1  0
 10 15  1  0
 15 16  2  0
 13 17  2  0
  5 18  1  0
M  END
> <From>
www.bindingDB.org

> <BindingDB Reactant_set_id>
51567936

> <Ligand InChI>
InChI=1S/C12H13N3O3/c13-8-3-1-2-7(6-8)11(17)14-9-4-5-10(16)15-12(9)18/h1-3,6,9H,4-5,13H2,(H,14,17)(H,15,16,18)

> <Ligand InChI Key>
XOLLDBOOXRTMRB-UHFFFAOYSA-N

> <BindingDB MonomerID>
50630590

> <BindingDB Ligand Name>
CHEMBL5398662

> <Target Name>
Protein cereblon

> <Target Source Organism According to Curator or DataSource>
Homo sapiens

> <Ki (nM)>
 53000

> <IC50 (nM)>


> <Kd (nM)>


> <EC50 (nM)>


> <kon (M-1-s-1)>


> <koff (s-1)>


> <pH>


> <Temp C>


> <Curation/DataSource>
ChEMBL

> <Article DOI>
10.1021/acs.jmedchem.3c00851

> <BindingDB Entry DOI>
10.7270/Q2PK0MM6

> <PMID>
37902300

> <PubChem AID>


> <Patent Number>


> <Authors>
Steinebach, C; Bricelj, A; Murgai, A; Sosič, I; Bischof, L; Ng, YLD; Heim, C; Maiwald, S; Proj, M; Voget, R; Feller, F; Košmrlj, J; Sapozhnikova, V; Schmidt, A; Zuleeg, MR; Lemnitzer, P; Mertins, P; Hansen, FK; Gütschow, M; Krönke, J; Hartmann, MD

> <Date of publication>
11/9/2023

> <Date in BindingDB>
12/20/2024

> <Institution>
University of Bonn

> <Link to Ligand in BindingDB>
http://www.bindingdb.org/bind/chemsearch/marvin/MolStructure.jsp?monomerid=50630590

> <Link to Ligand-Target Pair in BindingDB>
http://www.bindingdb.org/jsp/dbsearch/PrimarySearch_ki.jsp?energyterm=kJ/mole&tag=pol&polymerid=50007050&target=Protein+cereblon&column=ki&startPg=0&Increment=50&submit=Search

> <Link to Ligand-Target Pair in BindingDB>
http://www.bindingdb.org/jsp/dbsearch/PrimarySearch_ki.jsp?energyterm=kJ/mole&tag=r21&monomerid=50630590&enzyme=Protein+cereblon&column=ki&startPg=0&Increment=50&submit=Search

> <Ligand HET ID in PDB>


> <PDB ID(s) for Ligand-Target Complex>


> <PubChem CID of Ligand>
65956451

> <PubChem SID of Ligand>
505048561

> <ChEBI ID of Ligand>


> <ChEMBL ID of Ligand>


> <DrugBank ID of Ligand>


> <IUPHAR_GRAC ID of Ligand>


> <KEGG ID of Ligand>


> <ZINC ID of Ligand>


> <Number of Protein Chains in Target (bigger than 1 implies a multichain complex)>
1

> <BindingDB Target Chain Sequence>
MAGEGDQQDAAHNMGNHLPLLPAESEEEDEMEVEDQDSKEAKKPNIINFDTSLPTSHTYLGADMEEFHGRTLHDDDSCQVIPVLPQVMMILIPGQTLPLQLFHPQEVSMVRNLIQKDRTFAVLAYSNVQEREAQFGTTAEIYAYREEQDFGIEIVKVKAIGRQRFKVLELRTQSDGIQQAKVQILPECVLPSTMSAVQLESLNKCQIFPSKPVSREDQCSYKWWQKYQKRKFHCANLTSWPRWLYSLYDAETLMDRIKKQLREWDENLKDDSLPSNPIDFSYRVAACLPIDDVLRIQLLKIGSAIQRLRCELDIMNKCTSLCCKQCQETEITTKNEIFSLSLCGPMAAYVNPHGYVHETLTVYKACNLNLIGRPSTEHSWFPGYAWTVAQCKICASHIGWKFTATKKDMSPQKFWGLTRSALLPTIPDTEDEISPDKVILCL

> <PDB ID(s) of Target Chain>
8TNR,8TNQ,8TNP,8D81,8D80,8D7Z,8D7Y,8D7X,8D7W,8D7V,8D7U,8CVP,9DQD,8UH6,6BOY,6BNB,6BN9,6BN8,6BN7,6XK9,6UML,5V3O,5HXB,7U8F,8OJH,8OIZ,7LPS,4TZ4,9DJX,9DJT,8U17,8U16,8U15,8TZX,8DEY,9CUO,4M91

> <UniProt (SwissProt) Recommended Name of Target Chain>
Protein cereblon

> <UniProt (SwissProt) Entry Name of Target Chain>
CRBN_HUMAN

> <UniProt (SwissProt) Primary ID of Target Chain>
Q96SW2

> <UniProt (SwissProt) Secondary ID(s) of Target Chain>
B2R6H4 C9IZA9 C9JAH6 Q6AI62 Q6NVZ0 Q9UHW4

> <UniProt (SwissProt) Alternative ID(s) of Target Chain>


> <UniProt (TrEMBL) Submitted Name of Target Chain>


> <UniProt (TrEMBL) Entry Name of Target Chain>


> <UniProt (TrEMBL) Primary ID of Target Chain>


> <UniProt (TrEMBL) Secondary ID(s) of Target Chain>


> <UniProt (TrEMBL) Alternative ID(s) of Target Chain>


$$$$
 
     RDKit          2D

 19 20  0  0  0  0  0  0  0  0999 V2000
   -2.1425    0.2055    0.0000 C   0  0  0  0  0  0  0  0  0  0  0  0
   -2.8571   -0.2067    0.0000 C   0  0  0  0  0  0  0  0  0  0  0  0
   -2.8571   -1.0351    0.0000 C   0  0  0  0  0  0  0  0  0  0  0  0
   -2.1407   -1.4432    0.0000 C   0  0  0  0  0  0  0  0  0  0  0  0
   -1.4306   -1.0314    0.0000 C   0  0  0  0  0  0  0  0  0  0  0  0
   -1.4306   -0.2062    0.0000 C   0  0  0  0  0  0  0  0  0  0  0  0
   -0.7160    0.2062    0.0000 C   0  0  0  0  0  0  0  0  0  0  0  0
   -0.7160    1.0315    0.0000 O   0  0  0  0  0  0  0  0  0  0  0  0
   -0.0013   -0.2062    0.0000 N   0  0  0  0  0  0  0  0  0  0  0  0
    0.7132    0.2062    0.0000 C   0  0  0  0  0  0  0  0  0  0  0  0
    0.7132    1.0315    0.0000 C   0  0  0  0  0  0  0  0  0  0  0  0
    1.4278    1.4440    0.0000 C   0  0  0  0  0  0  0  0  0  0  0  0
    2.1425    1.0314    0.0000 C   0  0  0  0  0  0  0  0  0  0  0  0
    2.1425    0.2062    0.0000 N   0  0  0  0  0  0  0  0  0  0  0  0
    1.4278   -0.2062    0.0000 C   0  0  0  0  0  0  0  0  0  0  0  0
    1.4278   -1.0314    0.0000 O   0  0  0  0  0  0  0  0  0  0  0  0
    2.8571    1.4440    0.0000 O   0  0  0  0  0  0  0  0  0  0  0  0
   -0.7160   -1.4440    0.0000 F   0  0  0  0  0  0  0  0  0  0  0  0
   -2.1425    1.0308    0.0000 N   0  0  0  0  0  0  0  0  0  0  0  0
  1  2  2  0
  2  3  1  0
  4  3  2  0
  5  4  1  0
  6  5  2  0
  1  6  1  0
  6  7  1  0
  7  8  2  0
  7  9  1  0
  9 10  1  0
 10 11  1  0
 11 12  1  0
 12 13  1  0
 13 14  1  0
 14 15  1  0
 10 15  1  0
 15 16  2  0
 13 17  2  0
  5 18  1  0
  1 19  1  0
M  END
> <From>
www.bindingDB.org

> <BindingDB Reactant_set_id>
51567941

> <Ligand InChI>
InChI=1S/C12H12FN3O3/c13-6-2-1-3-7(14)10(6)12(19)15-8-4-5-9(17)16-11(8)18/h1-3,8H,4-5,14H2,(H,15,19)(H,16,17,18)

> <Ligand InChI Key>
CFBNFISJFWXHOO-UHFFFAOYSA-N

> <BindingDB MonomerID>
50630595

> <BindingDB Ligand Name>
CHEMBL5439012

> <Target Name>
Protein cereblon

> <Target Source Organism According to Curator or DataSource>
Homo sapiens

> <Ki (nM)>
 56000

> <IC50 (nM)>


> <Kd (nM)>


> <EC50 (nM)>


> <kon (M-1-s-1)>


> <koff (s-1)>


> <pH>


> <Temp C>


> <Curation/DataSource>
ChEMBL

> <Article DOI>
10.1021/acs.jmedchem.3c00851

> <BindingDB Entry DOI>
10.7270/Q2PK0MM6

> <PMID>
37902300

> <PubChem AID>


> <Patent Number>


> <Authors>
Steinebach, C; Bricelj, A; Murgai, A; Sosič, I; Bischof, L; Ng, YLD; Heim, C; Maiwald, S; Proj, M; Voget, R; Feller, F; Košmrlj, J; Sapozhnikova, V; Schmidt, A; Zuleeg, MR; Lemnitzer, P; Mertins, P; Hansen, FK; Gütschow, M; Krönke, J; Hartmann, MD

> <Date of publication>
11/9/2023

> <Date in BindingDB>
12/20/2024

> <Institution>
University of Bonn

> <Link to Ligand in BindingDB>
http://www.bindingdb.org/bind/chemsearch/marvin/MolStructure.jsp?monomerid=50630595

> <Link to Ligand-Target Pair in BindingDB>
http://www.bindingdb.org/jsp/dbsearch/PrimarySearch_ki.jsp?energyterm=kJ/mole&tag=pol&polymerid=50007050&target=Protein+cereblon&column=ki&startPg=0&Increment=50&submit=Search

> <Link to Ligand-Target Pair in BindingDB>
http://www.bindingdb.org/jsp/dbsearch/PrimarySearch_ki.jsp?energyterm=kJ/mole&tag=r21&monomerid=50630595&enzyme=Protein+cereblon&column=ki&startPg=0&Increment=50&submit=Search

> <Ligand HET ID in PDB>


> <PDB ID(s) for Ligand-Target Complex>


> <PubChem CID of Ligand>
142748641

> <PubChem SID of Ligand>
505048566

> <ChEBI ID of Ligand>


> <ChEMBL ID of Ligand>


> <DrugBank ID of Ligand>


> <IUPHAR_GRAC ID of Ligand>


> <KEGG ID of Ligand>


> <ZINC ID of Ligand>


> <Number of Protein Chains in Target (bigger than 1 implies a multichain complex)>
1

> <BindingDB Target Chain Sequence>
MAGEGDQQDAAHNMGNHLPLLPAESEEEDEMEVEDQDSKEAKKPNIINFDTSLPTSHTYLGADMEEFHGRTLHDDDSCQVIPVLPQVMMILIPGQTLPLQLFHPQEVSMVRNLIQKDRTFAVLAYSNVQEREAQFGTTAEIYAYREEQDFGIEIVKVKAIGRQRFKVLELRTQSDGIQQAKVQILPECVLPSTMSAVQLESLNKCQIFPSKPVSREDQCSYKWWQKYQKRKFHCANLTSWPRWLYSLYDAETLMDRIKKQLREWDENLKDDSLPSNPIDFSYRVAACLPIDDVLRIQLLKIGSAIQRLRCELDIMNKCTSLCCKQCQETEITTKNEIFSLSLCGPMAAYVNPHGYVHETLTVYKACNLNLIGRPSTEHSWFPGYAWTVAQCKICASHIGWKFTATKKDMSPQKFWGLTRSALLPTIPDTEDEISPDKVILCL

> <PDB ID(s) of Target Chain>
8TNR,8TNQ,8TNP,8D81,8D80,8D7Z,8D7Y,8D7X,8D7W,8D7V,8D7U,8CVP,9DQD,8UH6,6BOY,6BNB,6BN9,6BN8,6BN7,6XK9,6UML,5V3O,5HXB,7U8F,8OJH,8OIZ,7LPS,4TZ4,9DJX,9DJT,8U17,8U16,8U15,8TZX,8DEY,9CUO,4M91

> <UniProt (SwissProt) Recommended Name of Target Chain>
Protein cereblon

> <UniProt (SwissProt) Entry Name of Target Chain>
CRBN_HUMAN

> <UniProt (SwissProt) Primary ID of Target Chain>
Q96SW2

> <UniProt (SwissProt) Secondary ID(s) of Target Chain>
B2R6H4 C9IZA9 C9JAH6 Q6AI62 Q6NVZ0 Q9UHW4

> <UniProt (SwissProt) Alternative ID(s) of Target Chain>


> <UniProt (TrEMBL) Submitted Name of Target Chain>


> <UniProt (TrEMBL) Entry Name of Target Chain>


> <UniProt (TrEMBL) Primary ID of Target Chain>


> <UniProt (TrEMBL) Secondary ID(s) of Target Chain>


> <UniProt (TrEMBL) Alternative ID(s) of Target Chain>


$$$$

  Mrv0541 12132312292D          

 17 18  0  0  0  0            999 V2000
    0.0000   -1.6500    0.0000 O   0  0  0  0  0  0  0  0  0  0  0  0
    0.0000   -2.4750    0.0000 C   0  0  0  0  0  0  0  0  0  0  0  0
    0.7145   -2.8875    0.0000 N   0  0  0  0  0  0  0  0  0  0  0  0
    0.7145   -3.7125    0.0000 C   0  0  0  0  0  0  0  0  0  0  0  0
    0.0000   -4.1250    0.0000 C   0  0  0  0  0  0  0  0  0  0  0  0
   -0.7145   -3.7125    0.0000 C   0  0  0  0  0  0  0  0  0  0  0  0
   -0.7145   -2.8875    0.0000 C   0  0  0  0  0  0  0  0  0  0  0  0
   -1.4290   -2.4750    0.0000 N   0  0  0  0  0  0  0  0  0  0  0  0
   -1.4290   -1.6500    0.0000 C   0  0  0  0  0  0  0  0  0  0  0  0
   -2.1434   -1.2375    0.0000 C   0  0  0  0  0  0  0  0  0  0  0  0
   -2.8579   -1.6500    0.0000 C   0  0  0  0  0  0  0  0  0  0  0  0
   -3.5724   -1.2375    0.0000 C   0  0  0  0  0  0  0  0  0  0  0  0
   -3.5724   -0.4125    0.0000 C   0  0  0  0  0  0  0  0  0  0  0  0
   -2.8579    0.0000    0.0000 C   0  0  0  0  0  0  0  0  0  0  0  0
   -2.1434   -0.4125    0.0000 C   0  0  0  0  0  0  0  0  0  0  0  0
   -0.7145   -1.2375    0.0000 O   0  0  0  0  0  0  0  0  0  0  0  0
    1.4290   -4.1250    0.0000 O   0  0  0  0  0  0  0  0  0  0  0  0
  1  2  2  0  0  0  0
  2  3  1  0  0  0  0
  3  4  1  0  0  0  0
  4  5  1  0  0  0  0
  5  6  1  0  0  0  0
  6  7  1  0  0  0  0
  2  7  1  0  0  0  0
  7  8  1  0  0  0  0
  8  9  1  0  0  0  0
  9 10  1  0  0  0  0
 10 11  4  0  0  0  0
 11 12  4  0  0  0  0
 12 13  4  0  0  0  0
 13 14  4  0  0  0  0
 14 15  4  0  0  0  0
 10 15  4  0  0  0  0
  9 16  2  0  0  0  0
  4 17  2  0  0  0  0
M  END
> <From>
www.bindingDB.org

> <BindingDB Reactant_set_id>
51567934

> <Ligand InChI>
InChI=1S/C12H12N2O3/c15-10-7-6-9(12(17)14-10)13-11(16)8-4-2-1-3-5-8/h1-5,9H,6-7H2,(H,13,16)(H,14,15,17)

> <Ligand InChI Key>
QDCDITVKCKBZTO-UHFFFAOYSA-N

> <BindingDB MonomerID>
631083

> <BindingDB Ligand Name>
N-(2,6-dioxo-3-piperidyl)benzamide::US11802131, Example 10

> <Target Name>
Protein cereblon

> <Target Source Organism According to Curator or DataSource>
Homo sapiens

> <Ki (nM)>
 63000

> <IC50 (nM)>


> <Kd (nM)>


> <EC50 (nM)>


> <kon (M-1-s-1)>


> <koff (s-1)>


> <pH>


> <Temp C>


> <Curation/DataSource>
ChEMBL

> <Article DOI>
10.1021/acs.jmedchem.3c00851

> <BindingDB Entry DOI>
10.7270/Q2PK0MM6

> <PMID>
37902300

> <PubChem AID>


> <Patent Number>


> <Authors>
n/a

> <Date of publication>
11/9/2023

> <Date in BindingDB>
12/20/2024

> <Institution>
n/a

> <Link to Ligand in BindingDB>
http://www.bindingdb.org/bind/chemsearch/marvin/MolStructure.jsp?monomerid=631083

> <Link to Ligand-Target Pair in BindingDB>
http://www.bindingdb.org/jsp/dbsearch/PrimarySearch_ki.jsp?energyterm=kJ/mole&tag=pol&polymerid=50007050&target=Protein+cereblon&column=ki&startPg=0&Increment=50&submit=Search

> <Link to Ligand-Target Pair in BindingDB>
http://www.bindingdb.org/jsp/dbsearch/PrimarySearch_ki.jsp?energyterm=kJ/mole&tag=r21&monomerid=631083&enzyme=Protein+cereblon&column=ki&startPg=0&Increment=50&submit=Search

> <Ligand HET ID in PDB>


> <PDB ID(s) for Ligand-Target Complex>


> <PubChem CID of Ligand>
341427

> <PubChem SID of Ligand>
485658579

> <ChEBI ID of Ligand>


> <ChEMBL ID of Ligand>


> <DrugBank ID of Ligand>


> <IUPHAR_GRAC ID of Ligand>


> <KEGG ID of Ligand>


> <ZINC ID of Ligand>


> <Number of Protein Chains in Target (bigger than 1 implies a multichain complex)>
1

> <BindingDB Target Chain Sequence>
MAGEGDQQDAAHNMGNHLPLLPAESEEEDEMEVEDQDSKEAKKPNIINFDTSLPTSHTYLGADMEEFHGRTLHDDDSCQVIPVLPQVMMILIPGQTLPLQLFHPQEVSMVRNLIQKDRTFAVLAYSNVQEREAQFGTTAEIYAYREEQDFGIEIVKVKAIGRQRFKVLELRTQSDGIQQAKVQILPECVLPSTMSAVQLESLNKCQIFPSKPVSREDQCSYKWWQKYQKRKFHCANLTSWPRWLYSLYDAETLMDRIKKQLREWDENLKDDSLPSNPIDFSYRVAACLPIDDVLRIQLLKIGSAIQRLRCELDIMNKCTSLCCKQCQETEITTKNEIFSLSLCGPMAAYVNPHGYVHETLTVYKACNLNLIGRPSTEHSWFPGYAWTVAQCKICASHIGWKFTATKKDMSPQKFWGLTRSALLPTIPDTEDEISPDKVILCL

> <PDB ID(s) of Target Chain>
8TNR,8TNQ,8TNP,8D81,8D80,8D7Z,8D7Y,8D7X,8D7W,8D7V,8D7U,8CVP,9DQD,8UH6,6BOY,6BNB,6BN9,6BN8,6BN7,6XK9,6UML,5V3O,5HXB,7U8F,8OJH,8OIZ,7LPS,4TZ4,9DJX,9DJT,8U17,8U16,8U15,8TZX,8DEY,9CUO,4M91

> <UniProt (SwissProt) Recommended Name of Target Chain>
Protein cereblon

> <UniProt (SwissProt) Entry Name of Target Chain>
CRBN_HUMAN

> <UniProt (SwissProt) Primary ID of Target Chain>
Q96SW2

> <UniProt (SwissProt) Secondary ID(s) of Target Chain>
B2R6H4 C9IZA9 C9JAH6 Q6AI62 Q6NVZ0 Q9UHW4

> <UniProt (SwissProt) Alternative ID(s) of Target Chain>


> <UniProt (TrEMBL) Submitted Name of Target Chain>


> <UniProt (TrEMBL) Entry Name of Target Chain>


> <UniProt (TrEMBL) Primary ID of Target Chain>


> <UniProt (TrEMBL) Secondary ID(s) of Target Chain>


> <UniProt (TrEMBL) Alternative ID(s) of Target Chain>


$$$$
 
     RDKit          2D

 19 20  0  0  0  0  0  0  0  0999 V2000
   -1.7852    0.2074    0.0000 C   0  0  0  0  0  0  0  0  0  0  0  0
   -2.4998   -0.2048    0.0000 C   0  0  0  0  0  0  0  0  0  0  0  0
   -2.4998   -1.0333    0.0000 C   0  0  0  0  0  0  0  0  0  0  0  0
   -1.7834   -1.4414    0.0000 C   0  0  0  0  0  0  0  0  0  0  0  0
   -1.0733   -1.0296    0.0000 C   0  0  0  0  0  0  0  0  0  0  0  0
   -1.0733   -0.2044    0.0000 C   0  0  0  0  0  0  0  0  0  0  0  0
   -0.3586    0.2081    0.0000 C   0  0  0  0  0  0  0  0  0  0  0  0
   -0.3586    1.0333    0.0000 O   0  0  0  0  0  0  0  0  0  0  0  0
    0.3558   -0.2044    0.0000 N   0  0  0  0  0  0  0  0  0  0  0  0
    1.0705    0.2081    0.0000 C   0  0  0  0  0  0  0  0  0  0  0  0
    1.0705    1.0333    0.0000 C   0  0  0  0  0  0  0  0  0  0  0  0
    1.7851    1.4459    0.0000 C   0  0  0  0  0  0  0  0  0  0  0  0
    2.4998    1.0333    0.0000 C   0  0  0  0  0  0  0  0  0  0  0  0
    2.4998    0.2081    0.0000 N   0  0  0  0  0  0  0  0  0  0  0  0
    1.7852   -0.2044    0.0000 C   0  0  0  0  0  0  0  0  0  0  0  0
    1.7852   -1.0296    0.0000 O   0  0  0  0  0  0  0  0  0  0  0  0
    3.2144    1.4459    0.0000 O   0  0  0  0  0  0  0  0  0  0  0  0
   -0.3586   -1.4422    0.0000 C   0  0  0  0  0  0  0  0  0  0  0  0
   -3.2144   -1.4459    0.0000 N   0  0  0  0  0  0  0  0  0  0  0  0
  1  2  2  0
  2  3  1  0
  4  3  2  0
  5  4  1  0
  6  5  2  0
  1  6  1  0
  6  7  1  0
  7  8  2  0
  7  9  1  0
  9 10  1  0
 10 11  1  0
 11 12  1  0
 12 13  1  0
 13 14  1  0
 14 15  1  0
 10 15  1  0
 15 16  2  0
 13 17  2  0
  5 18  1  0
  3 19  1  0
M  END
> <From>
www.bindingDB.org

> <BindingDB Reactant_set_id>
51567944

> <Ligand InChI>
InChI=1S/C13H15N3O3/c1-7-6-8(14)2-3-9(7)12(18)15-10-4-5-11(17)16-13(10)19/h2-3,6,10H,4-5,14H2,1H3,(H,15,18)(H,16,17,19)

> <Ligand InChI Key>
BUTHFOQUICVORE-UHFFFAOYSA-N

> <BindingDB MonomerID>
50630598

> <BindingDB Ligand Name>
CHEMBL5419302

> <Target Name>
Protein cereblon

> <Target Source Organism According to Curator or DataSource>
Homo sapiens

> <Ki (nM)>
 65000

> <IC50 (nM)>


> <Kd (nM)>


> <EC50 (nM)>


> <kon (M-1-s-1)>


> <koff (s-1)>


> <pH>


> <Temp C>


> <Curation/DataSource>
ChEMBL

> <Article DOI>
10.1021/acs.jmedchem.3c00851

> <BindingDB Entry DOI>
10.7270/Q2PK0MM6

> <PMID>
37902300

> <PubChem AID>


> <Patent Number>


> <Authors>
Steinebach, C; Bricelj, A; Murgai, A; Sosič, I; Bischof, L; Ng, YLD; Heim, C; Maiwald, S; Proj, M; Voget, R; Feller, F; Košmrlj, J; Sapozhnikova, V; Schmidt, A; Zuleeg, MR; Lemnitzer, P; Mertins, P; Hansen, FK; Gütschow, M; Krönke, J; Hartmann, MD

> <Date of publication>
11/9/2023

> <Date in BindingDB>
12/20/2024

> <Institution>
University of Bonn

> <Link to Ligand in BindingDB>
http://www.bindingdb.org/bind/chemsearch/marvin/MolStructure.jsp?monomerid=50630598

> <Link to Ligand-Target Pair in BindingDB>
http://www.bindingdb.org/jsp/dbsearch/PrimarySearch_ki.jsp?energyterm=kJ/mole&tag=pol&polymerid=50007050&target=Protein+cereblon&column=ki&startPg=0&Increment=50&submit=Search

> <Link to Ligand-Target Pair in BindingDB>
http://www.bindingdb.org/jsp/dbsearch/PrimarySearch_ki.jsp?energyterm=kJ/mole&tag=r21&monomerid=50630598&enzyme=Protein+cereblon&column=ki&startPg=0&Increment=50&submit=Search

> <Ligand HET ID in PDB>
W26    

> <PDB ID(s) for Ligand-Target Complex>
8OU6

> <PubChem CID of Ligand>
65956852

> <PubChem SID of Ligand>
505048569

> <ChEBI ID of Ligand>


> <ChEMBL ID of Ligand>


> <DrugBank ID of Ligand>


> <IUPHAR_GRAC ID of Ligand>


> <KEGG ID of Ligand>


> <ZINC ID of Ligand>


> <Number of Protein Chains in Target (bigger than 1 implies a multichain complex)>
1

> <BindingDB Target Chain Sequence>
MAGEGDQQDAAHNMGNHLPLLPAESEEEDEMEVEDQDSKEAKKPNIINFDTSLPTSHTYLGADMEEFHGRTLHDDDSCQVIPVLPQVMMILIPGQTLPLQLFHPQEVSMVRNLIQKDRTFAVLAYSNVQEREAQFGTTAEIYAYREEQDFGIEIVKVKAIGRQRFKVLELRTQSDGIQQAKVQILPECVLPSTMSAVQLESLNKCQIFPSKPVSREDQCSYKWWQKYQKRKFHCANLTSWPRWLYSLYDAETLMDRIKKQLREWDENLKDDSLPSNPIDFSYRVAACLPIDDVLRIQLLKIGSAIQRLRCELDIMNKCTSLCCKQCQETEITTKNEIFSLSLCGPMAAYVNPHGYVHETLTVYKACNLNLIGRPSTEHSWFPGYAWTVAQCKICASHIGWKFTATKKDMSPQKFWGLTRSALLPTIPDTEDEISPDKVILCL

> <PDB ID(s) of Target Chain>
8TNR,8TNQ,8TNP,8D81,8D80,8D7Z,8D7Y,8D7X,8D7W,8D7V,8D7U,8CVP,9DQD,8UH6,6BOY,6BNB,6BN9,6BN8,6BN7,6XK9,6UML,5V3O,5HXB,7U8F,8OJH,8OIZ,7LPS,4TZ4,9DJX,9DJT,8U17,8U16,8U15,8TZX,8DEY,9CUO,4M91

> <UniProt (SwissProt) Recommended Name of Target Chain>
Protein cereblon

> <UniProt (SwissProt) Entry Name of Target Chain>
CRBN_HUMAN

> <UniProt (SwissProt) Primary ID of Target Chain>
Q96SW2

> <UniProt (SwissProt) Secondary ID(s) of Target Chain>
B2R6H4 C9IZA9 C9JAH6 Q6AI62 Q6NVZ0 Q9UHW4

> <UniProt (SwissProt) Alternative ID(s) of Target Chain>


> <UniProt (TrEMBL) Submitted Name of Target Chain>


> <UniProt (TrEMBL) Entry Name of Target Chain>


> <UniProt (TrEMBL) Primary ID of Target Chain>


> <UniProt (TrEMBL) Secondary ID(s) of Target Chain>


> <UniProt (TrEMBL) Alternative ID(s) of Target Chain>


$$$$
 
     RDKit          2D

 20 21  0  0  0  0  0  0  0  0999 V2000
   -1.4907    0.5668    0.0000 C   0  0  0  0  0  0  0  0  0  0  0  0
   -0.7763    0.9793    0.0000 C   0  0  0  0  0  0  0  0  0  0  0  0
   -0.7763    1.8042    0.0000 O   0  0  0  0  0  0  0  0  0  0  0  0
   -0.0618    0.5668    0.0000 N   0  0  0  0  0  0  0  0  0  0  0  0
    0.6525    0.9793    0.0000 C   0  0  0  0  0  0  0  0  0  0  0  0
    0.6525    1.8042    0.0000 C   0  0  0  0  0  0  0  0  0  0  0  0
    1.3669    2.2167    0.0000 C   0  0  0  0  0  0  0  0  0  0  0  0
    2.0813    1.8042    0.0000 C   0  0  0  0  0  0  0  0  0  0  0  0
    2.0814    0.9792    0.0000 N   0  0  0  0  0  0  0  0  0  0  0  0
    1.3669    0.5668    0.0000 C   0  0  0  0  0  0  0  0  0  0  0  0
    1.3669   -0.2581    0.0000 O   0  0  0  0  0  0  0  0  0  0  0  0
    2.7958    2.2167    0.0000 O   0  0  0  0  0  0  0  0  0  0  0  0
   -1.5769   -0.2531    0.0000 C   0  0  0  0  0  0  0  0  0  0  0  0
   -2.3834   -0.4246    0.0000 S   0  0  0  0  0  0  0  0  0  0  0  0
   -2.7958    0.2893    0.0000 C   0  0  0  0  0  0  0  0  0  0  0  0
   -2.2439    0.9021    0.0000 C   0  0  0  0  0  0  0  0  0  0  0  0
   -0.9936   -0.8365    0.0000 N   0  0  0  0  0  0  0  0  0  0  0  0
   -1.2070   -1.6333    0.0000 C   0  0  0  0  0  0  0  0  0  0  0  0
   -0.6237   -2.2167    0.0000 C   0  0  0  0  0  0  0  0  0  0  0  0
   -2.0038   -1.8468    0.0000 O   0  0  0  0  0  0  0  0  0  0  0  0
  1  2  1  0
  2  3  2  0
  2  4  1  0
  4  5  1  0
  6  5  1  0
  7  6  1  0
  8  7  1  0
  9  8  1  0
 10  9  1  0
  5 10  1  0
 10 11  2  0
  8 12  2  0
 13  1  2  0
 13 14  1  0
 14 15  1  0
 15 16  2  0
 16  1  1  0
 13 17  1  0
 17 18  1  0
 18 19  1  0
 18 20  2  0
M  END
> <From>
www.bindingDB.org

> <BindingDB Reactant_set_id>
51567956

> <Ligand InChI>
InChI=1S/C12H13N3O4S/c1-6(16)13-12-7(4-5-20-12)10(18)14-8-2-3-9(17)15-11(8)19/h4-5,8H,2-3H2,1H3,(H,13,16)(H,14,18)(H,15,17,19)

> <Ligand InChI Key>
OXPSJLDBCVUULG-UHFFFAOYSA-N

> <BindingDB MonomerID>
50630610

> <BindingDB Ligand Name>
CHEMBL5420119

> <Target Name>
Protein cereblon

> <Target Source Organism According to Curator or DataSource>
Homo sapiens

> <Ki (nM)>
 65000

> <IC50 (nM)>


> <Kd (nM)>


> <EC50 (nM)>


> <kon (M-1-s-1)>


> <koff (s-1)>


> <pH>


> <Temp C>


> <Curation/DataSource>
ChEMBL

> <Article DOI>
10.1021/acs.jmedchem.3c00851

> <BindingDB Entry DOI>
10.7270/Q2PK0MM6

> <PMID>
37902300

> <PubChem AID>


> <Patent Number>


> <Authors>
Steinebach, C; Bricelj, A; Murgai, A; Sosič, I; Bischof, L; Ng, YLD; Heim, C; Maiwald, S; Proj, M; Voget, R; Feller, F; Košmrlj, J; Sapozhnikova, V; Schmidt, A; Zuleeg, MR; Lemnitzer, P; Mertins, P; Hansen, FK; Gütschow, M; Krönke, J; Hartmann, MD

> <Date of publication>
11/9/2023

> <Date in BindingDB>
12/20/2024

> <Institution>
University of Bonn

> <Link to Ligand in BindingDB>
http://www.bindingdb.org/bind/chemsearch/marvin/MolStructure.jsp?monomerid=50630610

> <Link to Ligand-Target Pair in BindingDB>
http://www.bindingdb.org/jsp/dbsearch/PrimarySearch_ki.jsp?energyterm=kJ/mole&tag=pol&polymerid=50007050&target=Protein+cereblon&column=ki&startPg=0&Increment=50&submit=Search

> <Link to Ligand-Target Pair in BindingDB>
http://www.bindingdb.org/jsp/dbsearch/PrimarySearch_ki.jsp?energyterm=kJ/mole&tag=r21&monomerid=50630610&enzyme=Protein+cereblon&column=ki&startPg=0&Increment=50&submit=Search

> <Ligand HET ID in PDB>


> <PDB ID(s) for Ligand-Target Complex>


> <PubChem CID of Ligand>
156408625

> <PubChem SID of Ligand>
505048581

> <ChEBI ID of Ligand>


> <ChEMBL ID of Ligand>


> <DrugBank ID of Ligand>


> <IUPHAR_GRAC ID of Ligand>


> <KEGG ID of Ligand>


> <ZINC ID of Ligand>


> <Number of Protein Chains in Target (bigger than 1 implies a multichain complex)>
1

> <BindingDB Target Chain Sequence>
MAGEGDQQDAAHNMGNHLPLLPAESEEEDEMEVEDQDSKEAKKPNIINFDTSLPTSHTYLGADMEEFHGRTLHDDDSCQVIPVLPQVMMILIPGQTLPLQLFHPQEVSMVRNLIQKDRTFAVLAYSNVQEREAQFGTTAEIYAYREEQDFGIEIVKVKAIGRQRFKVLELRTQSDGIQQAKVQILPECVLPSTMSAVQLESLNKCQIFPSKPVSREDQCSYKWWQKYQKRKFHCANLTSWPRWLYSLYDAETLMDRIKKQLREWDENLKDDSLPSNPIDFSYRVAACLPIDDVLRIQLLKIGSAIQRLRCELDIMNKCTSLCCKQCQETEITTKNEIFSLSLCGPMAAYVNPHGYVHETLTVYKACNLNLIGRPSTEHSWFPGYAWTVAQCKICASHIGWKFTATKKDMSPQKFWGLTRSALLPTIPDTEDEISPDKVILCL

> <PDB ID(s) of Target Chain>
8TNR,8TNQ,8TNP,8D81,8D80,8D7Z,8D7Y,8D7X,8D7W,8D7V,8D7U,8CVP,9DQD,8UH6,6BOY,6BNB,6BN9,6BN8,6BN7,6XK9,6UML,5V3O,5HXB,7U8F,8OJH,8OIZ,7LPS,4TZ4,9DJX,9DJT,8U17,8U16,8U15,8TZX,8DEY,9CUO,4M91

> <UniProt (SwissProt) Recommended Name of Target Chain>
Protein cereblon

> <UniProt (SwissProt) Entry Name of Target Chain>
CRBN_HUMAN

> <UniProt (SwissProt) Primary ID of Target Chain>
Q96SW2

> <UniProt (SwissProt) Secondary ID(s) of Target Chain>
B2R6H4 C9IZA9 C9JAH6 Q6AI62 Q6NVZ0 Q9UHW4

> <UniProt (SwissProt) Alternative ID(s) of Target Chain>


> <UniProt (TrEMBL) Submitted Name of Target Chain>


> <UniProt (TrEMBL) Entry Name of Target Chain>


> <UniProt (TrEMBL) Primary ID of Target Chain>


> <UniProt (TrEMBL) Secondary ID(s) of Target Chain>


> <UniProt (TrEMBL) Alternative ID(s) of Target Chain>


$$$$
 
     RDKit          2D

 17 18  0  0  0  0  0  0  0  0999 V2000
   -2.8571   -0.2071    0.0000 C   0  0  0  0  0  0  0  0  0  0  0  0
   -2.1425    0.2051    0.0000 C   0  0  0  0  0  0  0  0  0  0  0  0
   -1.4306   -0.2067    0.0000 C   0  0  0  0  0  0  0  0  0  0  0  0
   -1.4306   -1.0318    0.0000 N   0  0  0  0  0  0  0  0  0  0  0  0
   -2.1407   -1.4435    0.0000 C   0  0  0  0  0  0  0  0  0  0  0  0
   -2.8571   -1.0355    0.0000 C   0  0  0  0  0  0  0  0  0  0  0  0
   -0.7160    0.2058    0.0000 C   0  0  0  0  0  0  0  0  0  0  0  0
   -0.7160    1.0310    0.0000 O   0  0  0  0  0  0  0  0  0  0  0  0
   -0.0014   -0.2067    0.0000 N   0  0  0  0  0  0  0  0  0  0  0  0
    0.7131    0.2058    0.0000 C   0  0  0  0  0  0  0  0  0  0  0  0
    0.7131    1.0310    0.0000 C   0  0  0  0  0  0  0  0  0  0  0  0
    1.4278    1.4435    0.0000 C   0  0  0  0  0  0  0  0  0  0  0  0
    2.1424    1.0310    0.0000 C   0  0  0  0  0  0  0  0  0  0  0  0
    2.1424    0.2058    0.0000 N   0  0  0  0  0  0  0  0  0  0  0  0
    1.4278   -0.2067    0.0000 C   0  0  0  0  0  0  0  0  0  0  0  0
    1.4278   -1.0318    0.0000 O   0  0  0  0  0  0  0  0  0  0  0  0
    2.8571    1.4435    0.0000 O   0  0  0  0  0  0  0  0  0  0  0  0
  2  1  2  0
  3  2  1  0
  4  3  2  0
  5  4  1  0
  1  6  1  0
  6  5  2  0
  3  7  1  0
  7  8  2  0
  7  9  1  0
  9 10  1  0
 11 10  1  0
 12 11  1  0
 13 12  1  0
 14 13  1  0
 15 14  1  0
 10 15  1  0
 15 16  2  0
 13 17  2  0
M  END
> <From>
www.bindingDB.org

> <BindingDB Reactant_set_id>
51567955

> <Ligand InChI>
InChI=1S/C11H11N3O3/c15-9-5-4-8(11(17)14-9)13-10(16)7-3-1-2-6-12-7/h1-3,6,8H,4-5H2,(H,13,16)(H,14,15,17)

> <Ligand InChI Key>
MMPCNYVDMALQGW-UHFFFAOYSA-N

> <BindingDB MonomerID>
50630609

> <BindingDB Ligand Name>
CHEMBL5410366

> <Target Name>
Protein cereblon

> <Target Source Organism According to Curator or DataSource>
Homo sapiens

> <Ki (nM)>
 66000

> <IC50 (nM)>


> <Kd (nM)>


> <EC50 (nM)>


> <kon (M-1-s-1)>


> <koff (s-1)>


> <pH>


> <Temp C>


> <Curation/DataSource>
ChEMBL

> <Article DOI>
10.1021/acs.jmedchem.3c00851

> <BindingDB Entry DOI>
10.7270/Q2PK0MM6

> <PMID>
37902300

> <PubChem AID>


> <Patent Number>


> <Authors>
Steinebach, C; Bricelj, A; Murgai, A; Sosič, I; Bischof, L; Ng, YLD; Heim, C; Maiwald, S; Proj, M; Voget, R; Feller, F; Košmrlj, J; Sapozhnikova, V; Schmidt, A; Zuleeg, MR; Lemnitzer, P; Mertins, P; Hansen, FK; Gütschow, M; Krönke, J; Hartmann, MD

> <Date of publication>
11/9/2023

> <Date in BindingDB>
12/20/2024

> <Institution>
University of Bonn

> <Link to Ligand in BindingDB>
http://www.bindingdb.org/bind/chemsearch/marvin/MolStructure.jsp?monomerid=50630609

> <Link to Ligand-Target Pair in BindingDB>
http://www.bindingdb.org/jsp/dbsearch/PrimarySearch_ki.jsp?energyterm=kJ/mole&tag=pol&polymerid=50007050&target=Protein+cereblon&column=ki&startPg=0&Increment=50&submit=Search

> <Link to Ligand-Target Pair in BindingDB>
http://www.bindingdb.org/jsp/dbsearch/PrimarySearch_ki.jsp?energyterm=kJ/mole&tag=r21&monomerid=50630609&enzyme=Protein+cereblon&column=ki&startPg=0&Increment=50&submit=Search

> <Ligand HET ID in PDB>


> <PDB ID(s) for Ligand-Target Complex>


> <PubChem CID of Ligand>
65956110

> <PubChem SID of Ligand>
505048580

> <ChEBI ID of Ligand>


> <ChEMBL ID of Ligand>


> <DrugBank ID of Ligand>


> <IUPHAR_GRAC ID of Ligand>


> <KEGG ID of Ligand>


> <ZINC ID of Ligand>


> <Number of Protein Chains in Target (bigger than 1 implies a multichain complex)>
1

> <BindingDB Target Chain Sequence>
MAGEGDQQDAAHNMGNHLPLLPAESEEEDEMEVEDQDSKEAKKPNIINFDTSLPTSHTYLGADMEEFHGRTLHDDDSCQVIPVLPQVMMILIPGQTLPLQLFHPQEVSMVRNLIQKDRTFAVLAYSNVQEREAQFGTTAEIYAYREEQDFGIEIVKVKAIGRQRFKVLELRTQSDGIQQAKVQILPECVLPSTMSAVQLESLNKCQIFPSKPVSREDQCSYKWWQKYQKRKFHCANLTSWPRWLYSLYDAETLMDRIKKQLREWDENLKDDSLPSNPIDFSYRVAACLPIDDVLRIQLLKIGSAIQRLRCELDIMNKCTSLCCKQCQETEITTKNEIFSLSLCGPMAAYVNPHGYVHETLTVYKACNLNLIGRPSTEHSWFPGYAWTVAQCKICASHIGWKFTATKKDMSPQKFWGLTRSALLPTIPDTEDEISPDKVILCL

> <PDB ID(s) of Target Chain>
8TNR,8TNQ,8TNP,8D81,8D80,8D7Z,8D7Y,8D7X,8D7W,8D7V,8D7U,8CVP,9DQD,8UH6,6BOY,6BNB,6BN9,6BN8,6BN7,6XK9,6UML,5V3O,5HXB,7U8F,8OJH,8OIZ,7LPS,4TZ4,9DJX,9DJT,8U17,8U16,8U15,8TZX,8DEY,9CUO,4M91

> <UniProt (SwissProt) Recommended Name of Target Chain>
Protein cereblon

> <UniProt (SwissProt) Entry Name of Target Chain>
CRBN_HUMAN

> <UniProt (SwissProt) Primary ID of Target Chain>
Q96SW2

> <UniProt (SwissProt) Secondary ID(s) of Target Chain>
B2R6H4 C9IZA9 C9JAH6 Q6AI62 Q6NVZ0 Q9UHW4

> <UniProt (SwissProt) Alternative ID(s) of Target Chain>


> <UniProt (TrEMBL) Submitted Name of Target Chain>


> <UniProt (TrEMBL) Entry Name of Target Chain>


> <UniProt (TrEMBL) Primary ID of Target Chain>


> <UniProt (TrEMBL) Secondary ID(s) of Target Chain>


> <UniProt (TrEMBL) Alternative ID(s) of Target Chain>


$$$$
 
     RDKit          2D

  8  8  0  0  0  0  0  0  0  0999 V2000
    2.7858   -4.2098    0.0000 C   0  0  0  0  0  0  0  0  0  0  0  0
    3.6030   -4.2098    0.0000 N   0  0  0  0  0  0  0  0  0  0  0  0
    3.8574   -3.4331    0.0000 C   0  0  0  0  0  0  0  0  0  0  0  0
    3.1944   -2.9510    0.0000 C   0  0  0  0  0  0  0  0  0  0  0  0
    2.5357   -3.4331    0.0000 N   0  0  0  0  0  0  0  0  0  0  0  0
    2.3047   -4.8703    0.0000 O   0  0  0  0  0  0  0  0  0  0  0  0
    4.6350   -3.1816    0.0000 O   0  0  0  0  0  0  0  0  0  0  0  0
    1.7584   -3.1809    0.0000 C   0  0  0  0  0  0  0  0  0  0  0  0
  1  2  1  0
  2  3  1  0
  3  4  1  0
  4  5  1  0
  5  1  1  0
  1  6  2  0
  3  7  2  0
  5  8  1  0
M  END
> <From>
www.bindingDB.org

> <BindingDB Reactant_set_id>
51359698

> <Ligand InChI>
InChI=1S/C4H6N2O2/c1-6-2-3(7)5-4(6)8/h2H2,1H3,(H,5,7,8)

> <Ligand InChI Key>
RHYBFKMFHLPQPH-UHFFFAOYSA-N

> <BindingDB MonomerID>
50549806

> <BindingDB Ligand Name>
CHEMBL4758352

> <Target Name>
Protein cereblon

> <Target Source Organism According to Curator or DataSource>
Human

> <Ki (nM)>
 67800

> <IC50 (nM)>


> <Kd (nM)>


> <EC50 (nM)>


> <kon (M-1-s-1)>


> <koff (s-1)>


> <pH>


> <Temp C>


> <Curation/DataSource>
ChEMBL

> <Article DOI>
10.1021/acsmedchemlett.0c00440

> <BindingDB Entry DOI>
10.7270/Q2WM1J1B

> <PMID>
33488967

> <PubChem AID>


> <Patent Number>


> <Authors>
Maiwald, S; Heim, C; Hernandez Alvarez, B; Hartmann, MD

> <Date of publication>
1/14/2021

> <Date in BindingDB>
3/23/2022

> <Institution>
Max Planck Institute for Developmental Biology

> <Link to Ligand in BindingDB>
http://www.bindingdb.org/bind/chemsearch/marvin/MolStructure.jsp?monomerid=50549806

> <Link to Ligand-Target Pair in BindingDB>
http://www.bindingdb.org/jsp/dbsearch/PrimarySearch_ki.jsp?energyterm=kJ/mole&tag=pol&polymerid=50007050&target=Protein+cereblon&column=ki&startPg=0&Increment=50&submit=Search

> <Link to Ligand-Target Pair in BindingDB>
http://www.bindingdb.org/jsp/dbsearch/PrimarySearch_ki.jsp?energyterm=kJ/mole&tag=r21&monomerid=50549806&enzyme=Protein+cereblon&column=ki&startPg=0&Increment=50&submit=Search

> <Ligand HET ID in PDB>


> <PDB ID(s) for Ligand-Target Complex>


> <PubChem CID of Ligand>
69217

> <PubChem SID of Ligand>
461680146

> <ChEBI ID of Ligand>


> <ChEMBL ID of Ligand>


> <DrugBank ID of Ligand>


> <IUPHAR_GRAC ID of Ligand>


> <KEGG ID of Ligand>
C02565

> <ZINC ID of Ligand>


> <Number of Protein Chains in Target (bigger than 1 implies a multichain complex)>
1

> <BindingDB Target Chain Sequence>
MAGEGDQQDAAHNMGNHLPLLPAESEEEDEMEVEDQDSKEAKKPNIINFDTSLPTSHTYLGADMEEFHGRTLHDDDSCQVIPVLPQVMMILIPGQTLPLQLFHPQEVSMVRNLIQKDRTFAVLAYSNVQEREAQFGTTAEIYAYREEQDFGIEIVKVKAIGRQRFKVLELRTQSDGIQQAKVQILPECVLPSTMSAVQLESLNKCQIFPSKPVSREDQCSYKWWQKYQKRKFHCANLTSWPRWLYSLYDAETLMDRIKKQLREWDENLKDDSLPSNPIDFSYRVAACLPIDDVLRIQLLKIGSAIQRLRCELDIMNKCTSLCCKQCQETEITTKNEIFSLSLCGPMAAYVNPHGYVHETLTVYKACNLNLIGRPSTEHSWFPGYAWTVAQCKICASHIGWKFTATKKDMSPQKFWGLTRSALLPTIPDTEDEISPDKVILCL

> <PDB ID(s) of Target Chain>
4TZ4,5HXB,5V3O,6UML,6XK9,7LPS,7U8F,8CVP,8D7U,8D7V,8D7W,8D7X,8D7Y,8D7Z,8D80,8D81,8DEY,8OIZ,8OJH

> <UniProt (SwissProt) Recommended Name of Target Chain>
Protein cereblon

> <UniProt (SwissProt) Entry Name of Target Chain>
CRBN_HUMAN

> <UniProt (SwissProt) Primary ID of Target Chain>
Q96SW2

> <UniProt (SwissProt) Secondary ID(s) of Target Chain>
B2R6H4 C9IZA9 C9JAH6 Q6AI62 Q6NVZ0 Q9UHW4

> <UniProt (SwissProt) Alternative ID(s) of Target Chain>


> <UniProt (TrEMBL) Submitted Name of Target Chain>


> <UniProt (TrEMBL) Entry Name of Target Chain>


> <UniProt (TrEMBL) Primary ID of Target Chain>


> <UniProt (TrEMBL) Secondary ID(s) of Target Chain>


> <UniProt (TrEMBL) Alternative ID(s) of Target Chain>


$$$$

     RDKit          2D

  9  9  0  0  0  0  0  0  0  0999 V2000
    3.0000    0.0000    0.0000 C   0  0  0  0  0  0  0  0  0  0  0  0
    1.5000    0.0000    0.0000 C   0  0  0  0  0  0  0  0  0  0  0  0
    0.7500   -1.2990    0.0000 C   0  0  0  0  0  0  0  0  0  0  0  0
   -0.7500   -1.2990    0.0000 C   0  0  0  0  0  0  0  0  0  0  0  0
   -1.5000   -2.5981    0.0000 O   0  0  0  0  0  0  0  0  0  0  0  0
   -1.5000    0.0000    0.0000 N   0  0  0  0  0  0  0  0  0  0  0  0
   -0.7500    1.2990    0.0000 C   0  0  0  0  0  0  0  0  0  0  0  0
   -1.5000    2.5981    0.0000 O   0  0  0  0  0  0  0  0  0  0  0  0
    0.7500    1.2990    0.0000 C   0  0  0  0  0  0  0  0  0  0  0  0
  1  2  1  0
  2  3  1  0
  3  4  1  0
  4  5  2  0
  4  6  1  0
  6  7  1  0
  7  8  2  0
  7  9  1  0
  9  2  1  0
M  END
> <From>
www.bindingDB.org

> <BindingDB Reactant_set_id>
51588699

> <Ligand InChI>
InChI=1S/C6H9NO2/c1-4-2-5(8)7-6(9)3-4/h4H,2-3H2,1H3,(H,7,8,9)

> <Ligand InChI Key>
OTQNZVVDFWNHDO-UHFFFAOYSA-N

> <BindingDB MonomerID>
50639654

> <BindingDB Ligand Name>
CHEMBL5562478

> <Target Name>
Protein cereblon

> <Target Source Organism According to Curator or DataSource>
Human

> <Ki (nM)>
 70700

> <IC50 (nM)>


> <Kd (nM)>


> <EC50 (nM)>


> <kon (M-1-s-1)>


> <koff (s-1)>


> <pH>


> <Temp C>


> <Curation/DataSource>
ChEMBL

> <Article DOI>


> <BindingDB Entry DOI>
10.7270/Q2PC3713

> <PMID>
38552426

> <PubChem AID>


> <Patent Number>


> <Authors>
Shevalev, R; Bischof, L; Sapegin, A; Bunev, A; Olga, G; Kantin, G; Kalinin, S; Hartmann, MD

> <Date of publication>
//0

> <Date in BindingDB>
10/11/2025

> <Institution>
Saint Petersburg State University

> <Link to Ligand in BindingDB>
http://www.bindingdb.org/bind/chemsearch/marvin/MolStructure.jsp?monomerid=50639654

> <Link to Ligand-Target Pair in BindingDB>
http://www.bindingdb.org/rwd/jsp/dbsearch/PrimarySearch_ki.jsp?energyterm=kJ/mole&tag=pol&polymerid=50007050&target=Protein+cereblon&column=ki&startPg=0&Increment=50&submit=Search

> <Link to Ligand-Target Pair in BindingDB>
http://www.bindingdb.org/rwd/jsp/dbsearch/PrimarySearch_ki.jsp?energyterm=kJ/mole&tag=r21&monomerid=50639654&enzyme=Protein+cereblon&column=ki&startPg=0&Increment=50&submit=Search

> <Ligand HET ID in PDB>


> <PDB ID(s) for Ligand-Target Complex>


> <PubChem CID of Ligand>
95858

> <PubChem SID of Ligand>
519660057

> <ChEBI ID of Ligand>


> <ChEMBL ID of Ligand>


> <DrugBank ID of Ligand>


> <IUPHAR_GRAC ID of Ligand>


> <KEGG ID of Ligand>


> <ZINC ID of Ligand>


> <Number of Protein Chains in Target (bigger than 1 implies a multichain complex)>
1

> <BindingDB Target Chain Sequence>
MAGEGDQQDAAHNMGNHLPLLPAESEEEDEMEVEDQDSKEAKKPNIINFDTSLPTSHTYLGADMEEFHGRTLHDDDSCQVIPVLPQVMMILIPGQTLPLQLFHPQEVSMVRNLIQKDRTFAVLAYSNVQEREAQFGTTAEIYAYREEQDFGIEIVKVKAIGRQRFKVLELRTQSDGIQQAKVQILPECVLPSTMSAVQLESLNKCQIFPSKPVSREDQCSYKWWQKYQKRKFHCANLTSWPRWLYSLYDAETLMDRIKKQLREWDENLKDDSLPSNPIDFSYRVAACLPIDDVLRIQLLKIGSAIQRLRCELDIMNKCTSLCCKQCQETEITTKNEIFSLSLCGPMAAYVNPHGYVHETLTVYKACNLNLIGRPSTEHSWFPGYAWTVAQCKICASHIGWKFTATKKDMSPQKFWGLTRSALLPTIPDTEDEISPDKVILCL

> <PDB ID(s) of Target Chain>
9DUR,8TNR,8TNQ,8TNP,9DWW,9DWV,9NGT,9NFR,9NFQ,8D81,8D80,8D7Z,8D7Y,8D7X,8D7W,8D7V,8D7U,8CVP,9Q2D,9Q03,9DQD,8UH6,9SAI,9SAF,9H59,9E2U,6BOY,6BNB,6BN9,6BN8,6BN7,9OUL,9Y7D,6XK9,6UML,5V3O,5HXB,9HNE,9D0X,9D0W,7U8F,9FJX,8OJH,8OIZ,7LPS,9SFM,9OTY,4TZ4,9DJX,9DJT,8U17,8U16,8U15,8TZX,8DEY,9CUO,4M91

> <UniProt (SwissProt) Recommended Name of Target Chain>
Protein cereblon

> <UniProt (SwissProt) Entry Name of Target Chain>
CRBN_HUMAN

> <UniProt (SwissProt) Primary ID of Target Chain>
Q96SW2

> <UniProt (SwissProt) Secondary ID(s) of Target Chain>
B2R6H4 C9IZA9 C9JAH6 Q6AI62 Q6NVZ0 Q9UHW4

> <UniProt (SwissProt) Alternative ID(s) of Target Chain>


> <UniProt (TrEMBL) Submitted Name of Target Chain>


> <UniProt (TrEMBL) Entry Name of Target Chain>


> <UniProt (TrEMBL) Primary ID of Target Chain>


> <UniProt (TrEMBL) Secondary ID(s) of Target Chain>


> <UniProt (TrEMBL) Alternative ID(s) of Target Chain>


$$$$

     RDKit          2D

  5  5  0  0  0  0  0  0  0  0999 V2000
    3.2667   -3.1667    0.0000 C   0  0  0  0  0  0  0  0  0  0  0  0
    4.0917   -3.1667    0.0000 N   0  0  0  0  0  0  0  0  0  0  0  0
    3.2750   -2.3417    0.0000 C   0  0  0  0  0  0  0  0  0  0  0  0
    2.6792   -3.7417    0.0000 O   0  0  0  0  0  0  0  0  0  0  0  0
    4.1000   -2.3417    0.0000 C   0  0  0  0  0  0  0  0  0  0  0  0
  2  1  1  0
  3  1  1  0
  4  1  2  0
  5  3  1  0
  5  2  1  0
M  END
> <From>
www.bindingDB.org

> <BindingDB Reactant_set_id>
51545425

> <Ligand InChI>
InChI=1S/C3H5NO/c5-3-1-2-4-3/h1-2H2,(H,4,5)

> <Ligand InChI Key>
MNFORVFSTILPAW-UHFFFAOYSA-N

> <BindingDB MonomerID>
50621580

> <BindingDB Ligand Name>
CHEBI:327119::CHEMBL344042::beta-propiolactam

> <Target Name>
Protein cereblon

> <Target Source Organism According to Curator or DataSource>
Homo sapiens

> <Ki (nM)>
 77000

> <IC50 (nM)>


> <Kd (nM)>


> <EC50 (nM)>


> <kon (M-1-s-1)>


> <koff (s-1)>


> <pH>


> <Temp C>


> <Curation/DataSource>
ChEMBL

> <Article DOI>
10.1021/acs.jmedchem.2c01882

> <BindingDB Entry DOI>
10.7270/Q2SJ1R0R

> <PMID>
36821822

> <PubChem AID>


> <Patent Number>


> <Authors>
n/a

> <Date of publication>
3/9/2023

> <Date in BindingDB>
12/16/2024

> <Institution>
n/a

> <Link to Ligand in BindingDB>
http://www.bindingdb.org/bind/chemsearch/marvin/MolStructure.jsp?monomerid=50621580

> <Link to Ligand-Target Pair in BindingDB>
http://www.bindingdb.org/jsp/dbsearch/PrimarySearch_ki.jsp?energyterm=kJ/mole&tag=pol&polymerid=50007050&target=Protein+cereblon&column=ki&startPg=0&Increment=50&submit=Search

> <Link to Ligand-Target Pair in BindingDB>
http://www.bindingdb.org/jsp/dbsearch/PrimarySearch_ki.jsp?energyterm=kJ/mole&tag=r21&monomerid=50621580&enzyme=Protein+cereblon&column=ki&startPg=0&Increment=50&submit=Search

> <Ligand HET ID in PDB>


> <PDB ID(s) for Ligand-Target Complex>


> <PubChem CID>


> <PubChem SID>


> <ChEBI ID of Ligand>


> <ChEMBL ID of Ligand>


> <DrugBank ID of Ligand>


> <IUPHAR_GRAC ID of Ligand>


> <KEGG ID of Ligand>


> <ZINC ID of Ligand>


> <Number of Protein Chains in Target (bigger than 1 implies a multichain complex)>
1

> <BindingDB Target Chain Sequence>
MAGEGDQQDAAHNMGNHLPLLPAESEEEDEMEVEDQDSKEAKKPNIINFDTSLPTSHTYLGADMEEFHGRTLHDDDSCQVIPVLPQVMMILIPGQTLPLQLFHPQEVSMVRNLIQKDRTFAVLAYSNVQEREAQFGTTAEIYAYREEQDFGIEIVKVKAIGRQRFKVLELRTQSDGIQQAKVQILPECVLPSTMSAVQLESLNKCQIFPSKPVSREDQCSYKWWQKYQKRKFHCANLTSWPRWLYSLYDAETLMDRIKKQLREWDENLKDDSLPSNPIDFSYRVAACLPIDDVLRIQLLKIGSAIQRLRCELDIMNKCTSLCCKQCQETEITTKNEIFSLSLCGPMAAYVNPHGYVHETLTVYKACNLNLIGRPSTEHSWFPGYAWTVAQCKICASHIGWKFTATKKDMSPQKFWGLTRSALLPTIPDTEDEISPDKVILCL

> <PDB ID(s) of Target Chain>
8TNR,8TNQ,8TNP,8D81,8D80,8D7Z,8D7Y,8D7X,8D7W,8D7V,8D7U,8CVP,9DQD,8UH6,6BOY,6BNB,6BN9,6BN8,6BN7,6XK9,6UML,5V3O,5HXB,7U8F,8OJH,8OIZ,7LPS,4TZ4,9DJX,9DJT,8U17,8U16,8U15,8TZX,8DEY,9CUO,4M91

> <UniProt (SwissProt) Recommended Name of Target Chain>
Protein cereblon

> <UniProt (SwissProt) Entry Name of Target Chain>
CRBN_HUMAN

> <UniProt (SwissProt) Primary ID of Target Chain>
Q96SW2

> <UniProt (SwissProt) Secondary ID(s) of Target Chain>
B2R6H4 C9IZA9 C9JAH6 Q6AI62 Q6NVZ0 Q9UHW4

> <UniProt (SwissProt) Alternative ID(s) of Target Chain>


> <UniProt (TrEMBL) Submitted Name of Target Chain>


> <UniProt (TrEMBL) Entry Name of Target Chain>


> <UniProt (TrEMBL) Primary ID of Target Chain>


> <UniProt (TrEMBL) Secondary ID(s) of Target Chain>


> <UniProt (TrEMBL) Alternative ID(s) of Target Chain>


$$$$

     RDKit          2D

 16 17  0  0  0  0  0  0  0  0999 V2000
    2.7760   -1.5000    0.0000 C   0  0  0  0  0  0  0  0  0  0  0  0
    2.7760    0.0000    0.0000 C   0  0  0  0  0  0  0  0  0  0  0  0
    2.7760    1.5000    0.0000 C   0  0  0  0  0  0  0  0  0  0  0  0
    4.2760    0.0000    0.0000 C   0  0  0  0  0  0  0  0  0  0  0  0
    1.2760    0.0000    0.0000 C   0  0  0  0  0  0  0  0  0  0  0  0
    0.3943    1.2135    0.0000 N   0  0  0  0  0  0  0  0  0  0  0  0
   -1.0323    0.7500    0.0000 O   0  0  0  0  0  0  0  0  0  0  0  0
   -1.0323   -0.7500    0.0000 C   0  0  0  0  0  0  0  0  0  0  0  0
   -2.4026   -0.1399    0.0000 C   0  0  0  0  0  0  0  0  0  0  0  0
   -3.6161   -1.0216    0.0000 C   0  0  0  0  0  0  0  0  0  0  0  0
   -3.4593   -2.5134    0.0000 C   0  0  0  0  0  0  0  0  0  0  0  0
   -4.6729   -3.3950    0.0000 O   0  0  0  0  0  0  0  0  0  0  0  0
   -2.0890   -3.1235    0.0000 N   0  0  0  0  0  0  0  0  0  0  0  0
   -0.8755   -2.2418    0.0000 C   0  0  0  0  0  0  0  0  0  0  0  0
    0.4948   -2.8519    0.0000 O   0  0  0  0  0  0  0  0  0  0  0  0
    0.3943   -1.2135    0.0000 C   0  0  0  0  0  0  0  0  0  0  0  0
  1  2  1  0
  2  3  1  0
  2  4  1  0
  2  5  1  0
  5  6  2  0
  6  7  1  0
  7  8  1  0
  8  9  1  0
  9 10  1  0
 10 11  1  0
 11 12  2  0
 11 13  1  0
 13 14  1  0
 14 15  2  0
  8 16  1  0
 16  5  1  0
 14  8  1  0
M  END
> <From>
www.bindingDB.org

> <BindingDB Reactant_set_id>
51588695

> <Ligand InChI>
InChI=1S/C11H16N2O3/c1-10(2,3)7-6-11(16-13-7)5-4-8(14)12-9(11)15/h4-6H2,1-3H3,(H,12,14,15)

> <Ligand InChI Key>
UKOIPMCPLZOHPG-UHFFFAOYSA-N

> <BindingDB MonomerID>
50639652

> <BindingDB Ligand Name>
CHEMBL5560360

> <Target Name>
Protein cereblon

> <Target Source Organism According to Curator or DataSource>
Human

> <Ki (nM)>
 77400

> <IC50 (nM)>


> <Kd (nM)>


> <EC50 (nM)>


> <kon (M-1-s-1)>


> <koff (s-1)>


> <pH>


> <Temp C>


> <Curation/DataSource>
ChEMBL

> <Article DOI>


> <BindingDB Entry DOI>
10.7270/Q2PC3713

> <PMID>
38552426

> <PubChem AID>


> <Patent Number>


> <Authors>
Shevalev, R; Bischof, L; Sapegin, A; Bunev, A; Olga, G; Kantin, G; Kalinin, S; Hartmann, MD

> <Date of publication>
//0

> <Date in BindingDB>
10/11/2025

> <Institution>
Saint Petersburg State University

> <Link to Ligand in BindingDB>
http://www.bindingdb.org/bind/chemsearch/marvin/MolStructure.jsp?monomerid=50639652

> <Link to Ligand-Target Pair in BindingDB>
http://www.bindingdb.org/rwd/jsp/dbsearch/PrimarySearch_ki.jsp?energyterm=kJ/mole&tag=pol&polymerid=50007050&target=Protein+cereblon&column=ki&startPg=0&Increment=50&submit=Search

> <Link to Ligand-Target Pair in BindingDB>
http://www.bindingdb.org/rwd/jsp/dbsearch/PrimarySearch_ki.jsp?energyterm=kJ/mole&tag=r21&monomerid=50639652&enzyme=Protein+cereblon&column=ki&startPg=0&Increment=50&submit=Search

> <Ligand HET ID in PDB>


> <PDB ID(s) for Ligand-Target Complex>


> <PubChem CID of Ligand>
177376712

> <PubChem SID of Ligand>
519660055

> <ChEBI ID of Ligand>


> <ChEMBL ID of Ligand>


> <DrugBank ID of Ligand>


> <IUPHAR_GRAC ID of Ligand>


> <KEGG ID of Ligand>


> <ZINC ID of Ligand>


> <Number of Protein Chains in Target (bigger than 1 implies a multichain complex)>
1

> <BindingDB Target Chain Sequence>
MAGEGDQQDAAHNMGNHLPLLPAESEEEDEMEVEDQDSKEAKKPNIINFDTSLPTSHTYLGADMEEFHGRTLHDDDSCQVIPVLPQVMMILIPGQTLPLQLFHPQEVSMVRNLIQKDRTFAVLAYSNVQEREAQFGTTAEIYAYREEQDFGIEIVKVKAIGRQRFKVLELRTQSDGIQQAKVQILPECVLPSTMSAVQLESLNKCQIFPSKPVSREDQCSYKWWQKYQKRKFHCANLTSWPRWLYSLYDAETLMDRIKKQLREWDENLKDDSLPSNPIDFSYRVAACLPIDDVLRIQLLKIGSAIQRLRCELDIMNKCTSLCCKQCQETEITTKNEIFSLSLCGPMAAYVNPHGYVHETLTVYKACNLNLIGRPSTEHSWFPGYAWTVAQCKICASHIGWKFTATKKDMSPQKFWGLTRSALLPTIPDTEDEISPDKVILCL

> <PDB ID(s) of Target Chain>
9DUR,8TNR,8TNQ,8TNP,9DWW,9DWV,9NGT,9NFR,9NFQ,8D81,8D80,8D7Z,8D7Y,8D7X,8D7W,8D7V,8D7U,8CVP,9Q2D,9Q03,9DQD,8UH6,9SAI,9SAF,9H59,9E2U,6BOY,6BNB,6BN9,6BN8,6BN7,9OUL,9Y7D,6XK9,6UML,5V3O,5HXB,9HNE,9D0X,9D0W,7U8F,9FJX,8OJH,8OIZ,7LPS,9SFM,9OTY,4TZ4,9DJX,9DJT,8U17,8U16,8U15,8TZX,8DEY,9CUO,4M91

> <UniProt (SwissProt) Recommended Name of Target Chain>
Protein cereblon

> <UniProt (SwissProt) Entry Name of Target Chain>
CRBN_HUMAN

> <UniProt (SwissProt) Primary ID of Target Chain>
Q96SW2

> <UniProt (SwissProt) Secondary ID(s) of Target Chain>
B2R6H4 C9IZA9 C9JAH6 Q6AI62 Q6NVZ0 Q9UHW4

> <UniProt (SwissProt) Alternative ID(s) of Target Chain>


> <UniProt (TrEMBL) Submitted Name of Target Chain>


> <UniProt (TrEMBL) Entry Name of Target Chain>


> <UniProt (TrEMBL) Primary ID of Target Chain>


> <UniProt (TrEMBL) Secondary ID(s) of Target Chain>


> <UniProt (TrEMBL) Alternative ID(s) of Target Chain>


$$$$

     RDKit          2D

 17 18  0  0  0  0  0  0  0  0999 V2000
    5.0260   -1.2990    0.0000 C   0  0  0  0  0  0  0  0  0  0  0  0
    3.5260   -1.2990    0.0000 C   0  0  0  0  0  0  0  0  0  0  0  0
    2.7760    0.0000    0.0000 C   0  0  0  0  0  0  0  0  0  0  0  0
    3.5260    1.2990    0.0000 C   0  0  0  0  0  0  0  0  0  0  0  0
    5.0260    1.2990    0.0000 C   0  0  0  0  0  0  0  0  0  0  0  0
    1.2760    0.0000    0.0000 C   0  0  0  0  0  0  0  0  0  0  0  0
    0.3943    1.2135    0.0000 N   0  0  0  0  0  0  0  0  0  0  0  0
   -1.0323    0.7500    0.0000 O   0  0  0  0  0  0  0  0  0  0  0  0
   -1.0323   -0.7500    0.0000 C   0  0  0  0  0  0  0  0  0  0  0  0
   -2.4026   -0.1399    0.0000 C   0  0  0  0  0  0  0  0  0  0  0  0
   -3.6161   -1.0216    0.0000 C   0  0  0  0  0  0  0  0  0  0  0  0
   -3.4593   -2.5134    0.0000 C   0  0  0  0  0  0  0  0  0  0  0  0
   -4.6729   -3.3950    0.0000 O   0  0  0  0  0  0  0  0  0  0  0  0
   -2.0890   -3.1235    0.0000 N   0  0  0  0  0  0  0  0  0  0  0  0
   -0.8755   -2.2418    0.0000 C   0  0  0  0  0  0  0  0  0  0  0  0
    0.4948   -2.8519    0.0000 O   0  0  0  0  0  0  0  0  0  0  0  0
    0.3943   -1.2135    0.0000 C   0  0  0  0  0  0  0  0  0  0  0  0
  1  2  1  0
  2  3  1  0
  3  4  1  0
  4  5  1  0
  3  6  1  0
  6  7  2  0
  7  8  1  0
  8  9  1  0
  9 10  1  0
 10 11  1  0
 11 12  1  0
 12 13  2  0
 12 14  1  0
 14 15  1  0
 15 16  2  0
  9 17  1  0
 17  6  1  0
 15  9  1  0
M  END
> <From>
www.bindingDB.org

> <BindingDB Reactant_set_id>
51588696

> <Ligand InChI>
InChI=1S/C12H18N2O3/c1-3-8(4-2)9-7-12(17-14-9)6-5-10(15)13-11(12)16/h8H,3-7H2,1-2H3,(H,13,15,16)

> <Ligand InChI Key>
WWGQTVPLOSWYGT-UHFFFAOYSA-N

> <BindingDB MonomerID>
50639653

> <BindingDB Ligand Name>
CHEMBL5565416

> <Target Name>
Protein cereblon

> <Target Source Organism According to Curator or DataSource>
Human

> <Ki (nM)>
 80900

> <IC50 (nM)>


> <Kd (nM)>


> <EC50 (nM)>


> <kon (M-1-s-1)>


> <koff (s-1)>


> <pH>


> <Temp C>


> <Curation/DataSource>
ChEMBL

> <Article DOI>


> <BindingDB Entry DOI>
10.7270/Q2PC3713

> <PMID>
38552426

> <PubChem AID>


> <Patent Number>


> <Authors>
Shevalev, R; Bischof, L; Sapegin, A; Bunev, A; Olga, G; Kantin, G; Kalinin, S; Hartmann, MD

> <Date of publication>
//0

> <Date in BindingDB>
10/11/2025

> <Institution>
Saint Petersburg State University

> <Link to Ligand in BindingDB>
http://www.bindingdb.org/bind/chemsearch/marvin/MolStructure.jsp?monomerid=50639653

> <Link to Ligand-Target Pair in BindingDB>
http://www.bindingdb.org/rwd/jsp/dbsearch/PrimarySearch_ki.jsp?energyterm=kJ/mole&tag=pol&polymerid=50007050&target=Protein+cereblon&column=ki&startPg=0&Increment=50&submit=Search

> <Link to Ligand-Target Pair in BindingDB>
http://www.bindingdb.org/rwd/jsp/dbsearch/PrimarySearch_ki.jsp?energyterm=kJ/mole&tag=r21&monomerid=50639653&enzyme=Protein+cereblon&column=ki&startPg=0&Increment=50&submit=Search

> <Ligand HET ID in PDB>


> <PDB ID(s) for Ligand-Target Complex>


> <PubChem CID of Ligand>
177376713

> <PubChem SID of Ligand>
519660056

> <ChEBI ID of Ligand>


> <ChEMBL ID of Ligand>


> <DrugBank ID of Ligand>


> <IUPHAR_GRAC ID of Ligand>


> <KEGG ID of Ligand>


> <ZINC ID of Ligand>


> <Number of Protein Chains in Target (bigger than 1 implies a multichain complex)>
1

> <BindingDB Target Chain Sequence>
MAGEGDQQDAAHNMGNHLPLLPAESEEEDEMEVEDQDSKEAKKPNIINFDTSLPTSHTYLGADMEEFHGRTLHDDDSCQVIPVLPQVMMILIPGQTLPLQLFHPQEVSMVRNLIQKDRTFAVLAYSNVQEREAQFGTTAEIYAYREEQDFGIEIVKVKAIGRQRFKVLELRTQSDGIQQAKVQILPECVLPSTMSAVQLESLNKCQIFPSKPVSREDQCSYKWWQKYQKRKFHCANLTSWPRWLYSLYDAETLMDRIKKQLREWDENLKDDSLPSNPIDFSYRVAACLPIDDVLRIQLLKIGSAIQRLRCELDIMNKCTSLCCKQCQETEITTKNEIFSLSLCGPMAAYVNPHGYVHETLTVYKACNLNLIGRPSTEHSWFPGYAWTVAQCKICASHIGWKFTATKKDMSPQKFWGLTRSALLPTIPDTEDEISPDKVILCL

> <PDB ID(s) of Target Chain>
9DUR,8TNR,8TNQ,8TNP,9DWW,9DWV,9NGT,9NFR,9NFQ,8D81,8D80,8D7Z,8D7Y,8D7X,8D7W,8D7V,8D7U,8CVP,9Q2D,9Q03,9DQD,8UH6,9SAI,9SAF,9H59,9E2U,6BOY,6BNB,6BN9,6BN8,6BN7,9OUL,9Y7D,6XK9,6UML,5V3O,5HXB,9HNE,9D0X,9D0W,7U8F,9FJX,8OJH,8OIZ,7LPS,9SFM,9OTY,4TZ4,9DJX,9DJT,8U17,8U16,8U15,8TZX,8DEY,9CUO,4M91

> <UniProt (SwissProt) Recommended Name of Target Chain>
Protein cereblon

> <UniProt (SwissProt) Entry Name of Target Chain>
CRBN_HUMAN

> <UniProt (SwissProt) Primary ID of Target Chain>
Q96SW2

> <UniProt (SwissProt) Secondary ID(s) of Target Chain>
B2R6H4 C9IZA9 C9JAH6 Q6AI62 Q6NVZ0 Q9UHW4

> <UniProt (SwissProt) Alternative ID(s) of Target Chain>


> <UniProt (TrEMBL) Submitted Name of Target Chain>


> <UniProt (TrEMBL) Entry Name of Target Chain>


> <UniProt (TrEMBL) Primary ID of Target Chain>


> <UniProt (TrEMBL) Secondary ID(s) of Target Chain>


> <UniProt (TrEMBL) Alternative ID(s) of Target Chain>


$$$$

     RDKit          2D

  8  8  0  0  0  0  0  0  0  0999 V2000
    0.5421    0.3086    0.0000 N   0  0  0  0  0  0  0  0  0  0  0  0
    0.5421   -0.5164    0.0000 C   0  0  0  0  0  0  0  0  0  0  0  0
    1.2566   -0.9289    0.0000 O   0  0  0  0  0  0  0  0  0  0  0  0
   -0.1723   -0.9289    0.0000 N   0  0  0  0  0  0  0  0  0  0  0  0
   -0.8868   -0.5164    0.0000 C   0  0  0  0  0  0  0  0  0  0  0  0
   -0.8868    0.3086    0.0000 C   0  0  0  0  0  0  0  0  0  0  0  0
   -0.1723    0.7211    0.0000 C   0  0  0  0  0  0  0  0  0  0  0  0
   -0.1723    1.5461    0.0000 O   0  0  0  0  0  0  0  0  0  0  0  0
  2  1  1  0
  7  1  1  0
  2  3  2  0
  2  4  1  0
  5  4  1  0
  6  5  1  0
  7  6  1  0
  7  8  2  0
M  END
> <From>
www.bindingDB.org

> <BindingDB Reactant_set_id>
51545424

> <Ligand InChI>
InChI=1S/C4H6N2O2/c7-3-1-2-5-4(8)6-3/h1-2H2,(H2,5,6,7,8)

> <Ligand InChI Key>
OIVLITBTBDPEFK-UHFFFAOYSA-N

> <BindingDB MonomerID>
50621579

> <BindingDB Ligand Name>
CHEBI:15901::CHEMBL1232394

> <Target Name>
Protein cereblon

> <Target Source Organism According to Curator or DataSource>
Homo sapiens

> <Ki (nM)>
 88000

> <IC50 (nM)>


> <Kd (nM)>


> <EC50 (nM)>


> <kon (M-1-s-1)>


> <koff (s-1)>


> <pH>


> <Temp C>


> <Curation/DataSource>
ChEMBL

> <Article DOI>
10.1021/acs.jmedchem.2c01882

> <BindingDB Entry DOI>
10.7270/Q2SJ1R0R

> <PMID>
36821822

> <PubChem AID>


> <Patent Number>


> <Authors>
n/a

> <Date of publication>
3/9/2023

> <Date in BindingDB>
12/16/2024

> <Institution>
n/a

> <Link to Ligand in BindingDB>
http://www.bindingdb.org/bind/chemsearch/marvin/MolStructure.jsp?monomerid=50621579

> <Link to Ligand-Target Pair in BindingDB>
http://www.bindingdb.org/jsp/dbsearch/PrimarySearch_ki.jsp?energyterm=kJ/mole&tag=pol&polymerid=50007050&target=Protein+cereblon&column=ki&startPg=0&Increment=50&submit=Search

> <Link to Ligand-Target Pair in BindingDB>
http://www.bindingdb.org/jsp/dbsearch/PrimarySearch_ki.jsp?energyterm=kJ/mole&tag=r21&monomerid=50621579&enzyme=Protein+cereblon&column=ki&startPg=0&Increment=50&submit=Search

> <Ligand HET ID in PDB>
DUC    

> <PDB ID(s) for Ligand-Target Complex>
4XK4,2FVK,1UAQ

> <PubChem CID>


> <PubChem SID>


> <ChEBI ID of Ligand>


> <ChEMBL ID of Ligand>


> <DrugBank ID of Ligand>


> <IUPHAR_GRAC ID of Ligand>


> <KEGG ID of Ligand>


> <ZINC ID of Ligand>


> <Number of Protein Chains in Target (bigger than 1 implies a multichain complex)>
1

> <BindingDB Target Chain Sequence>
MAGEGDQQDAAHNMGNHLPLLPAESEEEDEMEVEDQDSKEAKKPNIINFDTSLPTSHTYLGADMEEFHGRTLHDDDSCQVIPVLPQVMMILIPGQTLPLQLFHPQEVSMVRNLIQKDRTFAVLAYSNVQEREAQFGTTAEIYAYREEQDFGIEIVKVKAIGRQRFKVLELRTQSDGIQQAKVQILPECVLPSTMSAVQLESLNKCQIFPSKPVSREDQCSYKWWQKYQKRKFHCANLTSWPRWLYSLYDAETLMDRIKKQLREWDENLKDDSLPSNPIDFSYRVAACLPIDDVLRIQLLKIGSAIQRLRCELDIMNKCTSLCCKQCQETEITTKNEIFSLSLCGPMAAYVNPHGYVHETLTVYKACNLNLIGRPSTEHSWFPGYAWTVAQCKICASHIGWKFTATKKDMSPQKFWGLTRSALLPTIPDTEDEISPDKVILCL

> <PDB ID(s) of Target Chain>
8TNR,8TNQ,8TNP,8D81,8D80,8D7Z,8D7Y,8D7X,8D7W,8D7V,8D7U,8CVP,9DQD,8UH6,6BOY,6BNB,6BN9,6BN8,6BN7,6XK9,6UML,5V3O,5HXB,7U8F,8OJH,8OIZ,7LPS,4TZ4,9DJX,9DJT,8U17,8U16,8U15,8TZX,8DEY,9CUO,4M91

> <UniProt (SwissProt) Recommended Name of Target Chain>
Protein cereblon

> <UniProt (SwissProt) Entry Name of Target Chain>
CRBN_HUMAN

> <UniProt (SwissProt) Primary ID of Target Chain>
Q96SW2

> <UniProt (SwissProt) Secondary ID(s) of Target Chain>
B2R6H4 C9IZA9 C9JAH6 Q6AI62 Q6NVZ0 Q9UHW4

> <UniProt (SwissProt) Alternative ID(s) of Target Chain>


> <UniProt (TrEMBL) Submitted Name of Target Chain>


> <UniProt (TrEMBL) Entry Name of Target Chain>


> <UniProt (TrEMBL) Primary ID of Target Chain>


> <UniProt (TrEMBL) Secondary ID(s) of Target Chain>


> <UniProt (TrEMBL) Alternative ID(s) of Target Chain>


$$$$
rolipram
  Mrv0541 11181423272D          

 20 22  0  0  0  0            999 V2000
   10.7166  -11.3182    0.0000 C   0  0  0  0  0  0  0  0  0  0  0  0
   13.6491   -9.8404    0.0000 N   0  0  0  0  0  0  0  0  0  0  0  0
   14.1112  -10.5099    0.0000 C   0  0  0  0  0  0  0  0  0  0  0  0
   12.1251  -11.3412    0.0000 C   0  0  0  0  0  0  0  0  0  0  0  0
   11.4325  -10.9254    0.0000 C   0  0  0  0  0  0  0  0  0  0  0  0
   12.8411  -10.9254    0.0000 C   0  0  0  0  0  0  0  0  0  0  0  0
   10.0009  -10.9254    0.0000 O   0  0  0  0  0  0  0  0  0  0  0  0
   13.6491  -11.1796    0.0000 C   0  0  0  0  0  0  0  0  0  0  0  0
   10.7166  -12.1493    0.0000 C   0  0  0  0  0  0  0  0  0  0  0  0
   12.8411  -10.0943    0.0000 C   0  0  0  0  0  0  0  0  0  0  0  0
   14.9423  -10.5099    0.0000 O   0  0  0  0  0  0  0  0  0  0  0  0
   12.1251  -12.1493    0.0000 C   0  0  0  0  0  0  0  0  0  0  0  0
   11.4325  -12.5649    0.0000 C   0  0  0  0  0  0  0  0  0  0  0  0
    9.2849  -11.3412    0.0000 C   0  0  0  0  0  0  0  0  0  0  0  0
   10.0009  -12.5649    0.0000 O   0  0  0  0  0  0  0  0  0  0  0  0
   10.0009  -13.3962    0.0000 C   0  0  0  0  0  0  0  0  0  0  0  0
    9.2849  -12.1493    0.0000 C   0  0  0  0  0  0  0  0  0  0  0  0
    8.5000  -11.0870    0.0000 C   0  0  0  0  0  0  0  0  0  0  0  0
    8.0149  -11.7568    0.0000 C   0  0  0  0  0  0  0  0  0  0  0  0
    8.5000  -12.4032    0.0000 C   0  0  0  0  0  0  0  0  0  0  0  0
  5  1  2  0  0  0  0
  7  1  1  0  0  0  0
  9  1  1  0  0  0  0
 10  2  1  0  0  0  0
  3  2  1  0  0  0  0
  8  3  1  0  0  0  0
 11  3  2  0  0  0  0
  5  4  1  0  0  0  0
  6  4  1  0  0  0  0
 12  4  2  0  0  0  0
  8  6  1  0  0  0  0
 10  6  1  0  0  0  0
 14  7  1  0  0  0  0
 13  9  2  0  0  0  0
 15  9  1  0  0  0  0
 13 12  1  0  0  0  0
 17 14  1  0  0  0  0
 18 14  1  0  0  0  0
 16 15  1  0  0  0  0
 20 17  1  0  0  0  0
 19 18  1  0  0  0  0
 20 19  1  0  0  0  0
M  END
> <From>
www.bindingDB.org

> <BindingDB Reactant_set_id>
51359716

> <Ligand InChI>
InChI=1S/C16H21NO3/c1-19-14-7-6-11(12-9-16(18)17-10-12)8-15(14)20-13-4-2-3-5-13/h6-8,12-13H,2-5,9-10H2,1H3,(H,17,18)

> <Ligand InChI Key>
HJORMJIFDVBMOB-UHFFFAOYSA-N

> <BindingDB MonomerID>
14361

> <BindingDB Ligand Name>
(R,S)-Rolipram::4-(3-cyclopentyloxy-4-methoxy-phenyl)pyrrolidin-2-one::4-[3-(cyclopentyloxy)-4-methoxyphenyl]pyrrolidin-2-one::Adeo::CHEMBL63::Rolipram

> <Target Name>
Protein cereblon

> <Target Source Organism According to Curator or DataSource>
Human

> <Ki (nM)>
 102000

> <IC50 (nM)>


> <Kd (nM)>


> <EC50 (nM)>


> <kon (M-1-s-1)>


> <koff (s-1)>


> <pH>


> <Temp C>


> <Curation/DataSource>
ChEMBL

> <Article DOI>
10.1021/acsmedchemlett.0c00440

> <BindingDB Entry DOI>
10.7270/Q2WM1J1B

> <PMID>
33488967

> <PubChem AID>


> <Patent Number>


> <Authors>
Maiwald, S; Heim, C; Hernandez Alvarez, B; Hartmann, MD

> <Date of publication>
1/14/2021

> <Date in BindingDB>
3/23/2022

> <Institution>
Max Planck Institute for Developmental Biology

> <Link to Ligand in BindingDB>
http://www.bindingdb.org/bind/chemsearch/marvin/MolStructure.jsp?monomerid=14361

> <Link to Ligand-Target Pair in BindingDB>
http://www.bindingdb.org/jsp/dbsearch/PrimarySearch_ki.jsp?energyterm=kJ/mole&tag=pol&polymerid=50007050&target=Protein+cereblon&column=ki&startPg=0&Increment=50&submit=Search

> <Link to Ligand-Target Pair in BindingDB>
http://www.bindingdb.org/jsp/dbsearch/PrimarySearch_ki.jsp?energyterm=kJ/mole&tag=r21&monomerid=14361&enzyme=Protein+cereblon&column=ki&startPg=0&Increment=50&submit=Search

> <Ligand HET ID in PDB>
4RR

> <PDB ID(s) for Ligand-Target Complex>
1XMY,1OYN,1Q9M,5OH8,1RO6,1TBB,1XN0,4X0F,3G4K

> <PubChem CID of Ligand>
5092

> <PubChem SID of Ligand>
46514702

> <ChEBI ID of Ligand>
104872

> <ChEMBL ID of Ligand>
CHEMBL63

> <DrugBank ID of Ligand>


> <IUPHAR_GRAC ID of Ligand>
5260

> <KEGG ID of Ligand>


> <ZINC ID of Ligand>
ZINC02000919

> <Number of Protein Chains in Target (bigger than 1 implies a multichain complex)>
1

> <BindingDB Target Chain Sequence>
MAGEGDQQDAAHNMGNHLPLLPAESEEEDEMEVEDQDSKEAKKPNIINFDTSLPTSHTYLGADMEEFHGRTLHDDDSCQVIPVLPQVMMILIPGQTLPLQLFHPQEVSMVRNLIQKDRTFAVLAYSNVQEREAQFGTTAEIYAYREEQDFGIEIVKVKAIGRQRFKVLELRTQSDGIQQAKVQILPECVLPSTMSAVQLESLNKCQIFPSKPVSREDQCSYKWWQKYQKRKFHCANLTSWPRWLYSLYDAETLMDRIKKQLREWDENLKDDSLPSNPIDFSYRVAACLPIDDVLRIQLLKIGSAIQRLRCELDIMNKCTSLCCKQCQETEITTKNEIFSLSLCGPMAAYVNPHGYVHETLTVYKACNLNLIGRPSTEHSWFPGYAWTVAQCKICASHIGWKFTATKKDMSPQKFWGLTRSALLPTIPDTEDEISPDKVILCL

> <PDB ID(s) of Target Chain>
4TZ4,5HXB,5V3O,6UML,6XK9,7LPS,7U8F,8CVP,8D7U,8D7V,8D7W,8D7X,8D7Y,8D7Z,8D80,8D81,8DEY,8OIZ,8OJH

> <UniProt (SwissProt) Recommended Name of Target Chain>
Protein cereblon

> <UniProt (SwissProt) Entry Name of Target Chain>
CRBN_HUMAN

> <UniProt (SwissProt) Primary ID of Target Chain>
Q96SW2

> <UniProt (SwissProt) Secondary ID(s) of Target Chain>
B2R6H4 C9IZA9 C9JAH6 Q6AI62 Q6NVZ0 Q9UHW4

> <UniProt (SwissProt) Alternative ID(s) of Target Chain>


> <UniProt (TrEMBL) Submitted Name of Target Chain>


> <UniProt (TrEMBL) Entry Name of Target Chain>


> <UniProt (TrEMBL) Primary ID of Target Chain>


> <UniProt (TrEMBL) Secondary ID(s) of Target Chain>


> <UniProt (TrEMBL) Alternative ID(s) of Target Chain>


$$$$

     RDKit          2D

 10 10  0  0  0  0  0  0  0  0999 V2000
    2.6491    0.9642    0.0000 C   0  0  0  0  0  0  0  0  0  0  0  0
    1.5000    0.0000    0.0000 C   0  0  0  0  0  0  0  0  0  0  0  0
    2.6491   -0.9642    0.0000 C   0  0  0  0  0  0  0  0  0  0  0  0
    0.7500   -1.2990    0.0000 C   0  0  0  0  0  0  0  0  0  0  0  0
   -0.7500   -1.2990    0.0000 C   0  0  0  0  0  0  0  0  0  0  0  0
   -1.5000   -2.5981    0.0000 O   0  0  0  0  0  0  0  0  0  0  0  0
   -1.5000    0.0000    0.0000 N   0  0  0  0  0  0  0  0  0  0  0  0
   -0.7500    1.2990    0.0000 C   0  0  0  0  0  0  0  0  0  0  0  0
   -1.5000    2.5981    0.0000 O   0  0  0  0  0  0  0  0  0  0  0  0
    0.7500    1.2990    0.0000 C   0  0  0  0  0  0  0  0  0  0  0  0
  1  2  1  0
  2  3  1  0
  2  4  1  0
  4  5  1  0
  5  6  2  0
  5  7  1  0
  7  8  1  0
  8  9  2  0
  8 10  1  0
 10  2  1  0
M  END
> <From>
www.bindingDB.org

> <BindingDB Reactant_set_id>
51588700

> <Ligand InChI>
InChI=1S/C7H11NO2/c1-7(2)3-5(9)8-6(10)4-7/h3-4H2,1-2H3,(H,8,9,10)

> <Ligand InChI Key>
YUJCWMGBRDBPDL-UHFFFAOYSA-N

> <BindingDB MonomerID>
50639655

> <BindingDB Ligand Name>
CHEMBL5561250

> <Target Name>
Protein cereblon

> <Target Source Organism According to Curator or DataSource>
Human

> <Ki (nM)>
 102900

> <IC50 (nM)>


> <Kd (nM)>


> <EC50 (nM)>


> <kon (M-1-s-1)>


> <koff (s-1)>


> <pH>


> <Temp C>


> <Curation/DataSource>
ChEMBL

> <Article DOI>


> <BindingDB Entry DOI>
10.7270/Q2PC3713

> <PMID>
38552426

> <PubChem AID>


> <Patent Number>


> <Authors>
Shevalev, R; Bischof, L; Sapegin, A; Bunev, A; Olga, G; Kantin, G; Kalinin, S; Hartmann, MD

> <Date of publication>
//0

> <Date in BindingDB>
10/11/2025

> <Institution>
Saint Petersburg State University

> <Link to Ligand in BindingDB>
http://www.bindingdb.org/bind/chemsearch/marvin/MolStructure.jsp?monomerid=50639655

> <Link to Ligand-Target Pair in BindingDB>
http://www.bindingdb.org/rwd/jsp/dbsearch/PrimarySearch_ki.jsp?energyterm=kJ/mole&tag=pol&polymerid=50007050&target=Protein+cereblon&column=ki&startPg=0&Increment=50&submit=Search

> <Link to Ligand-Target Pair in BindingDB>
http://www.bindingdb.org/rwd/jsp/dbsearch/PrimarySearch_ki.jsp?energyterm=kJ/mole&tag=r21&monomerid=50639655&enzyme=Protein+cereblon&column=ki&startPg=0&Increment=50&submit=Search

> <Ligand HET ID in PDB>


> <PDB ID(s) for Ligand-Target Complex>


> <PubChem CID of Ligand>
14292

> <PubChem SID of Ligand>
519660058

> <ChEBI ID of Ligand>


> <ChEMBL ID of Ligand>


> <DrugBank ID of Ligand>


> <IUPHAR_GRAC ID of Ligand>


> <KEGG ID of Ligand>


> <ZINC ID of Ligand>


> <Number of Protein Chains in Target (bigger than 1 implies a multichain complex)>
1

> <BindingDB Target Chain Sequence>
MAGEGDQQDAAHNMGNHLPLLPAESEEEDEMEVEDQDSKEAKKPNIINFDTSLPTSHTYLGADMEEFHGRTLHDDDSCQVIPVLPQVMMILIPGQTLPLQLFHPQEVSMVRNLIQKDRTFAVLAYSNVQEREAQFGTTAEIYAYREEQDFGIEIVKVKAIGRQRFKVLELRTQSDGIQQAKVQILPECVLPSTMSAVQLESLNKCQIFPSKPVSREDQCSYKWWQKYQKRKFHCANLTSWPRWLYSLYDAETLMDRIKKQLREWDENLKDDSLPSNPIDFSYRVAACLPIDDVLRIQLLKIGSAIQRLRCELDIMNKCTSLCCKQCQETEITTKNEIFSLSLCGPMAAYVNPHGYVHETLTVYKACNLNLIGRPSTEHSWFPGYAWTVAQCKICASHIGWKFTATKKDMSPQKFWGLTRSALLPTIPDTEDEISPDKVILCL

> <PDB ID(s) of Target Chain>
9DUR,8TNR,8TNQ,8TNP,9DWW,9DWV,9NGT,9NFR,9NFQ,8D81,8D80,8D7Z,8D7Y,8D7X,8D7W,8D7V,8D7U,8CVP,9Q2D,9Q03,9DQD,8UH6,9SAI,9SAF,9H59,9E2U,6BOY,6BNB,6BN9,6BN8,6BN7,9OUL,9Y7D,6XK9,6UML,5V3O,5HXB,9HNE,9D0X,9D0W,7U8F,9FJX,8OJH,8OIZ,7LPS,9SFM,9OTY,4TZ4,9DJX,9DJT,8U17,8U16,8U15,8TZX,8DEY,9CUO,4M91

> <UniProt (SwissProt) Recommended Name of Target Chain>
Protein cereblon

> <UniProt (SwissProt) Entry Name of Target Chain>
CRBN_HUMAN

> <UniProt (SwissProt) Primary ID of Target Chain>
Q96SW2

> <UniProt (SwissProt) Secondary ID(s) of Target Chain>
B2R6H4 C9IZA9 C9JAH6 Q6AI62 Q6NVZ0 Q9UHW4

> <UniProt (SwissProt) Alternative ID(s) of Target Chain>


> <UniProt (TrEMBL) Submitted Name of Target Chain>


> <UniProt (TrEMBL) Entry Name of Target Chain>


> <UniProt (TrEMBL) Primary ID of Target Chain>


> <UniProt (TrEMBL) Secondary ID(s) of Target Chain>


> <UniProt (TrEMBL) Alternative ID(s) of Target Chain>


$$$$

  SciTegic12131615192D

  8  8  0  0  0  0            999 V2000
    1.2990   -0.7500    0.0000 C   0  0
    1.2990    0.7500    0.0000 C   0  0
    0.0000    1.5000    0.0000 C   0  0
   -1.2990    0.7500    0.0000 C   0  0
   -1.2990   -0.7500    0.0000 C   0  0
    0.0000   -1.5000    0.0000 N   0  0
    2.3383   -1.3500    0.0000 O   0  0
   -2.3383   -1.3500    0.0000 O   0  0
  1  2  1  0
  1  6  1  0
  2  3  1  0
  3  4  1  0
  4  5  1  0
  5  6  1  0
  1  7  2  0
  5  8  2  0
M  END
> <From>
www.bindingDB.org

> <BindingDB Reactant_set_id>
50467261

> <Ligand InChI>
InChI=1S/C5H7NO2/c7-4-2-1-3-5(8)6-4/h1-3H2,(H,6,7,8)

> <Ligand InChI Key>
KNCYXPMJDCCGSJ-UHFFFAOYSA-N

> <BindingDB MonomerID>
50146597

> <BindingDB Ligand Name>
CHEMBL3763941

> <Target Name>
Protein cereblon

> <Target Source Organism According to Curator or DataSource>
Human

> <Ki (nM)>
 103100

> <IC50 (nM)>


> <Kd (nM)>


> <EC50 (nM)>


> <kon (M-1-s-1)>


> <koff (s-1)>


> <pH>


> <Temp C>


> <Curation/DataSource>
ChEMBL

> <Article DOI>
10.1021/acs.jmedchem.5b01735

> <BindingDB Entry DOI>
10.7270/Q2PR7XVF

> <PMID>
26730808

> <PubChem AID>


> <Patent Number>


> <Authors>
Boichenko, I; Deiss, S; Bär, K; Hartmann, MD; Hernandez Alvarez, B

> <Date of publication>
1/28/2016

> <Date in BindingDB>
6/17/2017

> <Institution>
Max Planck Institute for Developmental Biology

> <Link to Ligand in BindingDB>
http://www.bindingdb.org/bind/chemsearch/marvin/MolStructure.jsp?monomerid=50146597

> <Link to Ligand-Target Pair in BindingDB>
http://www.bindingdb.org/jsp/dbsearch/PrimarySearch_ki.jsp?energyterm=kJ/mole&tag=pol&polymerid=50007050&target=Protein+cereblon&column=ki&startPg=0&Increment=50&submit=Search

> <Link to Ligand-Target Pair in BindingDB>
http://www.bindingdb.org/jsp/dbsearch/PrimarySearch_ki.jsp?energyterm=kJ/mole&tag=r21&monomerid=50146597&enzyme=Protein+cereblon&column=ki&startPg=0&Increment=50&submit=Search

> <Ligand HET ID in PDB>
9UZ

> <PDB ID(s) for Ligand-Target Complex>
5OH4

> <PubChem CID of Ligand>
10179224

> <PubChem SID of Ligand>
104035186

> <ChEBI ID of Ligand>


> <ChEMBL ID of Ligand>
CHEMBL3763941

> <DrugBank ID of Ligand>


> <IUPHAR_GRAC ID of Ligand>


> <KEGG ID of Ligand>
C07275

> <ZINC ID of Ligand>
ZINC13560999

> <Number of Protein Chains in Target (bigger than 1 implies a multichain complex)>
1

> <BindingDB Target Chain Sequence>
MAGEGDQQDAAHNMGNHLPLLPAESEEEDEMEVEDQDSKEAKKPNIINFDTSLPTSHTYLGADMEEFHGRTLHDDDSCQVIPVLPQVMMILIPGQTLPLQLFHPQEVSMVRNLIQKDRTFAVLAYSNVQEREAQFGTTAEIYAYREEQDFGIEIVKVKAIGRQRFKVLELRTQSDGIQQAKVQILPECVLPSTMSAVQLESLNKCQIFPSKPVSREDQCSYKWWQKYQKRKFHCANLTSWPRWLYSLYDAETLMDRIKKQLREWDENLKDDSLPSNPIDFSYRVAACLPIDDVLRIQLLKIGSAIQRLRCELDIMNKCTSLCCKQCQETEITTKNEIFSLSLCGPMAAYVNPHGYVHETLTVYKACNLNLIGRPSTEHSWFPGYAWTVAQCKICASHIGWKFTATKKDMSPQKFWGLTRSALLPTIPDTEDEISPDKVILCL

> <PDB ID(s) of Target Chain>
4TZ4,5HXB,5V3O,6UML,6XK9,7LPS,7U8F,8CVP,8D7U,8D7V,8D7W,8D7X,8D7Y,8D7Z,8D80,8D81,8DEY,8OIZ,8OJH

> <UniProt (SwissProt) Recommended Name of Target Chain>
Protein cereblon

> <UniProt (SwissProt) Entry Name of Target Chain>
CRBN_HUMAN

> <UniProt (SwissProt) Primary ID of Target Chain>
Q96SW2

> <UniProt (SwissProt) Secondary ID(s) of Target Chain>
B2R6H4 C9IZA9 C9JAH6 Q6AI62 Q6NVZ0 Q9UHW4

> <UniProt (SwissProt) Alternative ID(s) of Target Chain>


> <UniProt (TrEMBL) Submitted Name of Target Chain>


> <UniProt (TrEMBL) Entry Name of Target Chain>


> <UniProt (TrEMBL) Primary ID of Target Chain>


> <UniProt (TrEMBL) Secondary ID(s) of Target Chain>


> <UniProt (TrEMBL) Alternative ID(s) of Target Chain>


$$$$

  Mrv0541 11221423032D          

  4  3  0  0  0  0            999 V2000
    1.4948   -0.5804    0.0000 S   0  0  0  0  0  0  0  0  0  0  0  0
    1.4948    0.2463    0.0000 O   0  0  0  0  0  0  0  0  0  0  0  0
    0.7808   -0.9938    0.0000 C   0  0  0  0  0  0  0  0  0  0  0  0
    2.2088   -0.9938    0.0000 C   0  0  0  0  0  0  0  0  0  0  0  0
  2  1  2  0  0  0  0
  3  1  1  0  0  0  0
  4  1  1  0  0  0  0
M  END
> <From>
www.bindingDB.org

> <BindingDB Reactant_set_id>
51359691

> <Ligand InChI>
InChI=1S/C2H6OS/c1-4(2)3/h1-2H3

> <Ligand InChI Key>
IAZDPXIOMUYVGZ-UHFFFAOYSA-N

> <BindingDB MonomerID>
50026472

> <BindingDB Ligand Name>
(CH3)2SO::(methanesulfinyl)methanedimethyl sulfoxide::CHEMBL504::DIMETHYL SULFOXIDE::Dimethylsulfoxid::S(O)Me2::dimethyl sulfur oxide::dimethyl sulphoxide::dmso::methylsulfinylmethane::sulfinylbis(methane)

> <Target Name>
Protein cereblon

> <Target Source Organism According to Curator or DataSource>
Human

> <Ki (nM)>
 137000

> <IC50 (nM)>


> <Kd (nM)>


> <EC50 (nM)>


> <kon (M-1-s-1)>


> <koff (s-1)>


> <pH>


> <Temp C>


> <Curation/DataSource>
ChEMBL

> <Article DOI>
10.1021/acsmedchemlett.0c00440

> <BindingDB Entry DOI>
10.7270/Q2WM1J1B

> <PMID>
33488967

> <PubChem AID>


> <Patent Number>


> <Authors>
Maiwald, S; Heim, C; Hernandez Alvarez, B; Hartmann, MD

> <Date of publication>
1/14/2021

> <Date in BindingDB>
3/23/2022

> <Institution>
Max Planck Institute for Developmental Biology

> <Link to Ligand in BindingDB>
http://www.bindingdb.org/bind/chemsearch/marvin/MolStructure.jsp?monomerid=50026472

> <Link to Ligand-Target Pair in BindingDB>
http://www.bindingdb.org/jsp/dbsearch/PrimarySearch_ki.jsp?energyterm=kJ/mole&tag=pol&polymerid=50007050&target=Protein+cereblon&column=ki&startPg=0&Increment=50&submit=Search

> <Link to Ligand-Target Pair in BindingDB>
http://www.bindingdb.org/jsp/dbsearch/PrimarySearch_ki.jsp?energyterm=kJ/mole&tag=r21&monomerid=50026472&enzyme=Protein+cereblon&column=ki&startPg=0&Increment=50&submit=Search

> <Ligand HET ID in PDB>
DMS

> <PDB ID(s) for Ligand-Target Complex>
5QAO,5R4M,5R4L,5R4H,5R4J,6TW6,6BJ6,6BJ7,5QH3,5QH5,4LCA,4LC4,2ZDK,5QHG,5FCR,5RL5,5RL0,5QBK,6JKE,4Q4P,4Q4M,4Q4O,3NXU,6ZOW,6F6I,6F6N,6F6S,5N34,5N37,5N31,5N33,5N39,6NRH,5N3E,5N3A,5N3L,5N3M,5N3N,5N3O,5N3H,5N3I,5N3J,5N3K,5N3T,5N3V,5N3P,5N3Q,5N3R,5N3S,5N3Y,6Q4E,6Q4J,6Q4I,7BM7,7BM1,6Q49,6I51,6TW5,7DBG,5RZK,3E9Z,5RZM,5RZ3,5RZ2,5RZ1,5RZ0,5RZ7,5RZ5,5RZ4,7LCE,7ZX2,7ABU,6QJU,7WB6,7WB7,7R3O,7R3V,5EV8,4K0Z,7A41,6E0I,3E0Q,8C77,4JKU,4JKS,5RL4,5RL1,5RL3,5RL2,5RES,5REP,6T6W,1WAY,5RE4,5RE8,6W07,6W06,3K69,6SE4,6SET,6SEX,7B6G,7B6A,7B6C,7B69,7B68,7B61,7B60,7BS9,7USK,6URW,6URX,4TRN,4TRO,1HYT,8F4T,4MKA,7V2T,4MK8,4MK7,4CV9,4CVA,6DYA,7PHZ,5RWA,5RWN,7JMQ,5RZT,3UNT,4V82,4D4S,4D4V,4D4Y,1RRC,5JFG,5JFD,5JFR,3G72,3G70,3CZJ,5JBB,5JBN,5B5E,6FBA,4FVO,6ENX,7OQQ,6B59,6B56,8B72,7ADG,3PSY,3PS1,3PS2,3PS3,4NSI,4NSH,3VD7,3VD5,3VDC,3VDA,5DDC,5DDB,5DDA,5DDF,5DDE,5DDD,5FV3,4PML,5RBO,5RBZ,5RBY,5RBX,5RBS,5RBR,5RBQ,5RBP,5RBW,5RBV,5RBU,5RBT,3R16,3R17,7Z41,7Z4S,8DOY,4D91,4D9W,3SEP,4EK2,7P51,1LJ5,3MRV,6VV1,4O0C,5JQ7,4DST,4PG8,4PG5,4PG4,4PG6,4PG1,4PG0,4YRQ,4YRP,4YRC,4YRG,4YRF,4YRE,4YRK,4YRI,4YRO,4YRN,4YRL,2WI2,5AF9,5AFY,5MRA,6GOH,6GOI,3T6I,6RKT,6RKQ,4XMI,6S9Z,6S9D,4HP7,6EED,6EEE,2ICX,2ICY,4MQY,5MWJ,4J66,7LDX,7KMC,4KFB,3Q6Y,5LHB,5LH4,3E1F,5RWF,5FY1,5FY8,5FYU,5FYI,4QTL,4QTB,3AD4,3AD5,3AD6,4CQB,5OW8,6MNH,8D4I,4DXX,4ICL,6IUP,7XM7,2AOJ,2AOC,2AOD,2AOE,6R6W,6R6Y,6R6F,6R6J,5AK3,4Z3M,5AKS,5N9R,5AKJ,5AKI,5AKH,6G2W,6G2V,6G2Z,6G2Y,6G2X,2A1E,7BS6,7BS7,7BS4,7BS5,7Q11,6XM9,6XM8,6XM7,3TFU,3TFT,5M5F,7ATM,7ATO,6QDD,3V2M,6EPN,4WW6,8A9S,7DB2,7DB0,3LUF,6ZS8,6TVE,6TV4,6BI9,6BI1,5RSX,4LBT,4LBX,4LBG,6Y73,2X7Y,5FLP,5FLS,5FLR,5FLH,5FLJ,4QO9,6YA5,6YAP,6YAO,5QI6,5QI3,4BFD,7ABJ,7ABE,6F5W,6F5U,7L2A,4DMR,7B8Y,4INH,6OPB,6OPJ,4GCB,4GCC,4GCF,4GCD,4GCE,7ZB6,6HZB,6HZC,6HZD,5S3A,5S3C,5S3E,5S3D,5S3F,5S3T,5S34,5S39,6CZU,3ZOV,3ZOU,3ZO4,6NRF,6NRI,3OGQ,4A9N,1YX9,8OKM,8OKK,7BD6,8CKS,2X80,4ZEA,4ZE6,4E43,7NZW,7NZS,7NZR,4BKR,7B6K,7A4X,7A4R,3T09,3T08,3T0A,3T0B,3T0D,6PJV,7QU5,7QU3,7QU0,7B7H,5RHA,4GV0,4GV2,4GV4,3FGD,4ZW8,8G65,8G67,8G6A,7OGI,4MDS,3EDI,3PI0,7JFY,5LWD,5LWT,5LWU,5LWR,6PWH,4U77,5RHB,5RHD,5RH8,5RH1,5RH5,5RH4,5RH7,8C5P,4ZLZ,5OLD,5OLE,4UMT,5J1X,7AB1,5RGH,5RGI,5RGJ,5RGK,5RGT,5RGU,5RGW,5RGP,5RGQ,5RGR,5RGS,5RGX,5RGY,5RG0,5RG1,5RG2,5RG3,3DJF,5JGQ,7NQW,7NQQ,7NQO,7MDP,7MDC,7MDE,7MDF,3SAX,3SAP,6SY3,5WCG,7V62,4H0B,3F8W,5B66,7BTK,5TS8,6YIS,6EO8,6EO9,7OPN,6B4Q,6B4T,6B4D,5QUS,5QUU,5Z47,5USZ,2XDU,1TZ8,5OTL,7FON,5OTP,5LBA,4XCT,1RPZ,5YZO,7CME,5RCA,5RCC,5RCE,5RCG,5RC9,5RC1,5RC2,5ILF,5ILC,4X5Z,4X5Y,7QVZ,7Z58,8EN6,3S42,3RXM,3RXL,3RXK,3RXI,3RXG,3RXF,3RXD,3RXC,3RXB,3RXV,3RXU,3RXT,3RXS,3RXR,3RXQ,3RXP,6VUY,6VUX,6VUU,5JRQ,2AQ9,7KXP,7KXQ,7KXO,7KXL,2WJP,6UEC,3TLI,7NML,5HZ8,5HZ5,5BWW,5BWX,6X9N,6OWH,6X94,4MRG,4MRF,4MRE,4MRA,4MRH,4MR6,4MR5,4J17,4J1I,4J1H,4J1K,4J1E,4J1F,4J1C,7LEV,7JR4,2ZM4,2ZM1,5FZG,5FZF,5FZE,5FZC,5FZB,5FZA,5FZM,5FZL,5FZK,5FZI,5FZH,5FZ7,5FZ6,5FZ4,5FZ3,5FZ1,5FZ0,5FZ9,5DB1,5DB0,7NKW,7MNG,3AC5,3AC4,3AC1,3AC2,3ACK,3ACJ,7MHN,7MHH,5IEQ,5IEG,7MU7,4XIK,4ID5,3WZ7,4IDK,7QBB,5MLS,5DRO,5DRP,5DRS,5DR4,5DR1,5DR0,5DR3,7B99,5SZ6,6G30,6G38,6G3A,4WNJ,4RUK,7DIJ,3TGH,2R9X,3V3M,6QED,6QEI,4FOW,4FOV,1QA7,6EQS,5RGM,4L7G,4L7H,4L7L,4L7O,4L70,6OBU,5RGO,6DMI,6BHB,6BH0,6BH1,6BH3,4LAX,7JYC,6Y4I,4OGB,4OG8,4OG6,4OG7,4OG4,4OG5,4OG3,3QTF,3N4C,5H4J,7BJ6,6U3P,4Q6E,4Q6D,4C7H,4C7I,7MHM,6GHX,6GH9,3WZ8,4IOR,7B9N,4IOO,7MHI,4YI3,6ROF,7BC9,7BCD,6I3E,5RF4,5RF2,5HLL,7R1Q,5RFL,5TTG,3ZL6,3GVB,3H6W,3H6V,3H6T,3GV9,3QYK,3QYW,3QYZ,5TMG,8EYF,8EYE,6EA2,5TMK,4LAW,6T0P,6T0E,6T0M,6YUY,4LAP,4PVO,5TBV,5TBP,5TBS,6W29,7AYW,7OVO,6B7D,6SG6,8DG1,8DG2,5MNQ,5MNR,6QHC,7QTY,3F2P,7QT9,7QT5,7QT6,7QT7,1PE7,1PE8,7OFI,7OFK,7OFD,7OFE,7OFF,7OFA,7OFB,7OFC,7OF9,4MEO,3X1J,3X1K,7AMJ,2H7Y,2H7X,7P42,7ZWX,7ZWS,7ZWQ,7ZWV,7ZWT,7ZWN,5K7T,4XU1,4U0G,5SBR,3I1A,7ZUI,7ZUJ,7ZUK,5LIV,4A5Z,5O7I,8F4U,4Y35,4Y38,4Y39,4Y3Q,4Y3R,4Y3T,4Y3X,4Y3Y,4Y3A,4Y3D,4Y3E,4Y3F,4Y3J,4Y3L,4ZY5,7LAY,3HWJ,7ZAZ,7ZAB,7NNX,5SBK,3MMX,7N8E,6SZO,6SZM,6DY7,6O1H,6XY7,3TRS,4LHH,3I3E,3I3D,4G4H,4G4C,4G4B,5LL4,7OSS,7OSP,7OSX,5QTB,5QTC,5QTA,6B37,5QT8,5QT9,5QT6,5QT7,5QT4,5QT5,5QT2,5QT1,6B3L,4MXJ,8CW2,7QLT,8BOV,5LCE,5RW5,5RW6,5RW2,5RW3,5RW8,5RWT,5RWU

> <PubChem CID of Ligand>
679

> <PubChem SID of Ligand>
103936112

> <ChEBI ID of Ligand>
28262

> <ChEMBL ID of Ligand>
CHEMBL504

> <DrugBank ID of Ligand>
DB01093

> <IUPHAR_GRAC ID of Ligand>


> <KEGG ID of Ligand>
C11143

> <ZINC ID of Ligand>
ZINC05224188

> <Number of Protein Chains in Target (bigger than 1 implies a multichain complex)>
1

> <BindingDB Target Chain Sequence>
MAGEGDQQDAAHNMGNHLPLLPAESEEEDEMEVEDQDSKEAKKPNIINFDTSLPTSHTYLGADMEEFHGRTLHDDDSCQVIPVLPQVMMILIPGQTLPLQLFHPQEVSMVRNLIQKDRTFAVLAYSNVQEREAQFGTTAEIYAYREEQDFGIEIVKVKAIGRQRFKVLELRTQSDGIQQAKVQILPECVLPSTMSAVQLESLNKCQIFPSKPVSREDQCSYKWWQKYQKRKFHCANLTSWPRWLYSLYDAETLMDRIKKQLREWDENLKDDSLPSNPIDFSYRVAACLPIDDVLRIQLLKIGSAIQRLRCELDIMNKCTSLCCKQCQETEITTKNEIFSLSLCGPMAAYVNPHGYVHETLTVYKACNLNLIGRPSTEHSWFPGYAWTVAQCKICASHIGWKFTATKKDMSPQKFWGLTRSALLPTIPDTEDEISPDKVILCL

> <PDB ID(s) of Target Chain>
4TZ4,5HXB,5V3O,6UML,6XK9,7LPS,7U8F,8CVP,8D7U,8D7V,8D7W,8D7X,8D7Y,8D7Z,8D80,8D81,8DEY,8OIZ,8OJH

> <UniProt (SwissProt) Recommended Name of Target Chain>
Protein cereblon

> <UniProt (SwissProt) Entry Name of Target Chain>
CRBN_HUMAN

> <UniProt (SwissProt) Primary ID of Target Chain>
Q96SW2

> <UniProt (SwissProt) Secondary ID(s) of Target Chain>
B2R6H4 C9IZA9 C9JAH6 Q6AI62 Q6NVZ0 Q9UHW4

> <UniProt (SwissProt) Alternative ID(s) of Target Chain>


> <UniProt (TrEMBL) Submitted Name of Target Chain>


> <UniProt (TrEMBL) Entry Name of Target Chain>


> <UniProt (TrEMBL) Primary ID of Target Chain>


> <UniProt (TrEMBL) Secondary ID(s) of Target Chain>


> <UniProt (TrEMBL) Alternative ID(s) of Target Chain>


$$$$
BDBM10
  MJ221101                      

  7  7  0  0  0  0  0  0  0  0999 V2000
   -0.0258    1.4178    0.0000 C   0  0  0  0  0  0  0  0  0  0  0  0
   -0.7401    1.0053    0.0000 C   0  0  0  0  0  0  0  0  0  0  0  0
   -0.7401    0.1803    0.0000 C   0  0  0  0  0  0  0  0  0  0  0  0
    0.6887    1.0053    0.0000 C   0  0  0  0  0  0  0  0  0  0  0  0
    0.6887    0.1803    0.0000 C   0  0  0  0  0  0  0  0  0  0  0  0
    1.3845   -0.2213    0.0000 O   0  0  0  0  0  0  0  0  0  0  0  0
   -0.0258   -0.2321    0.0000 N   0  0  0  0  0  0  0  0  0  0  0  0
  1  2  1  0  0  0  0
  2  3  1  0  0  0  0
  3  7  1  0  0  0  0
  7  5  1  0  0  0  0
  5  4  1  0  0  0  0
  1  4  1  0  0  0  0
  5  6  2  0  0  0  0
M  END
> <From>
www.bindingDB.org

> <BindingDB Reactant_set_id>
51545423

> <Ligand InChI>
InChI=1S/C5H9NO/c7-5-3-1-2-4-6-5/h1-4H2,(H,6,7)

> <Ligand InChI Key>
XUWHAWMETYGRKB-UHFFFAOYSA-N

> <BindingDB MonomerID>
10

> <BindingDB Ligand Name>
CHEMBL12193::delta-valerolactam::piperidin-2-one

> <Target Name>
Protein cereblon

> <Target Source Organism According to Curator or DataSource>
Homo sapiens

> <Ki (nM)>
 146000

> <IC50 (nM)>


> <Kd (nM)>


> <EC50 (nM)>


> <kon (M-1-s-1)>


> <koff (s-1)>


> <pH>


> <Temp C>


> <Curation/DataSource>
ChEMBL

> <Article DOI>
10.1021/acs.jmedchem.2c01882

> <BindingDB Entry DOI>
10.7270/Q2SJ1R0R

> <PMID>
36821822

> <PubChem AID>


> <Patent Number>


> <Authors>
n/a

> <Date of publication>
3/9/2023

> <Date in BindingDB>
12/16/2024

> <Institution>
n/a

> <Link to Ligand in BindingDB>
http://www.bindingdb.org/bind/chemsearch/marvin/MolStructure.jsp?monomerid=10

> <Link to Ligand-Target Pair in BindingDB>
http://www.bindingdb.org/jsp/dbsearch/PrimarySearch_ki.jsp?energyterm=kJ/mole&tag=pol&polymerid=50007050&target=Protein+cereblon&column=ki&startPg=0&Increment=50&submit=Search

> <Link to Ligand-Target Pair in BindingDB>
http://www.bindingdb.org/jsp/dbsearch/PrimarySearch_ki.jsp?energyterm=kJ/mole&tag=r21&monomerid=10&enzyme=Protein+cereblon&column=ki&startPg=0&Increment=50&submit=Search

> <Ligand HET ID in PDB>
V1L    

> <PDB ID(s) for Ligand-Target Complex>
5S7P,5OHB,6TX7

> <PubChem CID of Ligand>
12665

> <PubChem SID of Ligand>
11108079

> <ChEBI ID of Ligand>
52910

> <ChEMBL ID of Ligand>
CHEMBL12193

> <DrugBank ID of Ligand>


> <IUPHAR_GRAC ID of Ligand>


> <KEGG ID of Ligand>


> <ZINC ID of Ligand>
ZINC11617039

> <Number of Protein Chains in Target (bigger than 1 implies a multichain complex)>
1

> <BindingDB Target Chain Sequence>
MAGEGDQQDAAHNMGNHLPLLPAESEEEDEMEVEDQDSKEAKKPNIINFDTSLPTSHTYLGADMEEFHGRTLHDDDSCQVIPVLPQVMMILIPGQTLPLQLFHPQEVSMVRNLIQKDRTFAVLAYSNVQEREAQFGTTAEIYAYREEQDFGIEIVKVKAIGRQRFKVLELRTQSDGIQQAKVQILPECVLPSTMSAVQLESLNKCQIFPSKPVSREDQCSYKWWQKYQKRKFHCANLTSWPRWLYSLYDAETLMDRIKKQLREWDENLKDDSLPSNPIDFSYRVAACLPIDDVLRIQLLKIGSAIQRLRCELDIMNKCTSLCCKQCQETEITTKNEIFSLSLCGPMAAYVNPHGYVHETLTVYKACNLNLIGRPSTEHSWFPGYAWTVAQCKICASHIGWKFTATKKDMSPQKFWGLTRSALLPTIPDTEDEISPDKVILCL

> <PDB ID(s) of Target Chain>
8TNR,8TNQ,8TNP,8D81,8D80,8D7Z,8D7Y,8D7X,8D7W,8D7V,8D7U,8CVP,9DQD,8UH6,6BOY,6BNB,6BN9,6BN8,6BN7,6XK9,6UML,5V3O,5HXB,7U8F,8OJH,8OIZ,7LPS,4TZ4,9DJX,9DJT,8U17,8U16,8U15,8TZX,8DEY,9CUO,4M91

> <UniProt (SwissProt) Recommended Name of Target Chain>
Protein cereblon

> <UniProt (SwissProt) Entry Name of Target Chain>
CRBN_HUMAN

> <UniProt (SwissProt) Primary ID of Target Chain>
Q96SW2

> <UniProt (SwissProt) Secondary ID(s) of Target Chain>
B2R6H4 C9IZA9 C9JAH6 Q6AI62 Q6NVZ0 Q9UHW4

> <UniProt (SwissProt) Alternative ID(s) of Target Chain>


> <UniProt (TrEMBL) Submitted Name of Target Chain>


> <UniProt (TrEMBL) Entry Name of Target Chain>


> <UniProt (TrEMBL) Primary ID of Target Chain>


> <UniProt (TrEMBL) Secondary ID(s) of Target Chain>


> <UniProt (TrEMBL) Alternative ID(s) of Target Chain>


$$$$

  SciTegic05161214222D

  7  7  0  0  0  0            999 V2000
   19.5500  -24.7250    0.0000 C   0  0
   20.3750  -24.7250    0.0000 C   0  0
   20.6318  -23.9409    0.0000 N   0  0
   19.9625  -23.4542    0.0000 C   0  0
   19.2974  -23.9409    0.0000 N   0  0
   19.9612  -22.6292    0.0000 S   0  0
   19.0642  -25.3918    0.0000 O   0  0
  2  3  1  0
  3  4  1  0
  4  5  1  0
  5  1  1  0
  1  2  1  0
  4  6  2  0
  1  7  2  0
M  END
> <From>
www.bindingDB.org

> <BindingDB Reactant_set_id>
51359700

> <Ligand InChI>
InChI=1S/C3H4N2OS/c6-2-1-4-3(7)5-2/h1H2,(H2,4,5,6,7)

> <Ligand InChI Key>
UGWULZWUXSCWPX-UHFFFAOYSA-N

> <BindingDB MonomerID>
50207238

> <BindingDB Ligand Name>
Thiohydantoin

> <Target Name>
Protein cereblon

> <Target Source Organism According to Curator or DataSource>
Human

> <Ki (nM)>
 169000

> <IC50 (nM)>


> <Kd (nM)>


> <EC50 (nM)>


> <kon (M-1-s-1)>


> <koff (s-1)>


> <pH>


> <Temp C>


> <Curation/DataSource>
ChEMBL

> <Article DOI>
10.1021/acsmedchemlett.0c00440

> <BindingDB Entry DOI>
10.7270/Q2WM1J1B

> <PMID>
33488967

> <PubChem AID>


> <Patent Number>


> <Authors>
Maiwald, S; Heim, C; Hernandez Alvarez, B; Hartmann, MD

> <Date of publication>
1/14/2021

> <Date in BindingDB>
3/23/2022

> <Institution>
Max Planck Institute for Developmental Biology

> <Link to Ligand in BindingDB>
http://www.bindingdb.org/bind/chemsearch/marvin/MolStructure.jsp?monomerid=50207238

> <Link to Ligand-Target Pair in BindingDB>
http://www.bindingdb.org/jsp/dbsearch/PrimarySearch_ki.jsp?energyterm=kJ/mole&tag=pol&polymerid=50007050&target=Protein+cereblon&column=ki&startPg=0&Increment=50&submit=Search

> <Link to Ligand-Target Pair in BindingDB>
http://www.bindingdb.org/jsp/dbsearch/PrimarySearch_ki.jsp?energyterm=kJ/mole&tag=r21&monomerid=50207238&enzyme=Protein+cereblon&column=ki&startPg=0&Increment=50&submit=Search

> <Ligand HET ID in PDB>


> <PDB ID(s) for Ligand-Target Complex>


> <PubChem CID of Ligand>
1274030

> <PubChem SID of Ligand>
375981509

> <ChEBI ID of Ligand>


> <ChEMBL ID of Ligand>


> <DrugBank ID of Ligand>


> <IUPHAR_GRAC ID of Ligand>


> <KEGG ID of Ligand>


> <ZINC ID of Ligand>


> <Number of Protein Chains in Target (bigger than 1 implies a multichain complex)>
1

> <BindingDB Target Chain Sequence>
MAGEGDQQDAAHNMGNHLPLLPAESEEEDEMEVEDQDSKEAKKPNIINFDTSLPTSHTYLGADMEEFHGRTLHDDDSCQVIPVLPQVMMILIPGQTLPLQLFHPQEVSMVRNLIQKDRTFAVLAYSNVQEREAQFGTTAEIYAYREEQDFGIEIVKVKAIGRQRFKVLELRTQSDGIQQAKVQILPECVLPSTMSAVQLESLNKCQIFPSKPVSREDQCSYKWWQKYQKRKFHCANLTSWPRWLYSLYDAETLMDRIKKQLREWDENLKDDSLPSNPIDFSYRVAACLPIDDVLRIQLLKIGSAIQRLRCELDIMNKCTSLCCKQCQETEITTKNEIFSLSLCGPMAAYVNPHGYVHETLTVYKACNLNLIGRPSTEHSWFPGYAWTVAQCKICASHIGWKFTATKKDMSPQKFWGLTRSALLPTIPDTEDEISPDKVILCL

> <PDB ID(s) of Target Chain>
4TZ4,5HXB,5V3O,6UML,6XK9,7LPS,7U8F,8CVP,8D7U,8D7V,8D7W,8D7X,8D7Y,8D7Z,8D80,8D81,8DEY,8OIZ,8OJH

> <UniProt (SwissProt) Recommended Name of Target Chain>
Protein cereblon

> <UniProt (SwissProt) Entry Name of Target Chain>
CRBN_HUMAN

> <UniProt (SwissProt) Primary ID of Target Chain>
Q96SW2

> <UniProt (SwissProt) Secondary ID(s) of Target Chain>
B2R6H4 C9IZA9 C9JAH6 Q6AI62 Q6NVZ0 Q9UHW4

> <UniProt (SwissProt) Alternative ID(s) of Target Chain>


> <UniProt (TrEMBL) Submitted Name of Target Chain>


> <UniProt (TrEMBL) Entry Name of Target Chain>


> <UniProt (TrEMBL) Primary ID of Target Chain>


> <UniProt (TrEMBL) Secondary ID(s) of Target Chain>


> <UniProt (TrEMBL) Alternative ID(s) of Target Chain>


$$$$

     RDKit          2D

  8  8  0  0  0  0  0  0  0  0999 V2000
    0.1983   -0.9282    0.0000 N   0  0  0  0  0  0  0  0  0  0  0  0
   -0.5162   -0.5157    0.0000 C   0  0  0  0  0  0  0  0  0  0  0  0
   -1.2306   -0.9282    0.0000 O   0  0  0  0  0  0  0  0  0  0  0  0
   -0.5162    0.3093    0.0000 N   0  0  0  0  0  0  0  0  0  0  0  0
    0.1983    0.7218    0.0000 C   0  0  0  0  0  0  0  0  0  0  0  0
    0.1983    1.5468    0.0000 O   0  0  0  0  0  0  0  0  0  0  0  0
    0.9128    0.3093    0.0000 C   0  0  0  0  0  0  0  0  0  0  0  0
    0.9128   -0.5157    0.0000 C   0  0  0  0  0  0  0  0  0  0  0  0
  2  1  1  0
  8  1  1  0
  2  3  2  0
  2  4  1  0
  5  4  1  0
  5  6  2  0
  5  7  1  0
  7  8  2  0
M  END
> <From>
www.bindingDB.org

> <BindingDB Reactant_set_id>
51359718

> <Ligand InChI>
InChI=1S/C4H4N2O2/c7-3-1-2-5-4(8)6-3/h1-2H,(H2,5,6,7,8)

> <Ligand InChI Key>
ISAKRJDGNUQOIC-UHFFFAOYSA-N

> <BindingDB MonomerID>
50549809

> <BindingDB Ligand Name>
BMS-205603-01::CHEBI:17568::Fluorouracil specified compound c::Hybar x::Lamivudine impurity e::Lamivudine impurity e rs::NSC-3970::Pyrod::SQ-6201::SQ-7726::SQ-8493::Uracil

> <Target Name>
Protein cereblon

> <Target Source Organism According to Curator or DataSource>
Human

> <Ki (nM)>
 212000

> <IC50 (nM)>


> <Kd (nM)>


> <EC50 (nM)>


> <kon (M-1-s-1)>


> <koff (s-1)>


> <pH>


> <Temp C>


> <Curation/DataSource>
ChEMBL

> <Article DOI>
10.1021/acsmedchemlett.0c00440

> <BindingDB Entry DOI>
10.7270/Q2WM1J1B

> <PMID>
33488967

> <PubChem AID>


> <Patent Number>


> <Authors>
Maiwald, S; Heim, C; Hernandez Alvarez, B; Hartmann, MD

> <Date of publication>
1/14/2021

> <Date in BindingDB>
3/23/2022

> <Institution>
Max Planck Institute for Developmental Biology

> <Link to Ligand in BindingDB>
http://www.bindingdb.org/bind/chemsearch/marvin/MolStructure.jsp?monomerid=50549809

> <Link to Ligand-Target Pair in BindingDB>
http://www.bindingdb.org/jsp/dbsearch/PrimarySearch_ki.jsp?energyterm=kJ/mole&tag=pol&polymerid=50007050&target=Protein+cereblon&column=ki&startPg=0&Increment=50&submit=Search

> <Link to Ligand-Target Pair in BindingDB>
http://www.bindingdb.org/jsp/dbsearch/PrimarySearch_ki.jsp?energyterm=kJ/mole&tag=r21&monomerid=50549809&enzyme=Protein+cereblon&column=ki&startPg=0&Increment=50&submit=Search

> <Ligand HET ID in PDB>
URA

> <PDB ID(s) for Ligand-Target Complex>
5LHV,4HK7,3SLF,4YGM,1TGY,3KVY,1BD4,1BRW,4YIG,1UDH,4WRU,4WRV,1UCD,3LOC,6Z1B,6SGL,4YJK,6TEG,5WAN,1KSL,1KSK,1Y1S,4JYK,1SSP,5XLS,4OEH,4KPV,1Q3F,1JLS,5Y48,2XRF,5EUG,5ILX,1EMJ,2EUG,7Q2W,4WPL,3QPB,5MIW,3BJE,3QE7,6IOB,6IOC,6IOA,2RJ3,7M32,1WS3,1OE5,1GTH,1UI0,4ZBY,4LZB,3PNS,6AJO,6AJR,3CXM,6K5H,1FLZ,4TXL,6UGJ,5GNW,4SKN

> <PubChem CID of Ligand>
1174

> <PubChem SID of Ligand>
461680149

> <ChEBI ID of Ligand>


> <ChEMBL ID of Ligand>


> <DrugBank ID of Ligand>


> <IUPHAR_GRAC ID of Ligand>


> <KEGG ID of Ligand>
C00106

> <ZINC ID of Ligand>


> <Number of Protein Chains in Target (bigger than 1 implies a multichain complex)>
1

> <BindingDB Target Chain Sequence>
MAGEGDQQDAAHNMGNHLPLLPAESEEEDEMEVEDQDSKEAKKPNIINFDTSLPTSHTYLGADMEEFHGRTLHDDDSCQVIPVLPQVMMILIPGQTLPLQLFHPQEVSMVRNLIQKDRTFAVLAYSNVQEREAQFGTTAEIYAYREEQDFGIEIVKVKAIGRQRFKVLELRTQSDGIQQAKVQILPECVLPSTMSAVQLESLNKCQIFPSKPVSREDQCSYKWWQKYQKRKFHCANLTSWPRWLYSLYDAETLMDRIKKQLREWDENLKDDSLPSNPIDFSYRVAACLPIDDVLRIQLLKIGSAIQRLRCELDIMNKCTSLCCKQCQETEITTKNEIFSLSLCGPMAAYVNPHGYVHETLTVYKACNLNLIGRPSTEHSWFPGYAWTVAQCKICASHIGWKFTATKKDMSPQKFWGLTRSALLPTIPDTEDEISPDKVILCL

> <PDB ID(s) of Target Chain>
4TZ4,5HXB,5V3O,6UML,6XK9,7LPS,7U8F,8CVP,8D7U,8D7V,8D7W,8D7X,8D7Y,8D7Z,8D80,8D81,8DEY,8OIZ,8OJH

> <UniProt (SwissProt) Recommended Name of Target Chain>
Protein cereblon

> <UniProt (SwissProt) Entry Name of Target Chain>
CRBN_HUMAN

> <UniProt (SwissProt) Primary ID of Target Chain>
Q96SW2

> <UniProt (SwissProt) Secondary ID(s) of Target Chain>
B2R6H4 C9IZA9 C9JAH6 Q6AI62 Q6NVZ0 Q9UHW4

> <UniProt (SwissProt) Alternative ID(s) of Target Chain>


> <UniProt (TrEMBL) Submitted Name of Target Chain>


> <UniProt (TrEMBL) Entry Name of Target Chain>


> <UniProt (TrEMBL) Primary ID of Target Chain>


> <UniProt (TrEMBL) Secondary ID(s) of Target Chain>


> <UniProt (TrEMBL) Alternative ID(s) of Target Chain>


$$$$

     RDKit          2D

  7  7  0  0  0  0  0  0  0  0999 V2000
    0.7654   -1.2734    0.0000 O   0  0  0  0  0  0  0  0  0  0  0  0
    0.2805   -0.6060    0.0000 C   0  0  0  0  0  0  0  0  0  0  0  0
   -0.5445   -0.6060    0.0000 C   0  0  0  0  0  0  0  0  0  0  0  0
   -0.7995    0.1787    0.0000 N   0  0  0  0  0  0  0  0  0  0  0  0
    0.5354    0.1787    0.0000 N   0  0  0  0  0  0  0  0  0  0  0  0
   -0.1320    0.6636    0.0000 C   0  0  0  0  0  0  0  0  0  0  0  0
   -0.1320    1.4886    0.0000 O   0  0  0  0  0  0  0  0  0  0  0  0
  2  1  2  0
  2  3  1  0
  2  5  1  0
  3  4  1  0
  6  4  1  0
  6  5  1  0
  6  7  2  0
M  END
> <From>
www.bindingDB.org

> <BindingDB Reactant_set_id>
51359695

> <Ligand InChI>
InChI=1S/C3H4N2O2/c6-2-1-4-3(7)5-2/h1H2,(H2,4,5,6,7)

> <Ligand InChI Key>
WJRBRSLFGCUECM-UHFFFAOYSA-N

> <BindingDB MonomerID>
50549804

> <BindingDB Ligand Name>
CHEBI:27612::Hydantoin::Imidazolidine-2,4-Dione

> <Target Name>
Protein cereblon

> <Target Source Organism According to Curator or DataSource>
Human

> <Ki (nM)>
 216000

> <IC50 (nM)>


> <Kd (nM)>


> <EC50 (nM)>


> <kon (M-1-s-1)>


> <koff (s-1)>


> <pH>


> <Temp C>


> <Curation/DataSource>
ChEMBL

> <Article DOI>
10.1021/acsmedchemlett.0c00440

> <BindingDB Entry DOI>
10.7270/Q2WM1J1B

> <PMID>
33488967

> <PubChem AID>


> <Patent Number>


> <Authors>
Maiwald, S; Heim, C; Hernandez Alvarez, B; Hartmann, MD

> <Date of publication>
1/14/2021

> <Date in BindingDB>
3/23/2022

> <Institution>
Max Planck Institute for Developmental Biology

> <Link to Ligand in BindingDB>
http://www.bindingdb.org/bind/chemsearch/marvin/MolStructure.jsp?monomerid=50549804

> <Link to Ligand-Target Pair in BindingDB>
http://www.bindingdb.org/jsp/dbsearch/PrimarySearch_ki.jsp?energyterm=kJ/mole&tag=pol&polymerid=50007050&target=Protein+cereblon&column=ki&startPg=0&Increment=50&submit=Search

> <Link to Ligand-Target Pair in BindingDB>
http://www.bindingdb.org/jsp/dbsearch/PrimarySearch_ki.jsp?energyterm=kJ/mole&tag=r21&monomerid=50549804&enzyme=Protein+cereblon&column=ki&startPg=0&Increment=50&submit=Search

> <Ligand HET ID in PDB>
HYN

> <PDB ID(s) for Ligand-Target Complex>
4LCS,5OH7,6TX9,3CL7,5S46

> <PubChem CID of Ligand>
10006

> <PubChem SID of Ligand>
461680144

> <ChEBI ID of Ligand>


> <ChEMBL ID of Ligand>


> <DrugBank ID of Ligand>


> <IUPHAR_GRAC ID of Ligand>


> <KEGG ID of Ligand>
C05146

> <ZINC ID of Ligand>


> <Number of Protein Chains in Target (bigger than 1 implies a multichain complex)>
1

> <BindingDB Target Chain Sequence>
MAGEGDQQDAAHNMGNHLPLLPAESEEEDEMEVEDQDSKEAKKPNIINFDTSLPTSHTYLGADMEEFHGRTLHDDDSCQVIPVLPQVMMILIPGQTLPLQLFHPQEVSMVRNLIQKDRTFAVLAYSNVQEREAQFGTTAEIYAYREEQDFGIEIVKVKAIGRQRFKVLELRTQSDGIQQAKVQILPECVLPSTMSAVQLESLNKCQIFPSKPVSREDQCSYKWWQKYQKRKFHCANLTSWPRWLYSLYDAETLMDRIKKQLREWDENLKDDSLPSNPIDFSYRVAACLPIDDVLRIQLLKIGSAIQRLRCELDIMNKCTSLCCKQCQETEITTKNEIFSLSLCGPMAAYVNPHGYVHETLTVYKACNLNLIGRPSTEHSWFPGYAWTVAQCKICASHIGWKFTATKKDMSPQKFWGLTRSALLPTIPDTEDEISPDKVILCL

> <PDB ID(s) of Target Chain>
4TZ4,5HXB,5V3O,6UML,6XK9,7LPS,7U8F,8CVP,8D7U,8D7V,8D7W,8D7X,8D7Y,8D7Z,8D80,8D81,8DEY,8OIZ,8OJH

> <UniProt (SwissProt) Recommended Name of Target Chain>
Protein cereblon

> <UniProt (SwissProt) Entry Name of Target Chain>
CRBN_HUMAN

> <UniProt (SwissProt) Primary ID of Target Chain>
Q96SW2

> <UniProt (SwissProt) Secondary ID(s) of Target Chain>
B2R6H4 C9IZA9 C9JAH6 Q6AI62 Q6NVZ0 Q9UHW4

> <UniProt (SwissProt) Alternative ID(s) of Target Chain>


> <UniProt (TrEMBL) Submitted Name of Target Chain>


> <UniProt (TrEMBL) Entry Name of Target Chain>


> <UniProt (TrEMBL) Primary ID of Target Chain>


> <UniProt (TrEMBL) Secondary ID(s) of Target Chain>


> <UniProt (TrEMBL) Alternative ID(s) of Target Chain>


$$$$
 
     RDKit          2D

  8  8  0  0  0  0  0  0  0  0999 V2000
    3.5291  -12.3416    0.0000 C   0  0  0  0  0  0  0  0  0  0  0  0
    4.3541  -12.3416    0.0000 N   0  0  0  0  0  0  0  0  0  0  0  0
    4.6109  -11.5575    0.0000 C   0  0  0  0  0  0  0  0  0  0  0  0
    3.9416  -11.0707    0.0000 C   0  0  0  0  0  0  0  0  0  0  0  0
    3.2766  -11.5575    0.0000 N   0  0  0  0  0  0  0  0  0  0  0  0
    3.0433  -13.0084    0.0000 O   0  0  0  0  0  0  0  0  0  0  0  0
    5.3958  -11.3036    0.0000 O   0  0  0  0  0  0  0  0  0  0  0  0
    2.4919  -11.3029    0.0000 N   0  0  0  0  0  0  0  0  0  0  0  0
  1  2  1  0
  2  3  1  0
  3  4  1  0
  4  5  1  0
  5  1  1  0
  1  6  2  0
  3  7  2  0
  5  8  1  0
M  END
> <From>
www.bindingDB.org

> <BindingDB Reactant_set_id>
51359702

> <Ligand InChI>
InChI=1S/C3H5N3O2/c4-6-1-2(7)5-3(6)8/h1,4H2,(H,5,7,8)

> <Ligand InChI Key>
KVYKDNGUEZRPGJ-UHFFFAOYSA-N

> <BindingDB MonomerID>
50549807

> <BindingDB Ligand Name>
CHEMBL4756680

> <Target Name>
Protein cereblon

> <Target Source Organism According to Curator or DataSource>
Human

> <Ki (nM)>
 229000

> <IC50 (nM)>


> <Kd (nM)>


> <EC50 (nM)>


> <kon (M-1-s-1)>


> <koff (s-1)>


> <pH>


> <Temp C>


> <Curation/DataSource>
ChEMBL

> <Article DOI>
10.1021/acsmedchemlett.0c00440

> <BindingDB Entry DOI>
10.7270/Q2WM1J1B

> <PMID>
33488967

> <PubChem AID>


> <Patent Number>


> <Authors>
Maiwald, S; Heim, C; Hernandez Alvarez, B; Hartmann, MD

> <Date of publication>
1/14/2021

> <Date in BindingDB>
3/23/2022

> <Institution>
Max Planck Institute for Developmental Biology

> <Link to Ligand in BindingDB>
http://www.bindingdb.org/bind/chemsearch/marvin/MolStructure.jsp?monomerid=50549807

> <Link to Ligand-Target Pair in BindingDB>
http://www.bindingdb.org/jsp/dbsearch/PrimarySearch_ki.jsp?energyterm=kJ/mole&tag=pol&polymerid=50007050&target=Protein+cereblon&column=ki&startPg=0&Increment=50&submit=Search

> <Link to Ligand-Target Pair in BindingDB>
http://www.bindingdb.org/jsp/dbsearch/PrimarySearch_ki.jsp?energyterm=kJ/mole&tag=r21&monomerid=50549807&enzyme=Protein+cereblon&column=ki&startPg=0&Increment=50&submit=Search

> <Ligand HET ID in PDB>


> <PDB ID(s) for Ligand-Target Complex>


> <PubChem CID of Ligand>
72823

> <PubChem SID of Ligand>
461680147

> <ChEBI ID of Ligand>


> <ChEMBL ID of Ligand>


> <DrugBank ID of Ligand>


> <IUPHAR_GRAC ID of Ligand>


> <KEGG ID of Ligand>


> <ZINC ID of Ligand>


> <Number of Protein Chains in Target (bigger than 1 implies a multichain complex)>
1

> <BindingDB Target Chain Sequence>
MAGEGDQQDAAHNMGNHLPLLPAESEEEDEMEVEDQDSKEAKKPNIINFDTSLPTSHTYLGADMEEFHGRTLHDDDSCQVIPVLPQVMMILIPGQTLPLQLFHPQEVSMVRNLIQKDRTFAVLAYSNVQEREAQFGTTAEIYAYREEQDFGIEIVKVKAIGRQRFKVLELRTQSDGIQQAKVQILPECVLPSTMSAVQLESLNKCQIFPSKPVSREDQCSYKWWQKYQKRKFHCANLTSWPRWLYSLYDAETLMDRIKKQLREWDENLKDDSLPSNPIDFSYRVAACLPIDDVLRIQLLKIGSAIQRLRCELDIMNKCTSLCCKQCQETEITTKNEIFSLSLCGPMAAYVNPHGYVHETLTVYKACNLNLIGRPSTEHSWFPGYAWTVAQCKICASHIGWKFTATKKDMSPQKFWGLTRSALLPTIPDTEDEISPDKVILCL

> <PDB ID(s) of Target Chain>
4TZ4,5HXB,5V3O,6UML,6XK9,7LPS,7U8F,8CVP,8D7U,8D7V,8D7W,8D7X,8D7Y,8D7Z,8D80,8D81,8DEY,8OIZ,8OJH

> <UniProt (SwissProt) Recommended Name of Target Chain>
Protein cereblon

> <UniProt (SwissProt) Entry Name of Target Chain>
CRBN_HUMAN

> <UniProt (SwissProt) Primary ID of Target Chain>
Q96SW2

> <UniProt (SwissProt) Secondary ID(s) of Target Chain>
B2R6H4 C9IZA9 C9JAH6 Q6AI62 Q6NVZ0 Q9UHW4

> <UniProt (SwissProt) Alternative ID(s) of Target Chain>


> <UniProt (TrEMBL) Submitted Name of Target Chain>


> <UniProt (TrEMBL) Entry Name of Target Chain>


> <UniProt (TrEMBL) Primary ID of Target Chain>


> <UniProt (TrEMBL) Secondary ID(s) of Target Chain>


> <UniProt (TrEMBL) Alternative ID(s) of Target Chain>


$$$$

  Mrv0541 04051115152D          

 17 18  0  0  0  0            999 V2000
   -0.1397    0.6175    0.0000 N   0  0  0  0  0  0  0  0  0  0  0  0
    0.5748    1.0300    0.0000 C   0  0  0  0  0  0  0  0  0  0  0  0
    0.5748    1.8550    0.0000 N   0  0  0  0  0  0  0  0  0  0  0  0
   -0.1397    2.2675    0.0000 C   0  0  0  0  0  0  0  0  0  0  0  0
   -0.8542    1.8550    0.0000 C   0  0  0  0  0  0  0  0  0  0  0  0
   -0.8542    1.0300    0.0000 C   0  0  0  0  0  0  0  0  0  0  0  0
    1.2892    0.6175    0.0000 O   0  0  0  0  0  0  0  0  0  0  0  0
   -0.1397    3.0925    0.0000 O   0  0  0  0  0  0  0  0  0  0  0  0
   -0.1397   -0.2075    0.0000 C   0  0  1  0  0  0  0  0  0  0  0  0
    0.5277   -0.6925    0.0000 C   0  0  1  0  0  0  0  0  0  0  0  0
    0.2728   -1.4771    0.0000 C   0  0  1  0  0  0  0  0  0  0  0  0
   -0.5522   -1.4771    0.0000 C   0  0  2  0  0  0  0  0  0  0  0  0
    1.3124   -0.4375    0.0000 O   0  0  0  0  0  0  0  0  0  0  0  0
    0.7577   -2.1445    0.0000 O   0  0  0  0  0  0  0  0  0  0  0  0
   -0.8071   -0.6925    0.0000 O   0  0  0  0  0  0  0  0  0  0  0  0
   -1.0371   -2.1445    0.0000 C   0  0  0  0  0  0  0  0  0  0  0  0
   -0.7016   -2.8982    0.0000 O   0  0  0  0  0  0  0  0  0  0  0  0
  2  1  1  0  0  0  0
  6  1  1  0  0  0  0
  9  1  1  1  0  0  0
  2  3  1  0  0  0  0
  2  7  2  0  0  0  0
  4  3  1  0  0  0  0
  4  5  1  0  0  0  0
  4  8  2  0  0  0  0
  5  6  2  0  0  0  0
  9 10  1  0  0  0  0
  9 15  1  0  0  0  0
 10 11  1  0  0  0  0
 10 13  1  6  0  0  0
 11 12  1  0  0  0  0
 11 14  1  6  0  0  0
 12 15  1  0  0  0  0
 12 16  1  1  0  0  0
 16 17  1  0  0  0  0
M  END
> <From>
www.bindingDB.org

> <BindingDB Reactant_set_id>
51359704

> <Ligand InChI>
InChI=1S/C9H12N2O6/c12-3-4-6(14)7(15)8(17-4)11-2-1-5(13)10-9(11)16/h1-2,4,6-8,12,14-15H,3H2,(H,10,13,16)/t4-,6-,7-,8-/m1/s1

> <Ligand InChI Key>
DRTQHJPVMGBUCF-XVFCMESISA-N

> <BindingDB MonomerID>
50088517

> <BindingDB Ligand Name>
CHEBI:16704::Uridine

> <Target Name>
Protein cereblon

> <Target Source Organism According to Curator or DataSource>
Human

> <Ki (nM)>
 390000

> <IC50 (nM)>


> <Kd (nM)>


> <EC50 (nM)>


> <kon (M-1-s-1)>


> <koff (s-1)>


> <pH>


> <Temp C>


> <Curation/DataSource>
ChEMBL

> <Article DOI>
10.1021/acsmedchemlett.0c00440

> <BindingDB Entry DOI>
10.7270/Q2WM1J1B

> <PMID>
33488967

> <PubChem AID>


> <Patent Number>


> <Authors>
Maiwald, S; Heim, C; Hernandez Alvarez, B; Hartmann, MD

> <Date of publication>
1/14/2021

> <Date in BindingDB>
3/23/2022

> <Institution>
Max Planck Institute for Developmental Biology

> <Link to Ligand in BindingDB>
http://www.bindingdb.org/bind/chemsearch/marvin/MolStructure.jsp?monomerid=50088517

> <Link to Ligand-Target Pair in BindingDB>
http://www.bindingdb.org/jsp/dbsearch/PrimarySearch_ki.jsp?energyterm=kJ/mole&tag=pol&polymerid=50007050&target=Protein+cereblon&column=ki&startPg=0&Increment=50&submit=Search

> <Link to Ligand-Target Pair in BindingDB>
http://www.bindingdb.org/jsp/dbsearch/PrimarySearch_ki.jsp?energyterm=kJ/mole&tag=r21&monomerid=50088517&enzyme=Protein+cereblon&column=ki&startPg=0&Increment=50&submit=Search

> <Ligand HET ID in PDB>
URI

> <PDB ID(s) for Ligand-Target Complex>
5LHV,6YAB,2HWU,7QTA,2FR6,7VTE,6KNL,4PD6,2V0L,1TLZ,1LNX,6TFL,4JX9,1LOJ,7QSH,5C80,7M7K,4R0A,4R08,4R09,4R07,4YYY,5L26,3IVD,5OO9,5OO8,5OO4,5OOA,3TIJ,4R2W,1I5L,4EG2,5ILW,5M2T

> <PubChem CID of Ligand>
6029

> <PubChem SID of Ligand>
103987432

> <ChEBI ID of Ligand>


> <ChEMBL ID of Ligand>


> <DrugBank ID of Ligand>


> <IUPHAR_GRAC ID of Ligand>


> <KEGG ID of Ligand>
C00299

> <ZINC ID of Ligand>
ZINC26375944

> <Number of Protein Chains in Target (bigger than 1 implies a multichain complex)>
1

> <BindingDB Target Chain Sequence>
MAGEGDQQDAAHNMGNHLPLLPAESEEEDEMEVEDQDSKEAKKPNIINFDTSLPTSHTYLGADMEEFHGRTLHDDDSCQVIPVLPQVMMILIPGQTLPLQLFHPQEVSMVRNLIQKDRTFAVLAYSNVQEREAQFGTTAEIYAYREEQDFGIEIVKVKAIGRQRFKVLELRTQSDGIQQAKVQILPECVLPSTMSAVQLESLNKCQIFPSKPVSREDQCSYKWWQKYQKRKFHCANLTSWPRWLYSLYDAETLMDRIKKQLREWDENLKDDSLPSNPIDFSYRVAACLPIDDVLRIQLLKIGSAIQRLRCELDIMNKCTSLCCKQCQETEITTKNEIFSLSLCGPMAAYVNPHGYVHETLTVYKACNLNLIGRPSTEHSWFPGYAWTVAQCKICASHIGWKFTATKKDMSPQKFWGLTRSALLPTIPDTEDEISPDKVILCL

> <PDB ID(s) of Target Chain>
4TZ4,5HXB,5V3O,6UML,6XK9,7LPS,7U8F,8CVP,8D7U,8D7V,8D7W,8D7X,8D7Y,8D7Z,8D80,8D81,8DEY,8OIZ,8OJH

> <UniProt (SwissProt) Recommended Name of Target Chain>
Protein cereblon

> <UniProt (SwissProt) Entry Name of Target Chain>
CRBN_HUMAN

> <UniProt (SwissProt) Primary ID of Target Chain>
Q96SW2

> <UniProt (SwissProt) Secondary ID(s) of Target Chain>
B2R6H4 C9IZA9 C9JAH6 Q6AI62 Q6NVZ0 Q9UHW4

> <UniProt (SwissProt) Alternative ID(s) of Target Chain>


> <UniProt (TrEMBL) Submitted Name of Target Chain>


> <UniProt (TrEMBL) Entry Name of Target Chain>


> <UniProt (TrEMBL) Primary ID of Target Chain>


> <UniProt (TrEMBL) Secondary ID(s) of Target Chain>


> <UniProt (TrEMBL) Alternative ID(s) of Target Chain>


$$$$
 
     RDKit          2D

  7  6  0  0  0  0  0  0  0  0999 V2000
   -0.7144    0.6187    0.0000 N   0  0  0  0  0  0  0  0  0  0  0  0
    0.7144    0.6187    0.0000 C   0  0  0  0  0  0  0  0  0  0  0  0
    0.7144   -0.2062    0.0000 C   0  0  0  0  0  0  0  0  0  0  0  0
    0.0000   -0.6187    0.0000 N   0  0  0  0  0  0  0  0  0  0  0  0
   -0.7144   -0.2062    0.0000 C   0  0  0  0  0  0  0  0  0  0  0  0
   -1.4287   -0.6186    0.0000 O   0  0  0  0  0  0  0  0  0  0  0  0
    1.4287   -0.6186    0.0000 O   0  0  0  0  0  0  0  0  0  0  0  0
  3  2  1  0
  4  3  1  0
  1  5  1  0
  5  4  1  0
  5  6  2  0
  3  7  2  0
M  END
> <From>
www.bindingDB.org

> <BindingDB Reactant_set_id>
51545429

> <Ligand InChI>
InChI=1S/C3H6N2O2/c1-2(6)5-3(4)7/h1H3,(H3,4,5,6,7)

> <Ligand InChI Key>
GKRZNOGGALENQJ-UHFFFAOYSA-N

> <BindingDB MonomerID>
50621581

> <BindingDB Ligand Name>
CHEMBL5399028

> <Target Name>
Protein cereblon

> <Target Source Organism According to Curator or DataSource>
Homo sapiens

> <Ki (nM)>
 522000

> <IC50 (nM)>


> <Kd (nM)>


> <EC50 (nM)>


> <kon (M-1-s-1)>


> <koff (s-1)>


> <pH>


> <Temp C>


> <Curation/DataSource>
ChEMBL

> <Article DOI>
10.1021/acs.jmedchem.2c01882

> <BindingDB Entry DOI>
10.7270/Q2SJ1R0R

> <PMID>
36821822

> <PubChem AID>


> <Patent Number>


> <Authors>
n/a

> <Date of publication>
3/9/2023

> <Date in BindingDB>
12/16/2024

> <Institution>
n/a

> <Link to Ligand in BindingDB>
http://www.bindingdb.org/bind/chemsearch/marvin/MolStructure.jsp?monomerid=50621581

> <Link to Ligand-Target Pair in BindingDB>
http://www.bindingdb.org/jsp/dbsearch/PrimarySearch_ki.jsp?energyterm=kJ/mole&tag=pol&polymerid=50007050&target=Protein+cereblon&column=ki&startPg=0&Increment=50&submit=Search

> <Link to Ligand-Target Pair in BindingDB>
http://www.bindingdb.org/jsp/dbsearch/PrimarySearch_ki.jsp?energyterm=kJ/mole&tag=r21&monomerid=50621581&enzyme=Protein+cereblon&column=ki&startPg=0&Increment=50&submit=Search

> <Ligand HET ID in PDB>


> <PDB ID(s) for Ligand-Target Complex>


> <PubChem CID>


> <PubChem SID>


> <ChEBI ID of Ligand>


> <ChEMBL ID of Ligand>


> <DrugBank ID of Ligand>


> <IUPHAR_GRAC ID of Ligand>


> <KEGG ID of Ligand>


> <ZINC ID of Ligand>


> <Number of Protein Chains in Target (bigger than 1 implies a multichain complex)>
1

> <BindingDB Target Chain Sequence>
MAGEGDQQDAAHNMGNHLPLLPAESEEEDEMEVEDQDSKEAKKPNIINFDTSLPTSHTYLGADMEEFHGRTLHDDDSCQVIPVLPQVMMILIPGQTLPLQLFHPQEVSMVRNLIQKDRTFAVLAYSNVQEREAQFGTTAEIYAYREEQDFGIEIVKVKAIGRQRFKVLELRTQSDGIQQAKVQILPECVLPSTMSAVQLESLNKCQIFPSKPVSREDQCSYKWWQKYQKRKFHCANLTSWPRWLYSLYDAETLMDRIKKQLREWDENLKDDSLPSNPIDFSYRVAACLPIDDVLRIQLLKIGSAIQRLRCELDIMNKCTSLCCKQCQETEITTKNEIFSLSLCGPMAAYVNPHGYVHETLTVYKACNLNLIGRPSTEHSWFPGYAWTVAQCKICASHIGWKFTATKKDMSPQKFWGLTRSALLPTIPDTEDEISPDKVILCL

> <PDB ID(s) of Target Chain>
8TNR,8TNQ,8TNP,8D81,8D80,8D7Z,8D7Y,8D7X,8D7W,8D7V,8D7U,8CVP,9DQD,8UH6,6BOY,6BNB,6BN9,6BN8,6BN7,6XK9,6UML,5V3O,5HXB,7U8F,8OJH,8OIZ,7LPS,4TZ4,9DJX,9DJT,8U17,8U16,8U15,8TZX,8DEY,9CUO,4M91

> <UniProt (SwissProt) Recommended Name of Target Chain>
Protein cereblon

> <UniProt (SwissProt) Entry Name of Target Chain>
CRBN_HUMAN

> <UniProt (SwissProt) Primary ID of Target Chain>
Q96SW2

> <UniProt (SwissProt) Secondary ID(s) of Target Chain>
B2R6H4 C9IZA9 C9JAH6 Q6AI62 Q6NVZ0 Q9UHW4

> <UniProt (SwissProt) Alternative ID(s) of Target Chain>


> <UniProt (TrEMBL) Submitted Name of Target Chain>


> <UniProt (TrEMBL) Entry Name of Target Chain>


> <UniProt (TrEMBL) Primary ID of Target Chain>


> <UniProt (TrEMBL) Secondary ID(s) of Target Chain>


> <UniProt (TrEMBL) Alternative ID(s) of Target Chain>


$$$$

  Mrv0541 11221423032D          

  5  4  0  0  0  0            999 V2000
    0.2119   -1.2022    0.0000 S   0  0  0  0  0  0  0  0  0  0  0  0
    0.2119   -2.0265    0.0000 O   0  0  0  0  0  0  0  0  0  0  0  0
    0.2061   -0.3778    0.0000 O   0  0  0  0  0  0  0  0  0  0  0  0
   -0.6125   -1.1564    0.0000 C   0  0  0  0  0  0  0  0  0  0  0  0
    1.1049   -1.1564    0.0000 C   0  0  0  0  0  0  0  0  0  0  0  0
  2  1  2  0  0  0  0
  3  1  2  0  0  0  0
  4  1  1  0  0  0  0
  5  1  1  0  0  0  0
M  END
> <From>
www.bindingDB.org

> <BindingDB Reactant_set_id>
50467256

> <Ligand InChI>
InChI=1S/C2H6O2S/c1-5(2,3)4/h1-2H3

> <Ligand InChI Key>
HHVIBTZHLRERCL-UHFFFAOYSA-N

> <BindingDB MonomerID>
50026473

> <BindingDB Ligand Name>
CHEMBL25028::Sulfonylbismethane::dimethyl sulfone::dimethyl sulphone::methylsulfonylmethane::sulfonyldimethane::sulphonylbismethane

> <Target Name>
Protein cereblon

> <Target Source Organism According to Curator or DataSource>
Human

> <Ki (nM)>
 137490000

> <IC50 (nM)>


> <Kd (nM)>


> <EC50 (nM)>


> <kon (M-1-s-1)>


> <koff (s-1)>


> <pH>


> <Temp C>


> <Curation/DataSource>
ChEMBL

> <Article DOI>
10.1021/acs.jmedchem.5b01735

> <BindingDB Entry DOI>
10.7270/Q2PR7XVF

> <PMID>
26730808

> <PubChem AID>


> <Patent Number>


> <Authors>
Boichenko, I; Deiss, S; Bär, K; Hartmann, MD; Hernandez Alvarez, B

> <Date of publication>
1/28/2016

> <Date in BindingDB>
6/17/2017

> <Institution>
Max Planck Institute for Developmental Biology

> <Link to Ligand in BindingDB>
http://www.bindingdb.org/bind/chemsearch/marvin/MolStructure.jsp?monomerid=50026473

> <Link to Ligand-Target Pair in BindingDB>
http://www.bindingdb.org/jsp/dbsearch/PrimarySearch_ki.jsp?energyterm=kJ/mole&tag=pol&polymerid=50007050&target=Protein+cereblon&column=ki&startPg=0&Increment=50&submit=Search

> <Link to Ligand-Target Pair in BindingDB>
http://www.bindingdb.org/jsp/dbsearch/PrimarySearch_ki.jsp?energyterm=kJ/mole&tag=r21&monomerid=50026473&enzyme=Protein+cereblon&column=ki&startPg=0&Increment=50&submit=Search

> <Ligand HET ID in PDB>


> <PDB ID(s) for Ligand-Target Complex>


> <PubChem CID of Ligand>
6213

> <PubChem SID of Ligand>
103936113

> <ChEBI ID of Ligand>
29825

> <ChEMBL ID of Ligand>
CHEMBL25028

> <DrugBank ID of Ligand>


> <IUPHAR_GRAC ID of Ligand>


> <KEGG ID of Ligand>
C11142

> <ZINC ID of Ligand>
ZINC04658606

> <Number of Protein Chains in Target (bigger than 1 implies a multichain complex)>
1

> <BindingDB Target Chain Sequence>
MAGEGDQQDAAHNMGNHLPLLPAESEEEDEMEVEDQDSKEAKKPNIINFDTSLPTSHTYLGADMEEFHGRTLHDDDSCQVIPVLPQVMMILIPGQTLPLQLFHPQEVSMVRNLIQKDRTFAVLAYSNVQEREAQFGTTAEIYAYREEQDFGIEIVKVKAIGRQRFKVLELRTQSDGIQQAKVQILPECVLPSTMSAVQLESLNKCQIFPSKPVSREDQCSYKWWQKYQKRKFHCANLTSWPRWLYSLYDAETLMDRIKKQLREWDENLKDDSLPSNPIDFSYRVAACLPIDDVLRIQLLKIGSAIQRLRCELDIMNKCTSLCCKQCQETEITTKNEIFSLSLCGPMAAYVNPHGYVHETLTVYKACNLNLIGRPSTEHSWFPGYAWTVAQCKICASHIGWKFTATKKDMSPQKFWGLTRSALLPTIPDTEDEISPDKVILCL

> <PDB ID(s) of Target Chain>
4TZ4,5HXB,5V3O,6UML,6XK9,7LPS,7U8F,8CVP,8D7U,8D7V,8D7W,8D7X,8D7Y,8D7Z,8D80,8D81,8DEY,8OIZ,8OJH

> <UniProt (SwissProt) Recommended Name of Target Chain>
Protein cereblon

> <UniProt (SwissProt) Entry Name of Target Chain>
CRBN_HUMAN

> <UniProt (SwissProt) Primary ID of Target Chain>
Q96SW2

> <UniProt (SwissProt) Secondary ID(s) of Target Chain>
B2R6H4 C9IZA9 C9JAH6 Q6AI62 Q6NVZ0 Q9UHW4

> <UniProt (SwissProt) Alternative ID(s) of Target Chain>


> <UniProt (TrEMBL) Submitted Name of Target Chain>


> <UniProt (TrEMBL) Entry Name of Target Chain>


> <UniProt (TrEMBL) Primary ID of Target Chain>


> <UniProt (TrEMBL) Secondary ID(s) of Target Chain>


> <UniProt (TrEMBL) Alternative ID(s) of Target Chain>


$$$$

  Mrv0541 11221423032D          

  4  3  0  0  0  0            999 V2000
    1.4948   -0.5804    0.0000 S   0  0  0  0  0  0  0  0  0  0  0  0
    1.4948    0.2463    0.0000 O   0  0  0  0  0  0  0  0  0  0  0  0
    0.7808   -0.9938    0.0000 C   0  0  0  0  0  0  0  0  0  0  0  0
    2.2088   -0.9938    0.0000 C   0  0  0  0  0  0  0  0  0  0  0  0
  2  1  2  0  0  0  0
  3  1  1  0  0  0  0
  4  1  1  0  0  0  0
M  END
> <From>
www.bindingDB.org

> <BindingDB Reactant_set_id>
51359681

> <Ligand InChI>
InChI=1S/C2H6OS/c1-4(2)3/h1-2H3

> <Ligand InChI Key>
IAZDPXIOMUYVGZ-UHFFFAOYSA-N

> <BindingDB MonomerID>
50026472

> <BindingDB Ligand Name>
(CH3)2SO::(methanesulfinyl)methanedimethyl sulfoxide::CHEMBL504::DIMETHYL SULFOXIDE::Dimethylsulfoxid::S(O)Me2::dimethyl sulfur oxide::dimethyl sulphoxide::dmso::methylsulfinylmethane::sulfinylbis(methane)

> <Target Name>
Protein cereblon

> <Target Source Organism According to Curator or DataSource>
Human

> <Ki (nM)>
 137000000

> <IC50 (nM)>


> <Kd (nM)>


> <EC50 (nM)>


> <kon (M-1-s-1)>


> <koff (s-1)>


> <pH>


> <Temp C>


> <Curation/DataSource>
ChEMBL

> <Article DOI>
10.1021/acsmedchemlett.0c00440

> <BindingDB Entry DOI>
10.7270/Q2WM1J1B

> <PMID>
33488967

> <PubChem AID>


> <Patent Number>


> <Authors>
Maiwald, S; Heim, C; Hernandez Alvarez, B; Hartmann, MD

> <Date of publication>
1/14/2021

> <Date in BindingDB>
3/23/2022

> <Institution>
Max Planck Institute for Developmental Biology

> <Link to Ligand in BindingDB>
http://www.bindingdb.org/bind/chemsearch/marvin/MolStructure.jsp?monomerid=50026472

> <Link to Ligand-Target Pair in BindingDB>
http://www.bindingdb.org/jsp/dbsearch/PrimarySearch_ki.jsp?energyterm=kJ/mole&tag=pol&polymerid=50007050&target=Protein+cereblon&column=ki&startPg=0&Increment=50&submit=Search

> <Link to Ligand-Target Pair in BindingDB>
http://www.bindingdb.org/jsp/dbsearch/PrimarySearch_ki.jsp?energyterm=kJ/mole&tag=r21&monomerid=50026472&enzyme=Protein+cereblon&column=ki&startPg=0&Increment=50&submit=Search

> <Ligand HET ID in PDB>
DMS

> <PDB ID(s) for Ligand-Target Complex>
5QAO,5R4M,5R4L,5R4H,5R4J,6TW6,6BJ6,6BJ7,5QH3,5QH5,4LCA,4LC4,2ZDK,5QHG,5FCR,5RL5,5RL0,5QBK,6JKE,4Q4P,4Q4M,4Q4O,3NXU,6ZOW,6F6I,6F6N,6F6S,5N34,5N37,5N31,5N33,5N39,6NRH,5N3E,5N3A,5N3L,5N3M,5N3N,5N3O,5N3H,5N3I,5N3J,5N3K,5N3T,5N3V,5N3P,5N3Q,5N3R,5N3S,5N3Y,6Q4E,6Q4J,6Q4I,7BM7,7BM1,6Q49,6I51,6TW5,7DBG,5RZK,3E9Z,5RZM,5RZ3,5RZ2,5RZ1,5RZ0,5RZ7,5RZ5,5RZ4,7LCE,7ZX2,7ABU,6QJU,7WB6,7WB7,7R3O,7R3V,5EV8,4K0Z,7A41,6E0I,3E0Q,8C77,4JKU,4JKS,5RL4,5RL1,5RL3,5RL2,5RES,5REP,6T6W,1WAY,5RE4,5RE8,6W07,6W06,3K69,6SE4,6SET,6SEX,7B6G,7B6A,7B6C,7B69,7B68,7B61,7B60,7BS9,7USK,6URW,6URX,4TRN,4TRO,1HYT,8F4T,4MKA,7V2T,4MK8,4MK7,4CV9,4CVA,6DYA,7PHZ,5RWA,5RWN,7JMQ,5RZT,3UNT,4V82,4D4S,4D4V,4D4Y,1RRC,5JFG,5JFD,5JFR,3G72,3G70,3CZJ,5JBB,5JBN,5B5E,6FBA,4FVO,6ENX,7OQQ,6B59,6B56,8B72,7ADG,3PSY,3PS1,3PS2,3PS3,4NSI,4NSH,3VD7,3VD5,3VDC,3VDA,5DDC,5DDB,5DDA,5DDF,5DDE,5DDD,5FV3,4PML,5RBO,5RBZ,5RBY,5RBX,5RBS,5RBR,5RBQ,5RBP,5RBW,5RBV,5RBU,5RBT,3R16,3R17,7Z41,7Z4S,8DOY,4D91,4D9W,3SEP,4EK2,7P51,1LJ5,3MRV,6VV1,4O0C,5JQ7,4DST,4PG8,4PG5,4PG4,4PG6,4PG1,4PG0,4YRQ,4YRP,4YRC,4YRG,4YRF,4YRE,4YRK,4YRI,4YRO,4YRN,4YRL,2WI2,5AF9,5AFY,5MRA,6GOH,6GOI,3T6I,6RKT,6RKQ,4XMI,6S9Z,6S9D,4HP7,6EED,6EEE,2ICX,2ICY,4MQY,5MWJ,4J66,7LDX,7KMC,4KFB,3Q6Y,5LHB,5LH4,3E1F,5RWF,5FY1,5FY8,5FYU,5FYI,4QTL,4QTB,3AD4,3AD5,3AD6,4CQB,5OW8,6MNH,8D4I,4DXX,4ICL,6IUP,7XM7,2AOJ,2AOC,2AOD,2AOE,6R6W,6R6Y,6R6F,6R6J,5AK3,4Z3M,5AKS,5N9R,5AKJ,5AKI,5AKH,6G2W,6G2V,6G2Z,6G2Y,6G2X,2A1E,7BS6,7BS7,7BS4,7BS5,7Q11,6XM9,6XM8,6XM7,3TFU,3TFT,5M5F,7ATM,7ATO,6QDD,3V2M,6EPN,4WW6,8A9S,7DB2,7DB0,3LUF,6ZS8,6TVE,6TV4,6BI9,6BI1,5RSX,4LBT,4LBX,4LBG,6Y73,2X7Y,5FLP,5FLS,5FLR,5FLH,5FLJ,4QO9,6YA5,6YAP,6YAO,5QI6,5QI3,4BFD,7ABJ,7ABE,6F5W,6F5U,7L2A,4DMR,7B8Y,4INH,6OPB,6OPJ,4GCB,4GCC,4GCF,4GCD,4GCE,7ZB6,6HZB,6HZC,6HZD,5S3A,5S3C,5S3E,5S3D,5S3F,5S3T,5S34,5S39,6CZU,3ZOV,3ZOU,3ZO4,6NRF,6NRI,3OGQ,4A9N,1YX9,8OKM,8OKK,7BD6,8CKS,2X80,4ZEA,4ZE6,4E43,7NZW,7NZS,7NZR,4BKR,7B6K,7A4X,7A4R,3T09,3T08,3T0A,3T0B,3T0D,6PJV,7QU5,7QU3,7QU0,7B7H,5RHA,4GV0,4GV2,4GV4,3FGD,4ZW8,8G65,8G67,8G6A,7OGI,4MDS,3EDI,3PI0,7JFY,5LWD,5LWT,5LWU,5LWR,6PWH,4U77,5RHB,5RHD,5RH8,5RH1,5RH5,5RH4,5RH7,8C5P,4ZLZ,5OLD,5OLE,4UMT,5J1X,7AB1,5RGH,5RGI,5RGJ,5RGK,5RGT,5RGU,5RGW,5RGP,5RGQ,5RGR,5RGS,5RGX,5RGY,5RG0,5RG1,5RG2,5RG3,3DJF,5JGQ,7NQW,7NQQ,7NQO,7MDP,7MDC,7MDE,7MDF,3SAX,3SAP,6SY3,5WCG,7V62,4H0B,3F8W,5B66,7BTK,5TS8,6YIS,6EO8,6EO9,7OPN,6B4Q,6B4T,6B4D,5QUS,5QUU,5Z47,5USZ,2XDU,1TZ8,5OTL,7FON,5OTP,5LBA,4XCT,1RPZ,5YZO,7CME,5RCA,5RCC,5RCE,5RCG,5RC9,5RC1,5RC2,5ILF,5ILC,4X5Z,4X5Y,7QVZ,7Z58,8EN6,3S42,3RXM,3RXL,3RXK,3RXI,3RXG,3RXF,3RXD,3RXC,3RXB,3RXV,3RXU,3RXT,3RXS,3RXR,3RXQ,3RXP,6VUY,6VUX,6VUU,5JRQ,2AQ9,7KXP,7KXQ,7KXO,7KXL,2WJP,6UEC,3TLI,7NML,5HZ8,5HZ5,5BWW,5BWX,6X9N,6OWH,6X94,4MRG,4MRF,4MRE,4MRA,4MRH,4MR6,4MR5,4J17,4J1I,4J1H,4J1K,4J1E,4J1F,4J1C,7LEV,7JR4,2ZM4,2ZM1,5FZG,5FZF,5FZE,5FZC,5FZB,5FZA,5FZM,5FZL,5FZK,5FZI,5FZH,5FZ7,5FZ6,5FZ4,5FZ3,5FZ1,5FZ0,5FZ9,5DB1,5DB0,7NKW,7MNG,3AC5,3AC4,3AC1,3AC2,3ACK,3ACJ,7MHN,7MHH,5IEQ,5IEG,7MU7,4XIK,4ID5,3WZ7,4IDK,7QBB,5MLS,5DRO,5DRP,5DRS,5DR4,5DR1,5DR0,5DR3,7B99,5SZ6,6G30,6G38,6G3A,4WNJ,4RUK,7DIJ,3TGH,2R9X,3V3M,6QED,6QEI,4FOW,4FOV,1QA7,6EQS,5RGM,4L7G,4L7H,4L7L,4L7O,4L70,6OBU,5RGO,6DMI,6BHB,6BH0,6BH1,6BH3,4LAX,7JYC,6Y4I,4OGB,4OG8,4OG6,4OG7,4OG4,4OG5,4OG3,3QTF,3N4C,5H4J,7BJ6,6U3P,4Q6E,4Q6D,4C7H,4C7I,7MHM,6GHX,6GH9,3WZ8,4IOR,7B9N,4IOO,7MHI,4YI3,6ROF,7BC9,7BCD,6I3E,5RF4,5RF2,5HLL,7R1Q,5RFL,5TTG,3ZL6,3GVB,3H6W,3H6V,3H6T,3GV9,3QYK,3QYW,3QYZ,5TMG,8EYF,8EYE,6EA2,5TMK,4LAW,6T0P,6T0E,6T0M,6YUY,4LAP,4PVO,5TBV,5TBP,5TBS,6W29,7AYW,7OVO,6B7D,6SG6,8DG1,8DG2,5MNQ,5MNR,6QHC,7QTY,3F2P,7QT9,7QT5,7QT6,7QT7,1PE7,1PE8,7OFI,7OFK,7OFD,7OFE,7OFF,7OFA,7OFB,7OFC,7OF9,4MEO,3X1J,3X1K,7AMJ,2H7Y,2H7X,7P42,7ZWX,7ZWS,7ZWQ,7ZWV,7ZWT,7ZWN,5K7T,4XU1,4U0G,5SBR,3I1A,7ZUI,7ZUJ,7ZUK,5LIV,4A5Z,5O7I,8F4U,4Y35,4Y38,4Y39,4Y3Q,4Y3R,4Y3T,4Y3X,4Y3Y,4Y3A,4Y3D,4Y3E,4Y3F,4Y3J,4Y3L,4ZY5,7LAY,3HWJ,7ZAZ,7ZAB,7NNX,5SBK,3MMX,7N8E,6SZO,6SZM,6DY7,6O1H,6XY7,3TRS,4LHH,3I3E,3I3D,4G4H,4G4C,4G4B,5LL4,7OSS,7OSP,7OSX,5QTB,5QTC,5QTA,6B37,5QT8,5QT9,5QT6,5QT7,5QT4,5QT5,5QT2,5QT1,6B3L,4MXJ,8CW2,7QLT,8BOV,5LCE,5RW5,5RW6,5RW2,5RW3,5RW8,5RWT,5RWU

> <PubChem CID of Ligand>
679

> <PubChem SID of Ligand>
103936112

> <ChEBI ID of Ligand>
28262

> <ChEMBL ID of Ligand>
CHEMBL504

> <DrugBank ID of Ligand>
DB01093

> <IUPHAR_GRAC ID of Ligand>


> <KEGG ID of Ligand>
C11143

> <ZINC ID of Ligand>
ZINC05224188

> <Number of Protein Chains in Target (bigger than 1 implies a multichain complex)>
1

> <BindingDB Target Chain Sequence>
MAGEGDQQDAAHNMGNHLPLLPAESEEEDEMEVEDQDSKEAKKPNIINFDTSLPTSHTYLGADMEEFHGRTLHDDDSCQVIPVLPQVMMILIPGQTLPLQLFHPQEVSMVRNLIQKDRTFAVLAYSNVQEREAQFGTTAEIYAYREEQDFGIEIVKVKAIGRQRFKVLELRTQSDGIQQAKVQILPECVLPSTMSAVQLESLNKCQIFPSKPVSREDQCSYKWWQKYQKRKFHCANLTSWPRWLYSLYDAETLMDRIKKQLREWDENLKDDSLPSNPIDFSYRVAACLPIDDVLRIQLLKIGSAIQRLRCELDIMNKCTSLCCKQCQETEITTKNEIFSLSLCGPMAAYVNPHGYVHETLTVYKACNLNLIGRPSTEHSWFPGYAWTVAQCKICASHIGWKFTATKKDMSPQKFWGLTRSALLPTIPDTEDEISPDKVILCL

> <PDB ID(s) of Target Chain>
4TZ4,5HXB,5V3O,6UML,6XK9,7LPS,7U8F,8CVP,8D7U,8D7V,8D7W,8D7X,8D7Y,8D7Z,8D80,8D81,8DEY,8OIZ,8OJH

> <UniProt (SwissProt) Recommended Name of Target Chain>
Protein cereblon

> <UniProt (SwissProt) Entry Name of Target Chain>
CRBN_HUMAN

> <UniProt (SwissProt) Primary ID of Target Chain>
Q96SW2

> <UniProt (SwissProt) Secondary ID(s) of Target Chain>
B2R6H4 C9IZA9 C9JAH6 Q6AI62 Q6NVZ0 Q9UHW4

> <UniProt (SwissProt) Alternative ID(s) of Target Chain>


> <UniProt (TrEMBL) Submitted Name of Target Chain>


> <UniProt (TrEMBL) Entry Name of Target Chain>


> <UniProt (TrEMBL) Primary ID of Target Chain>


> <UniProt (TrEMBL) Secondary ID(s) of Target Chain>


> <UniProt (TrEMBL) Alternative ID(s) of Target Chain>


$$$$
 
     RDKit          2D

 62 68  0  0  0  0  0  0  0  0999 V2000
   -4.4020   -1.9785    0.0000 C   0  0  0  0  0  0  0  0  0  0  0  0
   -3.6876   -1.5661    0.0000 C   0  0  0  0  0  0  0  0  0  0  0  0
   -2.9732   -1.9785    0.0000 C   0  0  0  0  0  0  0  0  0  0  0  0
   -2.9732   -2.8036    0.0000 C   0  0  0  0  0  0  0  0  0  0  0  0
   -3.6876   -3.2161    0.0000 C   0  0  0  0  0  0  0  0  0  0  0  0
   -4.4020   -2.8036    0.0000 C   0  0  0  0  0  0  0  0  0  0  0  0
   -2.2589   -1.5662    0.0000 C   0  0  0  0  0  0  0  0  0  0  0  0
   -2.2589   -0.7415    0.0000 O   0  0  0  0  0  0  0  0  0  0  0  0
   -1.5446   -1.9785    0.0000 N   0  0  0  0  0  0  0  0  0  0  0  0
   -0.8304   -1.5662    0.0000 C   0  0  0  0  0  0  0  0  0  0  0  0
   -0.1161   -1.9785    0.0000 C   0  0  0  0  0  0  0  0  0  0  0  0
    0.5981   -1.5662    0.0000 O   0  0  0  0  0  0  0  0  0  0  0  0
    1.3123   -1.9785    0.0000 C   0  0  0  0  0  0  0  0  0  0  0  0
    2.0266   -1.5662    0.0000 C   0  0  0  0  0  0  0  0  0  0  0  0
    2.7408   -1.9785    0.0000 N   0  0  0  0  0  0  0  0  0  0  0  0
    3.4551   -1.5662    0.0000 C   0  0  0  0  0  0  0  0  0  0  0  0
    4.1694   -1.9785    0.0000 C   0  0  0  0  0  0  0  0  0  0  0  0
    3.4551   -0.7415    0.0000 O   0  0  0  0  0  0  0  0  0  0  0  0
    4.8836   -1.5662    0.0000 O   0  0  0  0  0  0  0  0  0  0  0  0
    5.5978   -1.9785    0.0000 C   0  0  0  0  0  0  0  0  0  0  0  0
    6.3121   -1.5662    0.0000 C   0  0  0  0  0  0  0  0  0  0  0  0
    7.0263   -1.9785    0.0000 C   0  0  0  0  0  0  0  0  0  0  0  0
    7.0263   -2.8033    0.0000 C   0  0  0  0  0  0  0  0  0  0  0  0
    6.3121   -3.2157    0.0000 C   0  0  0  0  0  0  0  0  0  0  0  0
    5.5978   -2.8033    0.0000 C   0  0  0  0  0  0  0  0  0  0  0  0
    6.4974   -0.7451    0.0000 C   0  0  0  0  0  0  0  0  0  0  0  0
    7.2985   -0.6643    0.0000 N   0  0  0  0  0  0  0  0  0  0  0  0
    7.6305   -1.4238    0.0000 C   0  0  0  0  0  0  0  0  0  0  0  0
    7.7109    0.0499    0.0000 C   0  0  0  0  0  0  0  0  0  0  0  0
    7.2985    0.7641    0.0000 C   0  0  0  0  0  0  0  0  0  0  0  0
    7.7109    1.4783    0.0000 C   0  0  0  0  0  0  0  0  0  0  0  0
    8.5356    1.4783    0.0000 C   0  0  0  0  0  0  0  0  0  0  0  0
    8.9480    0.7641    0.0000 N   0  0  0  0  0  0  0  0  0  0  0  0
    8.5356    0.0499    0.0000 C   0  0  0  0  0  0  0  0  0  0  0  0
    8.9480   -0.6643    0.0000 O   0  0  0  0  0  0  0  0  0  0  0  0
    8.9480    2.1926    0.0000 O   0  0  0  0  0  0  0  0  0  0  0  0
    8.4271   -1.6372    0.0000 O   0  0  0  0  0  0  0  0  0  0  0  0
    5.9143   -0.1618    0.0000 O   0  0  0  0  0  0  0  0  0  0  0  0
   -5.1163   -3.2160    0.0000 N   0  0  0  0  0  0  0  0  0  0  0  0
   -5.8306   -2.8036    0.0000 C   0  0  0  0  0  0  0  0  0  0  0  0
   -6.5448   -3.2160    0.0000 O   0  0  0  0  0  0  0  0  0  0  0  0
   -5.8306   -1.9788    0.0000 C   0  0  0  0  0  0  0  0  0  0  0  0
   -6.5448   -1.5665    0.0000 C   0  0  0  0  0  0  0  0  0  0  0  0
   -6.5448   -0.7417    0.0000 C   0  0  0  0  0  0  0  0  0  0  0  0
   -5.8306   -0.3293    0.0000 C   0  0  0  0  0  0  0  0  0  0  0  0
   -5.1163   -0.7417    0.0000 N   0  0  0  0  0  0  0  0  0  0  0  0
   -5.1163   -1.5665    0.0000 C   0  0  0  0  0  0  0  0  0  0  0  0
   -7.2591   -1.9789    0.0000 N   0  0  0  0  0  0  0  0  0  0  0  0
   -7.9734   -1.5665    0.0000 C   0  0  0  0  0  0  0  0  0  0  0  0
   -8.6876   -1.9789    0.0000 C   0  0  0  0  0  0  0  0  0  0  0  0
   -7.9734   -0.7417    0.0000 C   0  0  0  0  0  0  0  0  0  0  0  0
   -5.8306    0.4953    0.0000 N   0  0  0  0  0  0  0  0  0  0  0  0
   -6.5448    0.9076    0.0000 C   0  0  0  0  0  0  0  0  0  0  0  0
   -6.3595    1.7287    0.0000 C   0  0  0  0  0  0  0  0  0  0  0  0
   -5.5584    1.8096    0.0000 C   0  0  0  0  0  0  0  0  0  0  0  0
   -5.2265    1.0501    0.0000 C   0  0  0  0  0  0  0  0  0  0  0  0
   -7.3485    0.6576    0.0000 N   0  0  0  0  0  0  0  0  0  0  0  0
   -7.9669    1.2286    0.0000 C   0  0  0  0  0  0  0  0  0  0  0  0
   -7.7815    2.0497    0.0000 C   0  0  0  0  0  0  0  0  0  0  0  0
   -6.9779    2.2998    0.0000 C   0  0  0  0  0  0  0  0  0  0  0  0
   -8.3648    2.6328    0.0000 C   0  0  0  0  0  0  0  0  0  0  0  0
   -8.9480    3.2161    0.0000 N   0  0  0  0  0  0  0  0  0  0  0  0
  1  2  1  0
  3  2  1  0
  4  3  1  0
  5  4  1  0
  1  6  1  0
  6  5  1  0
  3  7  1  1
  7  8  2  0
  7  9  1  0
  9 10  1  0
 10 11  1  0
 11 12  1  0
 12 13  1  0
 13 14  1  0
 14 15  1  0
 15 16  1  0
 16 17  1  0
 16 18  2  0
 17 19  1  0
 19 20  1  0
 21 20  1  0
 22 21  2  0
 23 22  1  0
 24 23  2  0
 25 24  1  0
 20 25  2  0
 21 26  1  0
 26 27  1  0
 28 27  1  0
 22 28  1  0
 29 27  1  0
 29 30  1  0
 31 30  1  0
 32 31  1  0
 33 32  1  0
 29 34  1  0
 34 33  1  0
 34 35  2  0
 32 36  2  0
 28 37  2  0
 26 38  2  0
  6 39  1  6
 39 40  1  0
 40 41  2  0
 40 42  1  0
 43 42  1  0
 44 43  2  0
 45 44  1  0
 46 45  2  0
 47 46  1  0
 42 47  2  0
 43 48  1  0
 48 49  1  0
 49 50  1  0
 49 51  1  0
 52 45  1  0
 52 53  1  0
 53 54  2  0
 54 55  1  0
 52 56  1  0
 56 55  2  0
 53 57  1  0
 58 57  2  0
 59 58  1  0
 60 59  2  0
 54 60  1  0
 59 61  1  0
 61 62  3  0
M  END
> <From>
www.bindingDB.org

> <BindingDB Reactant_set_id>
51549702

> <Ligand InChI>
InChI=1S/C43H46N10O9/c1-24(2)49-31-19-34(52-15-12-27-18-25(20-44)21-48-38(27)52)47-22-30(31)40(57)50-28-8-6-26(7-9-28)39(56)46-14-17-61-16-13-45-36(55)23-62-33-5-3-4-29-37(33)43(60)53(42(29)59)32-10-11-35(54)51-41(32)58/h3-5,12,15,18-19,21-22,24,26,28,32H,6-11,13-14,16-17,23H2,1-2H3,(H,45,55)(H,46,56)(H,47,49)(H,50,57)(H,51,54,58)/t26-,28-,32?

> <Ligand InChI Key>
YNNBDJQWDDDBRU-OAMJFVEXSA-N

> <BindingDB MonomerID>
50623382

> <BindingDB Ligand Name>
CHEMBL5405716

> <Target Name>
Protein cereblon

> <Target Source Organism According to Curator or DataSource>
Homo sapiens

> <Ki (nM)>


> <IC50 (nM)>


> <Kd (nM)>
 490

> <EC50 (nM)>


> <kon (M-1-s-1)>


> <koff (s-1)>


> <pH>


> <Temp C>


> <Curation/DataSource>
ChEMBL

> <Article DOI>
10.1016/j.ejmech.2023.115127

> <BindingDB Entry DOI>
10.7270/Q2CR5ZRZ

> <PMID>
36724631

> <PubChem AID>


> <Patent Number>


> <Authors>
n/a

> <Date of publication>
3/5/2023

> <Date in BindingDB>
12/17/2024

> <Institution>
n/a

> <Link to Ligand in BindingDB>
http://www.bindingdb.org/bind/chemsearch/marvin/MolStructure.jsp?monomerid=50623382

> <Link to Ligand-Target Pair in BindingDB>
http://www.bindingdb.org/jsp/dbsearch/PrimarySearch_ki.jsp?energyterm=kJ/mole&tag=pol&polymerid=50007050&target=Protein+cereblon&column=ki&startPg=0&Increment=50&submit=Search

> <Link to Ligand-Target Pair in BindingDB>
http://www.bindingdb.org/jsp/dbsearch/PrimarySearch_ki.jsp?energyterm=kJ/mole&tag=r21&monomerid=50623382&enzyme=Protein+cereblon&column=ki&startPg=0&Increment=50&submit=Search

> <Ligand HET ID in PDB>


> <PDB ID(s) for Ligand-Target Complex>


> <PubChem CID>


> <PubChem SID>


> <ChEBI ID of Ligand>


> <ChEMBL ID of Ligand>


> <DrugBank ID of Ligand>


> <IUPHAR_GRAC ID of Ligand>


> <KEGG ID of Ligand>


> <ZINC ID of Ligand>


> <Number of Protein Chains in Target (bigger than 1 implies a multichain complex)>
1

> <BindingDB Target Chain Sequence>
MAGEGDQQDAAHNMGNHLPLLPAESEEEDEMEVEDQDSKEAKKPNIINFDTSLPTSHTYLGADMEEFHGRTLHDDDSCQVIPVLPQVMMILIPGQTLPLQLFHPQEVSMVRNLIQKDRTFAVLAYSNVQEREAQFGTTAEIYAYREEQDFGIEIVKVKAIGRQRFKVLELRTQSDGIQQAKVQILPECVLPSTMSAVQLESLNKCQIFPSKPVSREDQCSYKWWQKYQKRKFHCANLTSWPRWLYSLYDAETLMDRIKKQLREWDENLKDDSLPSNPIDFSYRVAACLPIDDVLRIQLLKIGSAIQRLRCELDIMNKCTSLCCKQCQETEITTKNEIFSLSLCGPMAAYVNPHGYVHETLTVYKACNLNLIGRPSTEHSWFPGYAWTVAQCKICASHIGWKFTATKKDMSPQKFWGLTRSALLPTIPDTEDEISPDKVILCL

> <PDB ID(s) of Target Chain>
8TNR,8TNQ,8TNP,8D81,8D80,8D7Z,8D7Y,8D7X,8D7W,8D7V,8D7U,8CVP,9DQD,8UH6,6BOY,6BNB,6BN9,6BN8,6BN7,6XK9,6UML,5V3O,5HXB,7U8F,8OJH,8OIZ,7LPS,4TZ4,9DJX,9DJT,8U17,8U16,8U15,8TZX,8DEY,9CUO,4M91

> <UniProt (SwissProt) Recommended Name of Target Chain>
Protein cereblon

> <UniProt (SwissProt) Entry Name of Target Chain>
CRBN_HUMAN

> <UniProt (SwissProt) Primary ID of Target Chain>
Q96SW2

> <UniProt (SwissProt) Secondary ID(s) of Target Chain>
B2R6H4 C9IZA9 C9JAH6 Q6AI62 Q6NVZ0 Q9UHW4

> <UniProt (SwissProt) Alternative ID(s) of Target Chain>


> <UniProt (TrEMBL) Submitted Name of Target Chain>


> <UniProt (TrEMBL) Entry Name of Target Chain>


> <UniProt (TrEMBL) Primary ID of Target Chain>


> <UniProt (TrEMBL) Secondary ID(s) of Target Chain>


> <UniProt (TrEMBL) Alternative ID(s) of Target Chain>


$$$$
 
     RDKit          2D

 66 74  0  0  0  0  0  0  0  0999 V2000
   -7.3900   -2.6817    0.0000 C   0  0  0  0  0  0  0  0  0  0  0  0
   -6.6754   -2.2694    0.0000 C   0  0  0  0  0  0  0  0  0  0  0  0
   -5.9636   -2.6813    0.0000 C   0  0  0  0  0  0  0  0  0  0  0  0
   -5.9636   -3.5065    0.0000 C   0  0  0  0  0  0  0  0  0  0  0  0
   -6.6737   -3.9183    0.0000 C   0  0  0  0  0  0  0  0  0  0  0  0
   -7.3900   -3.5102    0.0000 C   0  0  0  0  0  0  0  0  0  0  0  0
   -8.1019   -2.2698    0.0000 C   0  0  0  0  0  0  0  0  0  0  0  0
   -8.1019   -1.4447    0.0000 C   0  0  0  0  0  0  0  0  0  0  0  0
   -7.3918   -1.0329    0.0000 C   0  0  0  0  0  0  0  0  0  0  0  0
   -6.6754   -1.4410    0.0000 C   0  0  0  0  0  0  0  0  0  0  0  0
   -5.9608   -1.0283    0.0000 C   0  0  0  0  0  0  0  0  0  0  0  0
   -5.9606   -0.2031    0.0000 C   0  0  0  0  0  0  0  0  0  0  0  0
   -5.2477    0.2075    0.0000 C   0  0  0  0  0  0  0  0  0  0  0  0
   -4.5328   -0.2051    0.0000 C   0  0  0  0  0  0  0  0  0  0  0  0
   -4.5313   -1.0262    0.0000 C   0  0  0  0  0  0  0  0  0  0  0  0
   -5.2431   -1.4427    0.0000 C   0  0  0  0  0  0  0  0  0  0  0  0
   -3.8245    0.2050    0.0000 C   0  0  0  0  0  0  0  0  0  0  0  0
   -3.1123   -0.2040    0.0000 N   0  0  0  0  0  0  0  0  0  0  0  0
   -3.1090   -1.0210    0.0000 C   0  0  0  0  0  0  0  0  0  0  0  0
   -3.8163   -1.4369    0.0000 N   0  0  0  0  0  0  0  0  0  0  0  0
   -3.8245    1.0301    0.0000 N   0  0  0  0  0  0  0  0  0  0  0  0
   -4.5391    1.4427    0.0000 C   0  0  0  0  0  0  0  0  0  0  0  0
   -4.5391    2.2679    0.0000 C   0  0  0  0  0  0  0  0  0  0  0  0
   -3.8245    2.6805    0.0000 N   0  0  0  0  0  0  0  0  0  0  0  0
   -3.1098    2.2679    0.0000 C   0  0  0  0  0  0  0  0  0  0  0  0
   -3.1098    1.4427    0.0000 C   0  0  0  0  0  0  0  0  0  0  0  0
   -8.8165   -1.0320    0.0000 O   0  0  0  0  0  0  0  0  0  0  0  0
   -5.2431   -2.2679    0.0000 F   0  0  0  0  0  0  0  0  0  0  0  0
   -6.6752    0.2094    0.0000 Cl  0  0  0  0  0  0  0  0  0  0  0  0
   -3.8245    3.5057    0.0000 C   0  0  0  0  0  0  0  0  0  0  0  0
   -4.5391    3.9183    0.0000 O   0  0  0  0  0  0  0  0  0  0  0  0
   -3.1098    3.9183    0.0000 C   0  0  0  0  0  0  0  0  0  0  0  0
   -2.3952    3.5057    0.0000 C   0  0  0  0  0  0  0  0  0  0  0  0
   -2.3943   -1.4336    0.0000 N   0  0  0  0  0  0  0  0  0  0  0  0
   -1.6797   -1.0210    0.0000 C   0  0  0  0  0  0  0  0  0  0  0  0
   -0.9650   -1.4336    0.0000 C   0  0  0  0  0  0  0  0  0  0  0  0
   -0.2504   -1.0210    0.0000 C   0  0  0  0  0  0  0  0  0  0  0  0
    0.4641   -1.4336    0.0000 N   0  0  0  0  0  0  0  0  0  0  0  0
    1.1787   -1.0210    0.0000 C   0  0  0  0  0  0  0  0  0  0  0  0
    1.8934   -1.4336    0.0000 C   0  0  0  0  0  0  0  0  0  0  0  0
    1.8934   -2.2588    0.0000 N   0  0  0  0  0  0  0  0  0  0  0  0
    1.1787   -2.6714    0.0000 C   0  0  0  0  0  0  0  0  0  0  0  0
    0.4641   -2.2588    0.0000 C   0  0  0  0  0  0  0  0  0  0  0  0
    2.6080   -2.6714    0.0000 C   0  0  0  0  0  0  0  0  0  0  0  0
    3.3226   -2.2588    0.0000 C   0  0  0  0  0  0  0  0  0  0  0  0
    4.0373   -2.6714    0.0000 C   0  0  0  0  0  0  0  0  0  0  0  0
    4.7519   -2.2588    0.0000 N   0  0  0  0  0  0  0  0  0  0  0  0
    5.4665   -2.6714    0.0000 C   0  0  0  0  0  0  0  0  0  0  0  0
    6.1813   -2.2589    0.0000 C   0  0  0  0  0  0  0  0  0  0  0  0
    6.8935   -2.6709    0.0000 C   0  0  0  0  0  0  0  0  0  0  0  0
    6.8935   -3.4964    0.0000 C   0  0  0  0  0  0  0  0  0  0  0  0
    6.1832   -3.9083    0.0000 C   0  0  0  0  0  0  0  0  0  0  0  0
    5.4665   -3.5001    0.0000 C   0  0  0  0  0  0  0  0  0  0  0  0
    6.3670   -1.4401    0.0000 C   0  0  0  0  0  0  0  0  0  0  0  0
    7.1662   -1.3602    0.0000 N   0  0  0  0  0  0  0  0  0  0  0  0
    7.4966   -2.1181    0.0000 C   0  0  0  0  0  0  0  0  0  0  0  0
    5.7835   -0.8566    0.0000 O   0  0  0  0  0  0  0  0  0  0  0  0
    8.2937   -2.3317    0.0000 O   0  0  0  0  0  0  0  0  0  0  0  0
    7.5787   -0.6455    0.0000 C   0  0  0  0  0  0  0  0  0  0  0  0
    7.1662    0.0690    0.0000 C   0  0  0  0  0  0  0  0  0  0  0  0
    7.5787    0.7836    0.0000 N   0  0  0  0  0  0  0  0  0  0  0  0
    8.4040    0.7836    0.0000 C   0  0  0  0  0  0  0  0  0  0  0  0
    8.8165    0.0690    0.0000 C   0  0  0  0  0  0  0  0  0  0  0  0
    8.4040   -0.6455    0.0000 C   0  0  0  0  0  0  0  0  0  0  0  0
    6.3409    0.0690    0.0000 O   0  0  0  0  0  0  0  0  0  0  0  0
    8.8165    1.4982    0.0000 O   0  0  0  0  0  0  0  0  0  0  0  0
  2  1  2  0
  3  2  1  0
  4  3  2  0
  5  4  1  0
  1  6  1  0
  6  5  2  0
  1  7  1  0
  8  7  2  0
  9  8  1  0
 10  9  2  0
  2 10  1  0
 11 10  1  0
 12 11  2  0
 13 12  1  0
 14 13  2  0
 15 14  1  0
 11 16  1  0
 16 15  2  0
 14 17  1  0
 18 17  2  0
 19 18  1  0
 20 19  2  0
 15 20  1  0
 21 17  1  0
 21 22  1  0
 23 22  1  0
 24 23  1  0
 25 24  1  0
 21 26  1  0
 26 25  1  0
  8 27  1  0
 16 28  1  0
 12 29  1  0
 24 30  1  0
 30 31  2  0
 30 32  1  0
 32 33  2  0
 19 34  1  0
 34 35  1  0
 35 36  1  0
 36 37  1  0
 37 38  1  0
 39 38  1  0
 40 39  1  0
 41 40  1  0
 42 41  1  0
 43 42  1  0
 38 43  1  0
 41 44  1  0
 44 45  1  0
 45 46  1  0
 46 47  1  0
 47 48  1  0
 49 48  2  0
 50 49  1  0
 51 50  2  0
 52 51  1  0
 53 52  2  0
 48 53  1  0
 49 54  1  0
 54 55  1  0
 56 55  1  0
 50 56  1  0
 54 57  2  0
 56 58  2  0
 55 59  1  0
 60 59  1  0
 61 60  1  0
 62 61  1  0
 63 62  1  0
 64 63  1  0
 59 64  1  0
 60 65  2  0
 62 66  2  0
M  END
> <From>
www.bindingDB.org

> <BindingDB Reactant_set_id>
50059053

> <Ligand InChI>
InChI=1S/C19H29N5O8S/c1-30-8-7-24(12-17(25)26)18(27)14(3-2-6-22-19(20)21)23-33(28,29)13-4-5-15-16(11-13)32-10-9-31-15/h4-5,11,14,23H,2-3,6-10,12H2,1H3,(H,25,26)(H4,20,21,22)

> <Ligand InChI Key>
JSYDATVLSRQWAZ-UHFFFAOYSA-N

> <BindingDB MonomerID>
50404378

> <BindingDB Ligand Name>
CHEMBL5275511

> <Target Name>
Protein cereblon

> <Target Source Organism According to Curator or DataSource>
Human

> <Ki (nM)>


> <IC50 (nM)>


> <Kd (nM)>


> <EC50 (nM)>
 79

> <kon (M-1-s-1)>


> <koff (s-1)>


> <pH>


> <Temp C>


> <Curation/DataSource>
ChEMBL

> <Article DOI>


> <BindingDB Entry DOI>
10.7270/Q2833X64

> <PMID>
35763424

> <PubChem AID>


> <Patent Number>


> <Authors>
n/a

> <Date of publication>
7/14/2022

> <Date in BindingDB>
4/18/2024

> <Institution>
n/a

> <Link to Ligand in BindingDB>
http://www.bindingdb.org/bind/chemsearch/marvin/MolStructure.jsp?monomerid=50404378

> <Link to Ligand-Target Pair in BindingDB>
http://www.bindingdb.org/jsp/dbsearch/PrimarySearch_ki.jsp?energyterm=kJ/mole&tag=pol&polymerid=50007050&target=Protein+cereblon&column=ki&startPg=0&Increment=50&submit=Search

> <Link to Ligand-Target Pair in BindingDB>
http://www.bindingdb.org/jsp/dbsearch/PrimarySearch_ki.jsp?energyterm=kJ/mole&tag=r21&monomerid=50404378&enzyme=Protein+cereblon&column=ki&startPg=0&Increment=50&submit=Search

> <Ligand HET ID in PDB>


> <PDB ID(s) for Ligand-Target Complex>


> <PubChem CID of Ligand>
44459536

> <PubChem SID of Ligand>
163353402

> <ChEBI ID of Ligand>


> <ChEMBL ID of Ligand>
CHEMBL281766

> <DrugBank ID of Ligand>


> <IUPHAR_GRAC ID of Ligand>


> <KEGG ID of Ligand>


> <ZINC ID of Ligand>
ZINC28755476

> <Number of Protein Chains in Target (bigger than 1 implies a multichain complex)>
1

> <BindingDB Target Chain Sequence>
MAGEGDQQDAAHNMGNHLPLLPAESEEEDEMEVEDQDSKEAKKPNIINFDTSLPTSHTYLGADMEEFHGRTLHDDDSCQVIPVLPQVMMILIPGQTLPLQLFHPQEVSMVRNLIQKDRTFAVLAYSNVQEREAQFGTTAEIYAYREEQDFGIEIVKVKAIGRQRFKVLELRTQSDGIQQAKVQILPECVLPSTMSAVQLESLNKCQIFPSKPVSREDQCSYKWWQKYQKRKFHCANLTSWPRWLYSLYDAETLMDRIKKQLREWDENLKDDSLPSNPIDFSYRVAACLPIDDVLRIQLLKIGSAIQRLRCELDIMNKCTSLCCKQCQETEITTKNEIFSLSLCGPMAAYVNPHGYVHETLTVYKACNLNLIGRPSTEHSWFPGYAWTVAQCKICASHIGWKFTATKKDMSPQKFWGLTRSALLPTIPDTEDEISPDKVILCL

> <PDB ID(s) of Target Chain>
4TZ4,5HXB,5V3O,6UML,6XK9,7LPS,7U8F,8CVP,8D7U,8D7V,8D7W,8D7X,8D7Y,8D7Z,8D80,8D81,8DEY,8OIZ,8OJH,8U15,8U16,8U17

> <UniProt (SwissProt) Recommended Name of Target Chain>
Protein cereblon

> <UniProt (SwissProt) Entry Name of Target Chain>
CRBN_HUMAN

> <UniProt (SwissProt) Primary ID of Target Chain>
Q96SW2

> <UniProt (SwissProt) Secondary ID(s) of Target Chain>
B2R6H4 C9IZA9 C9JAH6 Q6AI62 Q6NVZ0 Q9UHW4

> <UniProt (SwissProt) Alternative ID(s) of Target Chain>


> <UniProt (TrEMBL) Submitted Name of Target Chain>


> <UniProt (TrEMBL) Entry Name of Target Chain>


> <UniProt (TrEMBL) Primary ID of Target Chain>


> <UniProt (TrEMBL) Secondary ID(s) of Target Chain>


> <UniProt (TrEMBL) Alternative ID(s) of Target Chain>


$$$$
 
     RDKit          2D

 86 94  0  0  0  0  0  0  0  0999 V2000
    3.0044    2.2730    0.0000 C   0  0  0  0  0  0  0  0  0  0  0  0
    2.2900    2.6856    0.0000 C   0  0  0  0  0  0  0  0  0  0  0  0
    1.5755    2.2730    0.0000 N   0  0  0  0  0  0  0  0  0  0  0  0
    0.8610    2.6856    0.0000 C   0  0  0  0  0  0  0  0  0  0  0  0
    0.1465    2.2730    0.0000 C   0  0  0  0  0  0  0  0  0  0  0  0
    0.8610    3.5106    0.0000 O   0  0  0  0  0  0  0  0  0  0  0  0
   -0.5663    1.0374    0.0000 N   0  0  0  0  0  0  0  0  0  0  0  0
    0.1463    1.4480    0.0000 C   0  0  0  0  0  0  0  0  0  0  0  0
   -1.2810    1.4500    0.0000 C   0  0  0  0  0  0  0  0  0  0  0  0
   -1.2825    2.2709    0.0000 C   0  0  0  0  0  0  0  0  0  0  0  0
   -0.5709    2.6873    0.0000 N   0  0  0  0  0  0  0  0  0  0  0  0
   -1.9955    1.0375    0.0000 C   0  0  0  0  0  0  0  0  0  0  0  0
   -1.9955    0.2125    0.0000 O   0  0  0  0  0  0  0  0  0  0  0  0
   -2.7099    1.4500    0.0000 N   0  0  0  0  0  0  0  0  0  0  0  0
   -3.4244    1.0375    0.0000 C   0  0  0  0  0  0  0  0  0  0  0  0
   -4.1389    1.4500    0.0000 C   0  0  0  0  0  0  0  0  0  0  0  0
   -3.4244    0.2125    0.0000 C   0  0  0  0  0  0  0  0  0  0  0  0
   -4.8533    1.0375    0.0000 N   0  0  0  0  0  0  0  0  0  0  0  0
   -4.1389    2.2750    0.0000 O   0  0  0  0  0  0  0  0  0  0  0  0
   -5.5679    1.4500    0.0000 C   0  0  0  0  0  0  0  0  0  0  0  0
   -6.2823    1.0375    0.0000 C   0  0  0  0  0  0  0  0  0  0  0  0
   -6.9968    1.4500    0.0000 N   0  0  0  0  0  0  0  0  0  0  0  0
   -6.2823    0.2125    0.0000 O   0  0  0  0  0  0  0  0  0  0  0  0
   -7.7501    1.1146    0.0000 C   0  0  0  0  0  0  0  0  0  0  0  0
   -8.3019    1.7275    0.0000 C   0  0  0  0  0  0  0  0  0  0  0  0
   -7.8896    2.4416    0.0000 C   0  0  0  0  0  0  0  0  0  0  0  0
   -7.0830    2.2701    0.0000 C   0  0  0  0  0  0  0  0  0  0  0  0
   -9.1084    1.8989    0.0000 C   0  0  0  0  0  0  0  0  0  0  0  0
   -9.1946    2.7190    0.0000 C   0  0  0  0  0  0  0  0  0  0  0  0
   -8.4413    3.0543    0.0000 C   0  0  0  0  0  0  0  0  0  0  0  0
   -5.5679    2.2750    0.0000 C   0  0  0  0  0  0  0  0  0  0  0  0
   -6.2823    2.6875    0.0000 C   0  0  0  0  0  0  0  0  0  0  0  0
   -4.8533    2.6875    0.0000 C   0  0  0  0  0  0  0  0  0  0  0  0
   -5.5679    3.1000    0.0000 C   0  0  0  0  0  0  0  0  0  0  0  0
   -2.7100   -1.0249    0.0000 C   0  0  0  0  0  0  0  0  0  0  0  0
   -2.7099   -0.1999    0.0000 C   0  0  0  0  0  0  0  0  0  0  0  0
   -3.4244   -1.4373    0.0000 C   0  0  0  0  0  0  0  0  0  0  0  0
   -4.1389   -1.0249    0.0000 C   0  0  0  0  0  0  0  0  0  0  0  0
   -4.1389   -0.1999    0.0000 C   0  0  0  0  0  0  0  0  0  0  0  0
   -7.9636    0.3177    0.0000 C   0  0  0  0  0  0  0  0  0  0  0  0
   -7.3802   -0.2656    0.0000 O   0  0  0  0  0  0  0  0  0  0  0  0
   -8.7605    0.1042    0.0000 N   0  0  0  0  0  0  0  0  0  0  0  0
   -8.9740   -0.6926    0.0000 C   0  0  0  0  0  0  0  0  0  0  0  0
   -9.7709   -0.9061    0.0000 C   0  0  0  0  0  0  0  0  0  0  0  0
   -8.3907   -1.2759    0.0000 C   0  0  0  0  0  0  0  0  0  0  0  0
   -7.5938   -1.0625    0.0000 C   0  0  0  0  0  0  0  0  0  0  0  0
   -7.0104   -1.6458    0.0000 C   0  0  0  0  0  0  0  0  0  0  0  0
   -9.9844   -1.7030    0.0000 C   0  0  0  0  0  0  0  0  0  0  0  0
  -10.3542   -0.3227    0.0000 O   0  0  0  0  0  0  0  0  0  0  0  0
   -9.4011   -2.2864    0.0000 O   0  0  0  0  0  0  0  0  0  0  0  0
  -10.7813   -1.9165    0.0000 N   0  0  0  0  0  0  0  0  0  0  0  0
  -10.9948   -2.7134    0.0000 C   0  0  0  0  0  0  0  0  0  0  0  0
  -11.5793   -3.2979    0.0000 C   0  0  0  0  0  0  0  0  0  0  0  0
  -10.7822   -3.5106    0.0000 C   0  0  0  0  0  0  0  0  0  0  0  0
   -8.7144    1.0129    0.0000 H   0  0  0  0  0  0  0  0  0  0  0  0
   -7.6761    3.2385    0.0000 H   0  0  0  0  0  0  0  0  0  0  0  0
    3.7189    2.6856    0.0000 O   0  0  0  0  0  0  0  0  0  0  0  0
    4.4334    2.2730    0.0000 C   0  0  0  0  0  0  0  0  0  0  0  0
    5.1479    2.6856    0.0000 C   0  0  0  0  0  0  0  0  0  0  0  0
    5.8624    2.2730    0.0000 O   0  0  0  0  0  0  0  0  0  0  0  0
    6.5768    2.6856    0.0000 C   0  0  0  0  0  0  0  0  0  0  0  0
    7.2913    2.2730    0.0000 C   0  0  0  0  0  0  0  0  0  0  0  0
    8.0058    2.6856    0.0000 O   0  0  0  0  0  0  0  0  0  0  0  0
    8.7203    2.2730    0.0000 C   0  0  0  0  0  0  0  0  0  0  0  0
    9.4349    2.6854    0.0000 C   0  0  0  0  0  0  0  0  0  0  0  0
   10.1469    2.2734    0.0000 C   0  0  0  0  0  0  0  0  0  0  0  0
   10.1469    1.4482    0.0000 C   0  0  0  0  0  0  0  0  0  0  0  0
    9.4367    1.0363    0.0000 C   0  0  0  0  0  0  0  0  0  0  0  0
    8.7203    1.4445    0.0000 C   0  0  0  0  0  0  0  0  0  0  0  0
   10.8596    2.6844    0.0000 C   0  0  0  0  0  0  0  0  0  0  0  0
   11.5746    2.2718    0.0000 C   0  0  0  0  0  0  0  0  0  0  0  0
   11.5764    1.4508    0.0000 C   0  0  0  0  0  0  0  0  0  0  0  0
   10.8647    1.0340    0.0000 C   0  0  0  0  0  0  0  0  0  0  0  0
   10.8649    0.2053    0.0000 C   0  0  0  0  0  0  0  0  0  0  0  0
   10.1473   -0.2092    0.0000 N   0  0  0  0  0  0  0  0  0  0  0  0
    9.4295    0.2049    0.0000 C   0  0  0  0  0  0  0  0  0  0  0  0
    8.7149   -0.2075    0.0000 O   0  0  0  0  0  0  0  0  0  0  0  0
   11.5793   -0.2071    0.0000 O   0  0  0  0  0  0  0  0  0  0  0  0
   10.1473   -1.0342    0.0000 C   0  0  0  0  0  0  0  0  0  0  0  0
   10.8617   -1.4466    0.0000 C   0  0  0  0  0  0  0  0  0  0  0  0
   10.8617   -2.2716    0.0000 N   0  0  0  0  0  0  0  0  0  0  0  0
   10.1473   -2.6842    0.0000 C   0  0  0  0  0  0  0  0  0  0  0  0
    9.4328   -2.2717    0.0000 C   0  0  0  0  0  0  0  0  0  0  0  0
    9.4328   -1.4467    0.0000 C   0  0  0  0  0  0  0  0  0  0  0  0
   11.5762   -1.0342    0.0000 O   0  0  0  0  0  0  0  0  0  0  0  0
   10.1473   -3.5092    0.0000 O   0  0  0  0  0  0  0  0  0  0  0  0
  1  2  1  0
  2  3  1  0
  3  4  1  0
  4  5  1  0
  4  6  2  0
  7  8  1  0
  8  5  2  0
  9  7  2  0
 10  9  1  0
 11 10  2  0
  5 11  1  0
  9 12  1  0
 12 13  2  0
 12 14  1  0
 14 15  1  0
 15 16  1  0
 15 17  1  1
 16 18  1  0
 16 19  2  0
 18 20  1  0
 20 21  1  0
 21 22  1  0
 21 23  2  0
 24 22  1  0
 24 25  1  0
 25 26  1  0
 26 27  1  0
 27 22  1  0
 25 28  1  0
 28 29  1  0
 29 30  1  0
 26 30  1  0
 20 31  1  6
 31 32  1  0
 31 33  1  0
 31 34  1  0
 35 36  1  0
 36 17  1  0
 37 35  1  0
 38 37  1  0
 39 38  1  0
 17 39  1  0
 24 40  1  6
 40 41  2  0
 40 42  1  0
 42 43  1  0
 43 44  1  0
 43 45  1  1
 45 46  1  0
 46 47  1  0
 44 48  1  0
 44 49  2  0
 48 50  2  0
 48 51  1  0
 51 52  1  0
 53 52  1  0
 53 54  1  0
 52 54  1  0
 25 55  1  6
 26 56  1  6
  1 57  1  0
 57 58  1  0
 58 59  1  0
 59 60  1  0
 60 61  1  0
 61 62  1  0
 62 63  1  0
 63 64  1  0
 65 64  2  0
 66 65  1  0
 67 66  2  0
 68 67  1  0
 69 68  2  0
 64 69  1  0
 66 70  1  0
 71 70  2  0
 72 71  1  0
 73 72  2  0
 67 73  1  0
 73 74  1  0
 75 74  1  0
 76 75  1  0
 68 76  1  0
 76 77  2  0
 74 78  2  0
 75 79  1  0
 80 79  1  0
 81 80  1  0
 82 81  1  0
 83 82  1  0
 84 83  1  0
 79 84  1  0
 80 85  2  0
 82 86  2  0
M  END
> <From>
www.bindingDB.org

> <BindingDB Reactant_set_id>
50059054

> <Ligand InChI>
InChI=1S/C25H35N5O6S/c1-16-11-18-7-8-21(13-19(18)12-17(16)2)37(34,35)29-22(6-3-9-28-25(26)27)24(33)30(15-23(31)32)14-20-5-4-10-36-20/h7-8,11-13,20,22,29H,3-6,9-10,14-15H2,1-2H3,(H,31,32)(H4,26,27,28)

> <Ligand InChI Key>
KATDIJLOMDQANH-UHFFFAOYSA-N

> <BindingDB MonomerID>
50404379

> <BindingDB Ligand Name>
CHEMBL5184599

> <Target Name>
Protein cereblon

> <Target Source Organism According to Curator or DataSource>
Human

> <Ki (nM)>


> <IC50 (nM)>


> <Kd (nM)>


> <EC50 (nM)>
 703

> <kon (M-1-s-1)>


> <koff (s-1)>


> <pH>


> <Temp C>


> <Curation/DataSource>
ChEMBL

> <Article DOI>


> <BindingDB Entry DOI>
10.7270/Q2833X64

> <PMID>
35763424

> <PubChem AID>


> <Patent Number>


> <Authors>
n/a

> <Date of publication>
7/14/2022

> <Date in BindingDB>
4/18/2024

> <Institution>
n/a

> <Link to Ligand in BindingDB>
http://www.bindingdb.org/bind/chemsearch/marvin/MolStructure.jsp?monomerid=50404379

> <Link to Ligand-Target Pair in BindingDB>
http://www.bindingdb.org/jsp/dbsearch/PrimarySearch_ki.jsp?energyterm=kJ/mole&tag=pol&polymerid=50007050&target=Protein+cereblon&column=ki&startPg=0&Increment=50&submit=Search

> <Link to Ligand-Target Pair in BindingDB>
http://www.bindingdb.org/jsp/dbsearch/PrimarySearch_ki.jsp?energyterm=kJ/mole&tag=r21&monomerid=50404379&enzyme=Protein+cereblon&column=ki&startPg=0&Increment=50&submit=Search

> <Ligand HET ID in PDB>


> <PDB ID(s) for Ligand-Target Complex>


> <PubChem CID of Ligand>
44459786

> <PubChem SID of Ligand>
163353403

> <ChEBI ID of Ligand>


> <ChEMBL ID of Ligand>
CHEMBL26161

> <DrugBank ID of Ligand>


> <IUPHAR_GRAC ID of Ligand>


> <KEGG ID of Ligand>


> <ZINC ID of Ligand>
ZINC28756387

> <Number of Protein Chains in Target (bigger than 1 implies a multichain complex)>
1

> <BindingDB Target Chain Sequence>
MAGEGDQQDAAHNMGNHLPLLPAESEEEDEMEVEDQDSKEAKKPNIINFDTSLPTSHTYLGADMEEFHGRTLHDDDSCQVIPVLPQVMMILIPGQTLPLQLFHPQEVSMVRNLIQKDRTFAVLAYSNVQEREAQFGTTAEIYAYREEQDFGIEIVKVKAIGRQRFKVLELRTQSDGIQQAKVQILPECVLPSTMSAVQLESLNKCQIFPSKPVSREDQCSYKWWQKYQKRKFHCANLTSWPRWLYSLYDAETLMDRIKKQLREWDENLKDDSLPSNPIDFSYRVAACLPIDDVLRIQLLKIGSAIQRLRCELDIMNKCTSLCCKQCQETEITTKNEIFSLSLCGPMAAYVNPHGYVHETLTVYKACNLNLIGRPSTEHSWFPGYAWTVAQCKICASHIGWKFTATKKDMSPQKFWGLTRSALLPTIPDTEDEISPDKVILCL

> <PDB ID(s) of Target Chain>
4TZ4,5HXB,5V3O,6UML,6XK9,7LPS,7U8F,8CVP,8D7U,8D7V,8D7W,8D7X,8D7Y,8D7Z,8D80,8D81,8DEY,8OIZ,8OJH,8U15,8U16,8U17

> <UniProt (SwissProt) Recommended Name of Target Chain>
Protein cereblon

> <UniProt (SwissProt) Entry Name of Target Chain>
CRBN_HUMAN

> <UniProt (SwissProt) Primary ID of Target Chain>
Q96SW2

> <UniProt (SwissProt) Secondary ID(s) of Target Chain>
B2R6H4 C9IZA9 C9JAH6 Q6AI62 Q6NVZ0 Q9UHW4

> <UniProt (SwissProt) Alternative ID(s) of Target Chain>


> <UniProt (TrEMBL) Submitted Name of Target Chain>


> <UniProt (TrEMBL) Entry Name of Target Chain>


> <UniProt (TrEMBL) Primary ID of Target Chain>


> <UniProt (TrEMBL) Secondary ID(s) of Target Chain>


> <UniProt (TrEMBL) Alternative ID(s) of Target Chain>


$$$$

     RDKit          2D

 65 72  0  0  0  0  0  0  0  0999 V2000
   19.3575   -7.4978    0.0000 C   0  0  0  0  0  0  0  0  0  0  0  0
   20.0771   -7.9032    0.0000 C   0  0  0  0  0  0  0  0  0  0  0  0
   20.7856   -7.4821    0.0000 C   0  0  0  0  0  0  0  0  0  0  0  0
   20.7753   -6.6563    0.0000 C   0  0  0  0  0  0  0  0  0  0  0  0
   19.3450   -6.6768    0.0000 C   0  0  0  0  0  0  0  0  0  0  0  0
   20.0485   -6.2534    0.0000 C   0  0  0  0  0  0  0  0  0  0  0  0
   19.8633   -5.4534    0.0000 C   0  0  0  0  0  0  0  0  0  0  0  0
   19.0452   -5.3824    0.0000 N   0  0  0  0  0  0  0  0  0  0  0  0
   18.7250   -6.1384    0.0000 C   0  0  0  0  0  0  0  0  0  0  0  0
   17.9212   -6.3245    0.0000 O   0  0  0  0  0  0  0  0  0  0  0  0
   20.4042   -4.8305    0.0000 O   0  0  0  0  0  0  0  0  0  0  0  0
   18.6198   -4.6765    0.0000 C   0  0  0  0  0  0  0  0  0  0  0  0
   19.0214   -3.9549    0.0000 C   0  0  0  0  0  0  0  0  0  0  0  0
   18.5996   -3.2500    0.0000 N   0  0  0  0  0  0  0  0  0  0  0  0
   17.7743   -3.2607    0.0000 C   0  0  0  0  0  0  0  0  0  0  0  0
   17.3726   -3.9824    0.0000 C   0  0  0  0  0  0  0  0  0  0  0  0
   17.7963   -4.6935    0.0000 C   0  0  0  0  0  0  0  0  0  0  0  0
   19.8463   -3.9419    0.0000 O   0  0  0  0  0  0  0  0  0  0  0  0
   17.3516   -2.5523    0.0000 O   0  0  0  0  0  0  0  0  0  0  0  0
    7.2810   -5.7429    0.0000 N   0  0  0  0  0  0  0  0  0  0  0  0
    7.3175   -4.9136    0.0000 C   0  0  0  0  0  0  0  0  0  0  0  0
    6.6302   -4.4691    0.0000 C   0  0  0  0  0  0  0  0  0  0  0  0
    5.8265   -4.6694    0.0000 C   0  0  0  0  0  0  0  0  0  0  0  0
    5.2533   -4.0755    0.0000 C   0  0  0  0  0  0  0  0  0  0  0  0
    4.4326   -4.1571    0.0000 N   0  0  0  0  0  0  0  0  0  0  0  0
    3.9895   -4.8458    0.0000 C   0  0  0  0  0  0  0  0  0  0  0  0
    3.1589   -4.8416    0.0000 S   0  0  0  0  0  0  0  0  0  0  0  0
    2.9001   -5.6245    0.0000 C   0  0  0  0  0  0  0  0  0  0  0  0
    3.5600   -6.1054    0.0000 C   0  0  0  0  0  0  0  0  0  0  0  0
    4.2337   -5.6245    0.0000 C   0  0  0  0  0  0  0  0  0  0  0  0
    5.0135   -5.9080    0.0000 C   0  0  0  0  0  0  0  0  0  0  0  0
    5.0314   -6.7377    0.0000 C   0  0  0  0  0  0  0  0  0  0  0  0
    4.3268   -7.1667    0.0000 C   0  0  0  0  0  0  0  0  0  0  0  0
    4.3497   -7.9894    0.0000 C   0  0  0  0  0  0  0  0  0  0  0  0
    5.0777   -8.3843    0.0000 C   0  0  0  0  0  0  0  0  0  0  0  0
    5.7760   -7.9518    0.0000 C   0  0  0  0  0  0  0  0  0  0  0  0
    5.7565   -7.1316    0.0000 C   0  0  0  0  0  0  0  0  0  0  0  0
    5.1030   -9.2162    0.0000 Cl  0  0  0  0  0  0  0  0  0  0  0  0
    5.7208   -5.4839    0.0000 N   0  0  0  0  0  0  0  0  0  0  0  0
    3.5400   -6.9355    0.0000 C   0  0  0  0  0  0  0  0  0  0  0  0
    2.1079   -5.8867    0.0000 C   0  0  0  0  0  0  0  0  0  0  0  0
    4.1058   -3.4069    0.0000 C   0  0  0  0  0  0  0  0  0  0  0  0
    4.7165   -2.8590    0.0000 N   0  0  0  0  0  0  0  0  0  0  0  0
    5.4296   -3.2763    0.0000 N   0  0  0  0  0  0  0  0  0  0  0  0
    3.2890   -3.2301    0.0000 C   0  0  0  0  0  0  0  0  0  0  0  0
    8.0547   -4.5364    0.0000 O   0  0  0  0  0  0  0  0  0  0  0  0
    7.9766   -6.1864    0.0000 C   0  0  0  0  0  0  0  0  0  0  0  0
    7.9361   -7.0085    0.0000 C   0  0  0  0  0  0  0  0  0  0  0  0
    8.6309   -7.4519    0.0000 C   0  0  0  0  0  0  0  0  0  0  0  0
    9.3639   -7.0712    0.0000 C   0  0  0  0  0  0  0  0  0  0  0  0
    9.3977   -6.2427    0.0000 C   0  0  0  0  0  0  0  0  0  0  0  0
    8.7021   -5.8029    0.0000 C   0  0  0  0  0  0  0  0  0  0  0  0
   10.0601   -7.5138    0.0000 O   0  0  0  0  0  0  0  0  0  0  0  0
   10.7915   -7.1322    0.0000 C   0  0  0  0  0  0  0  0  0  0  0  0
   11.4878   -7.5748    0.0000 C   0  0  0  0  0  0  0  0  0  0  0  0
   12.2192   -7.1931    0.0000 O   0  0  0  0  0  0  0  0  0  0  0  0
   12.9154   -7.6357    0.0000 C   0  0  0  0  0  0  0  0  0  0  0  0
   13.6468   -7.2541    0.0000 C   0  0  0  0  0  0  0  0  0  0  0  0
   14.3430   -7.6966    0.0000 O   0  0  0  0  0  0  0  0  0  0  0  0
   15.0745   -7.3149    0.0000 C   0  0  0  0  0  0  0  0  0  0  0  0
   15.7708   -7.7575    0.0000 C   0  0  0  0  0  0  0  0  0  0  0  0
   16.5022   -7.3759    0.0000 O   0  0  0  0  0  0  0  0  0  0  0  0
   17.1984   -7.8185    0.0000 C   0  0  0  0  0  0  0  0  0  0  0  0
   17.9298   -7.4369    0.0000 C   0  0  0  0  0  0  0  0  0  0  0  0
   18.6260   -7.8795    0.0000 N   0  0  0  0  0  0  0  0  0  0  0  0
  1  2  2  0
  2  3  1  0
  3  4  2  0
  4  6  1  0
  5  1  1  0
  5  6  2  0
  6  7  1  0
  7  8  1  0
  8  9  1  0
  9  5  1  0
  9 10  2  0
  7 11  2  0
 12 13  1  0
 12 17  1  0
 13 14  1  0
 14 15  1  0
 15 16  1  0
 16 17  1  0
  8 12  1  0
 13 18  2  0
 15 19  2  0
 21 20  1  0
 22 21  1  0
 23 22  1  6
 24 23  1  0
 24 25  1  0
 26 25  1  0
 26 27  1  0
 27 28  1  0
 28 29  2  0
 30 29  1  0
 30 26  2  0
 31 30  1  0
 31 32  1  0
 32 33  2  0
 33 34  1  0
 34 35  2  0
 35 36  1  0
 36 37  2  0
 32 37  1  0
 35 38  1  0
 39 31  2  0
 23 39  1  0
 29 40  1  0
 28 41  1  0
 25 42  1  0
 42 43  2  0
 43 44  1  0
 24 44  2  0
 42 45  1  0
 21 46  2  0
 20 47  1  0
 47 48  2  0
 48 49  1  0
 49 50  2  0
 50 51  1  0
 51 52  2  0
 52 47  1  0
 50 53  1  0
 53 54  1  0
 54 55  1  0
 55 56  1  0
 56 57  1  0
 57 58  1  0
 58 59  1  0
 59 60  1  0
 60 61  1  0
 61 62  1  0
 62 63  1  0
 63 64  1  0
 64 65  1  0
 65  1  1  0
M  END
> <From>
www.bindingDB.org

> <BindingDB Reactant_set_id>
51518610

> <Ligand InChI>
InChI=1S/C46H47ClN8O9S/c1-26-27(2)65-46-39(26)41(29-7-9-30(47)10-8-29)50-35(42-53-52-28(3)54(42)46)25-38(57)49-31-11-13-32(14-12-31)64-24-23-63-22-21-62-20-19-61-18-17-48-34-6-4-5-33-40(34)45(60)55(44(33)59)36-15-16-37(56)51-43(36)58/h4-14,35-36,48H,15-25H2,1-3H3,(H,49,57)(H,51,56,58)/t35-,36?/m0/s1

> <Ligand InChI Key>
RWLOGRLTDKDANT-TYIYNAFKSA-N

> <BindingDB MonomerID>
50512415

> <BindingDB Ligand Name>
CHEMBL4226052

> <Target Name>
Protein cereblon

> <Target Source Organism According to Curator or DataSource>
Human

> <Ki (nM)>


> <IC50 (nM)>


> <Kd (nM)>
 3000

> <EC50 (nM)>


> <kon (M-1-s-1)>


> <koff (s-1)>


> <pH>


> <Temp C>


> <Curation/DataSource>
ChEMBL

> <Article DOI>


> <BindingDB Entry DOI>
10.7270/Q2930ZDD

> <PMID>
36202064

> <PubChem AID>


> <Patent Number>


> <Authors>
n/a

> <Date of publication>
11/1/2022

> <Date in BindingDB>
4/21/2024

> <Institution>
n/a

> <Link to Ligand in BindingDB>
http://www.bindingdb.org/bind/chemsearch/marvin/MolStructure.jsp?monomerid=50512415

> <Link to Ligand-Target Pair in BindingDB>
http://www.bindingdb.org/jsp/dbsearch/PrimarySearch_ki.jsp?energyterm=kJ/mole&tag=pol&polymerid=50007050&target=Protein+cereblon&column=ki&startPg=0&Increment=50&submit=Search

> <Link to Ligand-Target Pair in BindingDB>
http://www.bindingdb.org/jsp/dbsearch/PrimarySearch_ki.jsp?energyterm=kJ/mole&tag=r21&monomerid=50512415&enzyme=Protein+cereblon&column=ki&startPg=0&Increment=50&submit=Search

> <Ligand HET ID in PDB>


> <PDB ID(s) for Ligand-Target Complex>


> <PubChem CID of Ligand>
92044400

> <PubChem SID of Ligand>
440720997

> <ChEBI ID of Ligand>


> <ChEMBL ID of Ligand>


> <DrugBank ID of Ligand>


> <IUPHAR_GRAC ID of Ligand>


> <KEGG ID of Ligand>


> <ZINC ID of Ligand>


> <Number of Protein Chains in Target (bigger than 1 implies a multichain complex)>
1

> <BindingDB Target Chain Sequence>
MAGEGDQQDAAHNMGNHLPLLPAESEEEDEMEVEDQDSKEAKKPNIINFDTSLPTSHTYLGADMEEFHGRTLHDDDSCQVIPVLPQVMMILIPGQTLPLQLFHPQEVSMVRNLIQKDRTFAVLAYSNVQEREAQFGTTAEIYAYREEQDFGIEIVKVKAIGRQRFKVLELRTQSDGIQQAKVQILPECVLPSTMSAVQLESLNKCQIFPSKPVSREDQCSYKWWQKYQKRKFHCANLTSWPRWLYSLYDAETLMDRIKKQLREWDENLKDDSLPSNPIDFSYRVAACLPIDDVLRIQLLKIGSAIQRLRCELDIMNKCTSLCCKQCQETEITTKNEIFSLSLCGPMAAYVNPHGYVHETLTVYKACNLNLIGRPSTEHSWFPGYAWTVAQCKICASHIGWKFTATKKDMSPQKFWGLTRSALLPTIPDTEDEISPDKVILCL

> <PDB ID(s) of Target Chain>
4TZ4,5HXB,5V3O,6UML,6XK9,7LPS,7U8F,8CVP,8D7U,8D7V,8D7W,8D7X,8D7Y,8D7Z,8D80,8D81,8DEY,8OIZ,8OJH,8U15,8U16,8U17

> <UniProt (SwissProt) Recommended Name of Target Chain>
Protein cereblon

> <UniProt (SwissProt) Entry Name of Target Chain>
CRBN_HUMAN

> <UniProt (SwissProt) Primary ID of Target Chain>
Q96SW2

> <UniProt (SwissProt) Secondary ID(s) of Target Chain>
B2R6H4 C9IZA9 C9JAH6 Q6AI62 Q6NVZ0 Q9UHW4

> <UniProt (SwissProt) Alternative ID(s) of Target Chain>


> <UniProt (TrEMBL) Submitted Name of Target Chain>


> <UniProt (TrEMBL) Entry Name of Target Chain>


> <UniProt (TrEMBL) Primary ID of Target Chain>


> <UniProt (TrEMBL) Secondary ID(s) of Target Chain>


> <UniProt (TrEMBL) Alternative ID(s) of Target Chain>


$$$$
 
     RDKit          2D

 62 68  0  0  0  0  0  0  0  0999 V2000
   -9.5277   -0.5787    0.0000 C   0  0  0  0  0  0  0  0  0  0  0  0
   -9.6716    0.2336    0.0000 C   0  0  0  0  0  0  0  0  0  0  0  0
   -8.9436    0.6216    0.0000 C   0  0  0  0  0  0  0  0  0  0  0  0
   -8.3496    0.0490    0.0000 N   0  0  0  0  0  0  0  0  0  0  0  0
   -7.5373    0.1930    0.0000 C   0  0  0  0  0  0  0  0  0  0  0  0
   -7.0065   -0.4384    0.0000 C   0  0  0  0  0  0  0  0  0  0  0  0
   -6.1941   -0.2945    0.0000 C   0  0  0  0  0  0  0  0  0  0  0  0
   -5.9126    0.4810    0.0000 C   0  0  0  0  0  0  0  0  0  0  0  0
   -5.1003    0.6249    0.0000 C   0  0  0  0  0  0  0  0  0  0  0  0
   -4.5694   -0.0065    0.0000 N   0  0  0  0  0  0  0  0  0  0  0  0
   -3.7572    0.1374    0.0000 C   0  0  0  0  0  0  0  0  0  0  0  0
   -3.2262   -0.4940    0.0000 C   0  0  0  0  0  0  0  0  0  0  0  0
   -2.4140   -0.3500    0.0000 C   0  0  0  0  0  0  0  0  0  0  0  0
   -2.1325    0.4254    0.0000 C   0  0  0  0  0  0  0  0  0  0  0  0
   -2.6633    1.0569    0.0000 C   0  0  0  0  0  0  0  0  0  0  0  0
   -3.4757    0.9129    0.0000 C   0  0  0  0  0  0  0  0  0  0  0  0
   -4.8189    1.4005    0.0000 O   0  0  0  0  0  0  0  0  0  0  0  0
   -6.4435    1.1125    0.0000 C   0  0  0  0  0  0  0  0  0  0  0  0
   -6.1621    1.8879    0.0000 N   0  0  0  0  0  0  0  0  0  0  0  0
   -6.6929    2.5194    0.0000 C   0  0  0  0  0  0  0  0  0  0  0  0
   -7.5052    2.3755    0.0000 C   0  0  0  0  0  0  0  0  0  0  0  0
   -6.4114    3.2949    0.0000 C   0  0  0  0  0  0  0  0  0  0  0  0
   -7.2558    0.9684    0.0000 C   0  0  0  0  0  0  0  0  0  0  0  0
   -8.7106   -0.6927    0.0000 C   0  0  0  0  0  0  0  0  0  0  0  0
   -8.4009   -1.4573    0.0000 N   0  0  0  0  0  0  0  0  0  0  0  0
   -8.9082   -2.1079    0.0000 C   0  0  0  0  0  0  0  0  0  0  0  0
   -9.7253   -1.9938    0.0000 C   0  0  0  0  0  0  0  0  0  0  0  0
  -10.2326   -2.6444    0.0000 C   0  0  0  0  0  0  0  0  0  0  0  0
  -10.7399   -3.2949    0.0000 N   0  0  0  0  0  0  0  0  0  0  0  0
  -10.0350   -1.2292    0.0000 C   0  0  0  0  0  0  0  0  0  0  0  0
   -1.3354    0.6390    0.0000 C   0  0  0  0  0  0  0  0  0  0  0  0
   -1.1218    1.4361    0.0000 O   0  0  0  0  0  0  0  0  0  0  0  0
   -0.7518    0.0554    0.0000 N   0  0  0  0  0  0  0  0  0  0  0  0
    0.0452    0.2690    0.0000 C   0  0  0  0  0  0  0  0  0  0  0  0
    0.6287   -0.3144    0.0000 C   0  0  0  0  0  0  0  0  0  0  0  0
    1.4258   -0.1008    0.0000 O   0  0  0  0  0  0  0  0  0  0  0  0
    2.0093   -0.6844    0.0000 C   0  0  0  0  0  0  0  0  0  0  0  0
    2.8064   -0.4708    0.0000 C   0  0  0  0  0  0  0  0  0  0  0  0
    3.3900   -1.0543    0.0000 N   0  0  0  0  0  0  0  0  0  0  0  0
    4.1871   -0.8407    0.0000 C   0  0  0  0  0  0  0  0  0  0  0  0
    4.7707   -1.4242    0.0000 O   0  0  0  0  0  0  0  0  0  0  0  0
    4.4007   -0.0436    0.0000 C   0  0  0  0  0  0  0  0  0  0  0  0
    5.1978    0.1699    0.0000 O   0  0  0  0  0  0  0  0  0  0  0  0
    5.4114    0.9670    0.0000 C   0  0  0  0  0  0  0  0  0  0  0  0
    4.8280    1.5508    0.0000 C   0  0  0  0  0  0  0  0  0  0  0  0
    5.0417    2.3453    0.0000 C   0  0  0  0  0  0  0  0  0  0  0  0
    5.8390    2.5589    0.0000 C   0  0  0  0  0  0  0  0  0  0  0  0
    6.4208    1.9794    0.0000 C   0  0  0  0  0  0  0  0  0  0  0  0
    6.2119    1.1815    0.0000 C   0  0  0  0  0  0  0  0  0  0  0  0
    7.2617    2.0178    0.0000 C   0  0  0  0  0  0  0  0  0  0  0  0
    7.5514    1.2666    0.0000 N   0  0  0  0  0  0  0  0  0  0  0  0
    6.9067    0.7456    0.0000 C   0  0  0  0  0  0  0  0  0  0  0  0
    8.3485    1.0530    0.0000 C   0  0  0  0  0  0  0  0  0  0  0  0
    8.9321    1.6365    0.0000 C   0  0  0  0  0  0  0  0  0  0  0  0
    9.7292    1.4229    0.0000 C   0  0  0  0  0  0  0  0  0  0  0  0
    9.9428    0.6258    0.0000 C   0  0  0  0  0  0  0  0  0  0  0  0
    9.3593    0.0423    0.0000 N   0  0  0  0  0  0  0  0  0  0  0  0
    8.5621    0.2559    0.0000 C   0  0  0  0  0  0  0  0  0  0  0  0
    7.6743    2.7325    0.0000 O   0  0  0  0  0  0  0  0  0  0  0  0
    6.9067   -0.0795    0.0000 O   0  0  0  0  0  0  0  0  0  0  0  0
    7.9786   -0.3275    0.0000 O   0  0  0  0  0  0  0  0  0  0  0  0
   10.7399    0.4122    0.0000 O   0  0  0  0  0  0  0  0  0  0  0  0
  1  2  1  0
  2  3  2  0
  4  3  1  0
  5  4  1  0
  5  6  1  0
  6  7  2  0
  7  8  1  0
  8  9  1  0
  9 10  1  0
 11 10  1  1
 11 12  1  0
 12 13  1  0
 13 14  1  0
 14 15  1  0
 15 16  1  0
 16 11  1  0
  9 17  2  0
  8 18  2  0
 18 19  1  0
 19 20  1  0
 20 21  1  0
 20 22  1  0
 23  5  2  0
 18 23  1  0
 24  1  2  0
 24  4  1  0
 25 24  1  0
 26 25  2  0
 27 26  1  0
 28 27  1  0
 28 29  3  0
 30 27  2  0
  1 30  1  0
 14 31  1  6
 31 32  2  0
 31 33  1  0
 33 34  1  0
 34 35  1  0
 35 36  1  0
 36 37  1  0
 37 38  1  0
 38 39  1  0
 39 40  1  0
 40 41  2  0
 40 42  1  0
 42 43  1  0
 43 44  1  0
 45 44  2  0
 46 45  1  0
 47 46  2  0
 48 47  1  0
 49 48  2  0
 44 49  1  0
 48 50  1  0
 50 51  1  0
 52 51  1  0
 49 52  1  0
 53 51  1  0
 53 54  1  0
 55 54  1  0
 56 55  1  0
 57 56  1  0
 58 57  1  0
 53 58  1  0
 50 59  2  0
 52 60  2  0
 58 61  2  0
 56 62  2  0
M  END
> <From>
www.bindingDB.org

> <BindingDB Reactant_set_id>
51517715

> <Ligand InChI>
InChI=1S/C44H47N9O9/c1-25(2)49-33-21-30(52-17-14-28-20-26(22-45)23-48-39(28)52)10-11-31(33)41(57)50-29-8-6-27(7-9-29)40(56)47-16-19-61-18-15-46-37(55)24-62-35-5-3-4-32-38(35)44(60)53(43(32)59)34-12-13-36(54)51-42(34)58/h3-5,10-11,14,17,20-21,23,25,27,29,34,49H,6-9,12-13,15-16,18-19,24H2,1-2H3,(H,46,55)(H,47,56)(H,50,57)(H,51,54,58)/t27-,29-,34?

> <Ligand InChI Key>
UXAPQGBETYKLBT-BKPPXGSPSA-N

> <BindingDB MonomerID>
50610870

> <BindingDB Ligand Name>
CHEMBL5272173

> <Target Name>
Protein cereblon

> <Target Source Organism According to Curator or DataSource>
Human

> <Ki (nM)>


> <IC50 (nM)>


> <Kd (nM)>
 490

> <EC50 (nM)>


> <kon (M-1-s-1)>


> <koff (s-1)>


> <pH>


> <Temp C>


> <Curation/DataSource>
ChEMBL

> <Article DOI>


> <BindingDB Entry DOI>
10.7270/Q27948WC

> <PMID>
34411892

> <PubChem AID>


> <Patent Number>


> <Authors>
n/a

> <Date of publication>
12/5/2021

> <Date in BindingDB>
4/21/2024

> <Institution>
n/a

> <Link to Ligand in BindingDB>
http://www.bindingdb.org/bind/chemsearch/marvin/MolStructure.jsp?monomerid=50610870

> <Link to Ligand-Target Pair in BindingDB>
http://www.bindingdb.org/jsp/dbsearch/PrimarySearch_ki.jsp?energyterm=kJ/mole&tag=pol&polymerid=50007050&target=Protein+cereblon&column=ki&startPg=0&Increment=50&submit=Search

> <Link to Ligand-Target Pair in BindingDB>
http://www.bindingdb.org/jsp/dbsearch/PrimarySearch_ki.jsp?energyterm=kJ/mole&tag=r21&monomerid=50610870&enzyme=Protein+cereblon&column=ki&startPg=0&Increment=50&submit=Search

> <Ligand HET ID in PDB>


> <PDB ID(s) for Ligand-Target Complex>


> <PubChem CID of Ligand>
171345173

> <PubChem SID of Ligand>
494500618

> <ChEBI ID of Ligand>


> <ChEMBL ID of Ligand>


> <DrugBank ID of Ligand>


> <IUPHAR_GRAC ID of Ligand>


> <KEGG ID of Ligand>


> <ZINC ID of Ligand>


> <Number of Protein Chains in Target (bigger than 1 implies a multichain complex)>
1

> <BindingDB Target Chain Sequence>
MAGEGDQQDAAHNMGNHLPLLPAESEEEDEMEVEDQDSKEAKKPNIINFDTSLPTSHTYLGADMEEFHGRTLHDDDSCQVIPVLPQVMMILIPGQTLPLQLFHPQEVSMVRNLIQKDRTFAVLAYSNVQEREAQFGTTAEIYAYREEQDFGIEIVKVKAIGRQRFKVLELRTQSDGIQQAKVQILPECVLPSTMSAVQLESLNKCQIFPSKPVSREDQCSYKWWQKYQKRKFHCANLTSWPRWLYSLYDAETLMDRIKKQLREWDENLKDDSLPSNPIDFSYRVAACLPIDDVLRIQLLKIGSAIQRLRCELDIMNKCTSLCCKQCQETEITTKNEIFSLSLCGPMAAYVNPHGYVHETLTVYKACNLNLIGRPSTEHSWFPGYAWTVAQCKICASHIGWKFTATKKDMSPQKFWGLTRSALLPTIPDTEDEISPDKVILCL

> <PDB ID(s) of Target Chain>
4TZ4,5HXB,5V3O,6UML,6XK9,7LPS,7U8F,8CVP,8D7U,8D7V,8D7W,8D7X,8D7Y,8D7Z,8D80,8D81,8DEY,8OIZ,8OJH,8U15,8U16,8U17

> <UniProt (SwissProt) Recommended Name of Target Chain>
Protein cereblon

> <UniProt (SwissProt) Entry Name of Target Chain>
CRBN_HUMAN

> <UniProt (SwissProt) Primary ID of Target Chain>
Q96SW2

> <UniProt (SwissProt) Secondary ID(s) of Target Chain>
B2R6H4 C9IZA9 C9JAH6 Q6AI62 Q6NVZ0 Q9UHW4

> <UniProt (SwissProt) Alternative ID(s) of Target Chain>


> <UniProt (TrEMBL) Submitted Name of Target Chain>


> <UniProt (TrEMBL) Entry Name of Target Chain>


> <UniProt (TrEMBL) Primary ID of Target Chain>


> <UniProt (TrEMBL) Secondary ID(s) of Target Chain>


> <UniProt (TrEMBL) Alternative ID(s) of Target Chain>


$$$$

     RDKit          2D

 57 61  0  0  0  0  0  0  0  0999 V2000
    3.7500   -1.2990    0.0000 C   0  0  0  0  0  0  0  0  0  0  0  0
    3.0000    0.0000    0.0000 O   0  0  0  0  0  0  0  0  0  0  0  0
    1.5000    0.0000    0.0000 C   0  0  0  0  0  0  0  0  0  0  0  0
    0.7500   -1.2990    0.0000 N   0  0  0  0  0  0  0  0  0  0  0  0
   -0.7500   -1.2990    0.0000 C   0  0  0  0  0  0  0  0  0  0  0  0
   -1.5000   -2.5981    0.0000 O   0  0  0  0  0  0  0  0  0  0  0  0
   -3.0000   -2.5981    0.0000 C   0  0  0  0  0  0  0  0  0  0  0  0
   -3.7500   -3.8971    0.0000 C   0  0  0  0  0  0  0  0  0  0  0  0
   -5.2500   -3.8971    0.0000 C   0  0  0  0  0  0  0  0  0  0  0  0
   -6.0000   -5.1962    0.0000 C   0  0  0  0  0  0  0  0  0  0  0  0
   -5.2500   -6.4952    0.0000 C   0  0  0  0  0  0  0  0  0  0  0  0
   -3.7500   -6.4952    0.0000 C   0  0  0  0  0  0  0  0  0  0  0  0
   -3.0000   -7.7942    0.0000 C   0  0  0  0  0  0  0  0  0  0  0  0
   -3.7500   -9.0933    0.0000 C   0  0  0  0  0  0  0  0  0  0  0  0
   -3.0000  -10.3923    0.0000 C   0  0  0  0  0  0  0  0  0  0  0  0
   -1.5000  -10.3923    0.0000 C   0  0  0  0  0  0  0  0  0  0  0  0
   -0.7500   -9.0933    0.0000 C   0  0  0  0  0  0  0  0  0  0  0  0
   -1.5000   -7.7942    0.0000 C   0  0  0  0  0  0  0  0  0  0  0  0
   -3.0000   -5.1962    0.0000 C   0  0  0  0  0  0  0  0  0  0  0  0
   -1.5000   -5.1962    0.0000 C   0  0  0  0  0  0  0  0  0  0  0  0
   -1.5000    0.0000    0.0000 C   0  0  0  0  0  0  0  0  0  0  0  0
   -0.7500    1.2990    0.0000 C   0  0  0  0  0  0  0  0  0  0  0  0
    0.7500    1.2990    0.0000 C   0  0  0  0  0  0  0  0  0  0  0  0
    1.5000    2.5981    0.0000 C   0  0  0  0  0  0  0  0  0  0  0  0
    3.0000    2.5981    0.0000 N   0  0  0  0  0  0  0  0  0  0  0  0
    3.7500    3.8971    0.0000 C   0  0  0  0  0  0  0  0  0  0  0  0
    5.2500    3.8971    0.0000 C   0  0  0  0  0  0  0  0  0  0  0  0
    6.0000    5.1962    0.0000 N   0  0  0  0  0  0  0  0  0  0  0  0
    7.5000    5.1962    0.0000 C   0  0  0  0  0  0  0  0  0  0  0  0
    8.2500    3.8971    0.0000 O   0  0  0  0  0  0  0  0  0  0  0  0
    8.2500    6.4952    0.0000 C   0  0  0  0  0  0  0  0  0  0  0  0
    9.7500    6.4952    0.0000 C   0  0  0  0  0  0  0  0  0  0  0  0
   10.5000    7.7942    0.0000 C   0  0  0  0  0  0  0  0  0  0  0  0
   12.0000    7.7942    0.0000 C   0  0  0  0  0  0  0  0  0  0  0  0
   12.7500    9.0933    0.0000 C   0  0  0  0  0  0  0  0  0  0  0  0
   14.2500    9.0933    0.0000 C   0  0  0  0  0  0  0  0  0  0  0  0
   15.0000   10.3923    0.0000 C   0  0  0  0  0  0  0  0  0  0  0  0
   16.5000   10.3923    0.0000 C   0  0  0  0  0  0  0  0  0  0  0  0
   17.2500   11.6913    0.0000 N   0  0  0  0  0  0  0  0  0  0  0  0
   18.7500   11.6913    0.0000 C   0  0  0  0  0  0  0  0  0  0  0  0
   19.5000   10.3923    0.0000 O   0  0  0  0  0  0  0  0  0  0  0  0
   19.5000   12.9904    0.0000 C   0  0  0  0  0  0  0  0  0  0  0  0
   21.0000   12.9904    0.0000 O   0  0  0  0  0  0  0  0  0  0  0  0
   21.7500   14.2894    0.0000 C   0  0  0  0  0  0  0  0  0  0  0  0
   23.2500   14.2894    0.0000 C   0  0  0  0  0  0  0  0  0  0  0  0
   24.0000   15.5885    0.0000 C   0  0  0  0  0  0  0  0  0  0  0  0
   23.2500   16.8875    0.0000 C   0  0  0  0  0  0  0  0  0  0  0  0
   24.0000   18.1865    0.0000 C   0  0  0  0  0  0  0  0  0  0  0  0
   25.5000   18.1865    0.0000 C   0  0  0  0  0  0  0  0  0  0  0  0
   26.2500   19.4856    0.0000 C   0  0  0  0  0  0  0  0  0  0  0  0
   25.5000   20.7846    0.0000 C   0  0  0  0  0  0  0  0  0  0  0  0
   26.2500   22.0836    0.0000 O   0  0  0  0  0  0  0  0  0  0  0  0
   24.0000   20.7846    0.0000 N   0  0  0  0  0  0  0  0  0  0  0  0
   23.2500   19.4856    0.0000 C   0  0  0  0  0  0  0  0  0  0  0  0
   21.7500   19.4856    0.0000 O   0  0  0  0  0  0  0  0  0  0  0  0
   21.7500   16.8875    0.0000 C   0  0  0  0  0  0  0  0  0  0  0  0
   21.0000   15.5885    0.0000 C   0  0  0  0  0  0  0  0  0  0  0  0
  1  2  1  0
  2  3  1  0
  3  4  2  0
  4  5  1  0
  5  6  1  0
  6  7  1  0
  7  8  1  0
  8  9  2  0
  9 10  1  0
 10 11  2  0
 11 12  1  0
 12 13  1  0
 13 14  2  0
 14 15  1  0
 15 16  2  0
 16 17  1  0
 17 18  2  0
 12 19  2  0
 19 20  1  0
  5 21  2  0
 21 22  1  0
 22 23  2  0
 23 24  1  0
 24 25  1  0
 25 26  1  0
 26 27  1  0
 27 28  1  0
 28 29  1  0
 29 30  2  0
 29 31  1  0
 31 32  1  0
 32 33  1  0
 33 34  1  0
 34 35  1  0
 35 36  1  0
 36 37  1  0
 37 38  1  0
 38 39  1  0
 39 40  1  0
 40 41  2  0
 40 42  1  0
 42 43  1  0
 43 44  1  0
 44 45  2  0
 45 46  1  0
 46 47  2  0
 47 48  1  0
 48 49  1  0
 49 50  1  0
 50 51  1  0
 51 52  2  0
 51 53  1  0
 53 54  1  0
 54 55  2  0
 47 56  1  0
 56 57  2  0
 23  3  1  0
 57 44  1  0
 19  8  1  0
 54 48  1  0
 18 13  1  0
M  END
> <From>
www.bindingDB.org

> <BindingDB Reactant_set_id>
51579001

> <Ligand InChI>
InChI=1S/C45H55N5O7/c1-32-36(15-12-16-38(32)33-13-8-7-9-14-33)30-57-43-25-20-35(45(50-43)55-2)29-46-27-28-48-40(51)17-10-5-3-4-6-11-26-47-42(53)31-56-37-21-18-34(19-22-37)39-23-24-41(52)49-44(39)54/h7-9,12-16,18-22,25,39,46H,3-6,10-11,17,23-24,26-31H2,1-2H3,(H,47,53)(H,48,51)(H,49,52,54)

> <Ligand InChI Key>
TVCUEWZCGMZLHG-UHFFFAOYSA-N

> <BindingDB MonomerID>
50635593

> <BindingDB Ligand Name>
CHEMBL5532294

> <Target Name>
Protein cereblon

> <Target Source Organism According to Curator or DataSource>
Mouse

> <Ki (nM)>


> <IC50 (nM)>


> <Kd (nM)>
 131770

> <EC50 (nM)>


> <kon (M-1-s-1)>


> <koff (s-1)>


> <pH>


> <Temp C>


> <Curation/DataSource>
ChEMBL

> <Article DOI>


> <BindingDB Entry DOI>
10.7270/Q2RJ4Q22

> <PMID>
38889052

> <PubChem AID>


> <Patent Number>


> <Authors>
Zhang, H; Zhang, Y; Feng, Z; Shuai, M; Ma, X; Wang, S; Yu, S; Deng, R; Luo, D; Shi, J; Pu, C; Li, R

> <Date of publication>
//0

> <Date in BindingDB>
10/11/2025

> <Institution>
Sichuan University

> <Link to Ligand in BindingDB>
http://www.bindingdb.org/bind/chemsearch/marvin/MolStructure.jsp?monomerid=50635593

> <Link to Ligand-Target Pair in BindingDB>
http://www.bindingdb.org/rwd/jsp/dbsearch/PrimarySearch_ki.jsp?energyterm=kJ/mole&tag=pol&polymerid=1271&target=Protein+cereblon&column=ki&startPg=0&Increment=50&submit=Search

> <Link to Ligand-Target Pair in BindingDB>
http://www.bindingdb.org/rwd/jsp/dbsearch/PrimarySearch_ki.jsp?energyterm=kJ/mole&tag=r21&monomerid=50635593&enzyme=Protein+cereblon&column=ki&startPg=0&Increment=50&submit=Search

> <Ligand HET ID in PDB>


> <PDB ID(s) for Ligand-Target Complex>


> <PubChem CID of Ligand>
171934898

> <PubChem SID of Ligand>
519655996

> <ChEBI ID of Ligand>


> <ChEMBL ID of Ligand>


> <DrugBank ID of Ligand>


> <IUPHAR_GRAC ID of Ligand>


> <KEGG ID of Ligand>


> <ZINC ID of Ligand>


> <Number of Protein Chains in Target (bigger than 1 implies a multichain complex)>
1

> <BindingDB Target Chain Sequence>
MAGEGDQQDAAHNMGNHLPLLPADSEDEDDEIEMEVEDQDSKEARKPNIINFDTSLPTSHTYLGADMEEFHGRTLHDDDSCQVIPVLPEVLMILIPGQTLPLQLSHPQEVSMVRNLIQKDRTFAVLAYSNVQEREAQFGTTAEIYAYREEQEFGIEVVKVKAIGRQRFKVLELRTQSDGIQQAKVQILPECVLPSTMSAVQLESLNKCQVFPSKPISWEDQYSCKWWQKYQKRKFHCANLTSWPRWLYSLYDAETLMDRIKKQLREWDENLKDDSLPENPIDFSYRVAACLPIDDVLRIQLLKIGSAIQRLRCELDIMNKCTSLCCKQCQETEITTKNEIFSLSLCGPMAAYVNPHGYVHETLTVYKASNLNLIGRPSTVHSWFPGYAWTIAQCKICASHIGWKFTATKKDMSPQKFWGLTRSALLPTIPETEDEISPDKVILCL

> <PDB ID(s) of Target Chain>
5YJ1,5YJ0,5YIZ,3WX2,3WX1,4TZU,4TZC,4M91

> <UniProt (SwissProt) Recommended Name of Target Chain>
Protein cereblon

> <UniProt (SwissProt) Entry Name of Target Chain>
CRBN_MOUSE

> <UniProt (SwissProt) Primary ID of Target Chain>
Q8C7D2

> <UniProt (SwissProt) Secondary ID(s) of Target Chain>
Q3TVC2 Q5RJV6 Q6IS49 Q80XJ1 Q8BP45 Q8C6B7 Q9JKR4

> <UniProt (SwissProt) Alternative ID(s) of Target Chain>


> <UniProt (TrEMBL) Submitted Name of Target Chain>


> <UniProt (TrEMBL) Entry Name of Target Chain>


> <UniProt (TrEMBL) Primary ID of Target Chain>


> <UniProt (TrEMBL) Secondary ID(s) of Target Chain>


> <UniProt (TrEMBL) Alternative ID(s) of Target Chain>


$$$$
 
     RDKit          2D

 59 66  0  0  0  0  0  0  0  0999 V2000
   42.9273  -10.4213    0.0000 O   0  0  0  0  0  0  0  0  0  0  0  0
   43.5092  -11.0032    0.0000 S   0  0  0  0  0  0  0  0  0  0  0  0
   43.7222  -10.2082    0.0000 O   0  0  0  0  0  0  0  0  0  0  0  0
   40.7715  -15.7495    0.0000 N   0  0  0  0  0  0  0  0  0  0  0  0
   40.7703  -16.5690    0.0000 C   0  0  0  0  0  0  0  0  0  0  0  0
   41.4784  -16.9780    0.0000 N   0  0  0  0  0  0  0  0  0  0  0  0
   41.4766  -15.3406    0.0000 C   0  0  0  0  0  0  0  0  0  0  0  0
   42.1852  -15.7459    0.0000 C   0  0  0  0  0  0  0  0  0  0  0  0
   42.1900  -16.5645    0.0000 C   0  0  0  0  0  0  0  0  0  0  0  0
   42.9700  -16.8129    0.0000 N   0  0  0  0  0  0  0  0  0  0  0  0
   43.4474  -16.1478    0.0000 C   0  0  0  0  0  0  0  0  0  0  0  0
   42.9623  -15.4884    0.0000 C   0  0  0  0  0  0  0  0  0  0  0  0
   41.4710  -14.5262    0.0000 C   0  0  0  0  0  0  0  0  0  0  0  0
   42.1307  -14.0438    0.0000 C   0  0  0  0  0  0  0  0  0  0  0  0
   41.8758  -13.2674    0.0000 N   0  0  0  0  0  0  0  0  0  0  0  0
   41.0586  -13.2698    0.0000 N   0  0  0  0  0  0  0  0  0  0  0  0
   40.8085  -14.0478    0.0000 C   0  0  0  0  0  0  0  0  0  0  0  0
   40.0623  -16.9770    0.0000 N   0  0  0  0  0  0  0  0  0  0  0  0
   39.3549  -16.5679    0.0000 C   0  0  0  0  0  0  0  0  0  0  0  0
   39.3601  -15.7508    0.0000 C   0  0  0  0  0  0  0  0  0  0  0  0
   38.6535  -15.3417    0.0000 C   0  0  0  0  0  0  0  0  0  0  0  0
   37.9445  -15.7498    0.0000 C   0  0  0  0  0  0  0  0  0  0  0  0
   37.9465  -16.5712    0.0000 C   0  0  0  0  0  0  0  0  0  0  0  0
   38.6536  -16.9766    0.0000 C   0  0  0  0  0  0  0  0  0  0  0  0
   37.2366  -15.3416    0.0000 C   0  0  0  0  0  0  0  0  0  0  0  0
   37.2362  -14.5244    0.0000 O   0  0  0  0  0  0  0  0  0  0  0  0
   36.5291  -15.7506    0.0000 N   0  0  0  0  0  0  0  0  0  0  0  0
   35.8212  -15.3424    0.0000 C   0  0  0  0  0  0  0  0  0  0  0  0
   42.3542  -12.6048    0.0000 C   0  0  0  0  0  0  0  0  0  0  0  0
   43.1651  -12.4746    0.0000 C   0  0  0  0  0  0  0  0  0  0  0  0
   43.0349  -11.6678    0.0000 N   0  0  0  0  0  0  0  0  0  0  0  0
   42.2282  -11.7981    0.0000 C   0  0  0  0  0  0  0  0  0  0  0  0
   44.3262  -11.0883    0.0000 C   0  0  0  0  0  0  0  0  0  0  0  0
   44.8059  -10.4267    0.0000 C   0  0  0  0  0  0  0  0  0  0  0  0
   42.9314  -13.1824    0.0000 C   0  0  0  0  0  0  0  0  0  0  0  0
   43.7208  -12.9710    0.0000 C   0  0  0  0  0  0  0  0  0  0  0  0
   44.5093  -12.7609    0.0000 N   0  0  0  0  0  0  0  0  0  0  0  0
   35.1137  -15.7514    0.0000 C   0  0  0  0  0  0  0  0  0  0  0  0
   34.4058  -15.3431    0.0000 C   0  0  0  0  0  0  0  0  0  0  0  0
   33.6983  -15.7521    0.0000 N   0  0  0  0  0  0  0  0  0  0  0  0
   32.9904  -15.3439    0.0000 C   0  0  0  0  0  0  0  0  0  0  0  0
   33.6987  -16.5693    0.0000 C   0  0  0  0  0  0  0  0  0  0  0  0
   32.9912  -16.9783    0.0000 C   0  0  0  0  0  0  0  0  0  0  0  0
   32.2833  -16.5701    0.0000 N   0  0  0  0  0  0  0  0  0  0  0  0
   31.5758  -16.9790    0.0000 C   0  0  0  0  0  0  0  0  0  0  0  0
   32.2829  -15.7529    0.0000 C   0  0  0  0  0  0  0  0  0  0  0  0
   30.8728  -16.5676    0.0000 C   0  0  0  0  0  0  0  0  0  0  0  0
   30.1658  -16.9759    0.0000 C   0  0  0  0  0  0  0  0  0  0  0  0
   30.1658  -17.7940    0.0000 C   0  0  0  0  0  0  0  0  0  0  0  0
   30.8787  -18.2020    0.0000 C   0  0  0  0  0  0  0  0  0  0  0  0
   31.5828  -17.7914    0.0000 C   0  0  0  0  0  0  0  0  0  0  0  0
   29.4589  -18.2039    0.0000 C   0  0  0  0  0  0  0  0  0  0  0  0
   28.7504  -17.7966    0.0000 C   0  0  0  0  0  0  0  0  0  0  0  0
   28.0435  -18.2065    0.0000 N   0  0  0  0  0  0  0  0  0  0  0  0
   28.0450  -19.0237    0.0000 C   0  0  0  0  0  0  0  0  0  0  0  0
   29.4604  -19.0211    0.0000 C   0  0  0  0  0  0  0  0  0  0  0  0
   28.7535  -19.4310    0.0000 C   0  0  0  0  0  0  0  0  0  0  0  0
   27.3381  -19.4336    0.0000 O   0  0  0  0  0  0  0  0  0  0  0  0
   28.7489  -16.9794    0.0000 O   0  0  0  0  0  0  0  0  0  0  0  0
  2  1  2  0
  3  2  2  0
  4  5  2  0
  5  6  1  0
  6  9  2  0
  8  7  2  0
  7  4  1  0
  8  9  1  0
  9 10  1  0
 10 11  1  0
 11 12  2  0
 12  8  1  0
 13 14  2  0
 14 15  1  0
 15 16  1  0
 16 17  2  0
 17 13  1  0
  7 13  1  0
  5 18  1  0
 18 19  1  0
 19 20  2  0
 20 21  1  0
 21 22  2  0
 22 23  1  0
 23 24  2  0
 24 19  1  0
 22 25  1  0
 25 26  2  0
 25 27  1  0
 27 28  1  0
 15 29  1  0
 29 30  1  0
 30 31  1  0
 31 32  1  0
 32 29  1  0
 31  2  1  0
  2 33  1  0
 33 34  1  0
 29 35  1  0
 35 36  1  0
 36 37  3  0
 28 38  1  0
 38 39  1  0
 39 40  1  0
 40 41  1  0
 40 42  1  0
 42 43  1  0
 41 46  1  0
 43 44  1  0
 44 45  1  0
 44 46  1  0
 45 47  2  0
 47 48  1  0
 48 49  2  0
 49 50  1  0
 50 51  2  0
 51 45  1  0
 49 52  1  0
 52 53  1  0
 53 54  1  0
 54 55  1  0
 52 56  1  0
 56 57  1  0
 55 57  1  0
 55 58  2  0
 53 59  2  0
M  END
> <From>
www.bindingDB.org

> <BindingDB Reactant_set_id>
51451990

> <Ligand InChI>


> <Ligand InChI Key>


> <BindingDB MonomerID>
50586185

> <BindingDB Ligand Name>
CHEMBL5090416

> <Target Name>
Protein cereblon

> <Target Source Organism According to Curator or DataSource>
Human

> <Ki (nM)>


> <IC50 (nM)>
 0.020000

> <Kd (nM)>


> <EC50 (nM)>


> <kon (M-1-s-1)>


> <koff (s-1)>


> <pH>


> <Temp C>


> <Curation/DataSource>
ChEMBL

> <Article DOI>
10.1021/acsmedchemlett.1c00650

> <BindingDB Entry DOI>
10.7270/Q2D79GBF

> <PMID>
35300081

> <PubChem AID>


> <Patent Number>


> <Authors>
Alcock, LJ; Chang, Y; Jarusiewicz, JA; Actis, M; Nithianantham, S; Mayasundari, A; Min, J; Maxwell, D; Hunt, J; Smart, B; Yang, JJ; Nishiguchi, G; Fischer, M; Mullighan, CG; Rankovic, Z

> <Date of publication>
3/10/2022

> <Date in BindingDB>
3/7/2023

> <Institution>
St. Jude Children's Research Hospital

> <Link to Ligand in BindingDB>
http://www.bindingdb.org/bind/chemsearch/marvin/MolStructure.jsp?monomerid=50586185

> <Link to Ligand-Target Pair in BindingDB>
http://www.bindingdb.org/jsp/dbsearch/PrimarySearch_ki.jsp?energyterm=kJ/mole&tag=pol&polymerid=50007050&target=Protein+cereblon&column=ki&startPg=0&Increment=50&submit=Search

> <Link to Ligand-Target Pair in BindingDB>
http://www.bindingdb.org/jsp/dbsearch/PrimarySearch_ki.jsp?energyterm=kJ/mole&tag=r21&monomerid=50586185&enzyme=Protein+cereblon&column=ki&startPg=0&Increment=50&submit=Search

> <Ligand HET ID in PDB>


> <PDB ID(s) for Ligand-Target Complex>


> <PubChem CID of Ligand>
162679331

> <PubChem SID of Ligand>
476022272

> <ChEBI ID of Ligand>


> <ChEMBL ID of Ligand>


> <DrugBank ID of Ligand>


> <IUPHAR_GRAC ID of Ligand>


> <KEGG ID of Ligand>


> <ZINC ID of Ligand>


> <Number of Protein Chains in Target (bigger than 1 implies a multichain complex)>
1

> <BindingDB Target Chain Sequence>
MAGEGDQQDAAHNMGNHLPLLPAESEEEDEMEVEDQDSKEAKKPNIINFDTSLPTSHTYLGADMEEFHGRTLHDDDSCQVIPVLPQVMMILIPGQTLPLQLFHPQEVSMVRNLIQKDRTFAVLAYSNVQEREAQFGTTAEIYAYREEQDFGIEIVKVKAIGRQRFKVLELRTQSDGIQQAKVQILPECVLPSTMSAVQLESLNKCQIFPSKPVSREDQCSYKWWQKYQKRKFHCANLTSWPRWLYSLYDAETLMDRIKKQLREWDENLKDDSLPSNPIDFSYRVAACLPIDDVLRIQLLKIGSAIQRLRCELDIMNKCTSLCCKQCQETEITTKNEIFSLSLCGPMAAYVNPHGYVHETLTVYKACNLNLIGRPSTEHSWFPGYAWTVAQCKICASHIGWKFTATKKDMSPQKFWGLTRSALLPTIPDTEDEISPDKVILCL

> <PDB ID(s) of Target Chain>
4TZ4,5HXB,5V3O,6UML,6XK9,7LPS,7U8F,8CVP,8D7U,8D7V,8D7W,8D7X,8D7Y,8D7Z,8D80,8D81,8DEY,8OIZ,8OJH

> <UniProt (SwissProt) Recommended Name of Target Chain>
Protein cereblon

> <UniProt (SwissProt) Entry Name of Target Chain>
CRBN_HUMAN

> <UniProt (SwissProt) Primary ID of Target Chain>
Q96SW2

> <UniProt (SwissProt) Secondary ID(s) of Target Chain>
B2R6H4 C9IZA9 C9JAH6 Q6AI62 Q6NVZ0 Q9UHW4

> <UniProt (SwissProt) Alternative ID(s) of Target Chain>


> <UniProt (TrEMBL) Submitted Name of Target Chain>


> <UniProt (TrEMBL) Entry Name of Target Chain>


> <UniProt (TrEMBL) Primary ID of Target Chain>


> <UniProt (TrEMBL) Secondary ID(s) of Target Chain>


> <UniProt (TrEMBL) Alternative ID(s) of Target Chain>


$$$$
 
     RDKit          2D

 63 71  0  0  0  0  0  0  0  0999 V2000
   31.3314  -24.3814    0.0000 O   0  0  0  0  0  0  0  0  0  0  0  0
   31.3356  -25.2049    0.0000 S   0  0  0  0  0  0  0  0  0  0  0  0
   32.0467  -24.7895    0.0000 O   0  0  0  0  0  0  0  0  0  0  0  0
   32.3389  -26.9296    0.0000 C   0  0  0  0  0  0  0  0  0  0  0  0
   32.5510  -26.1310    0.0000 C   0  0  0  0  0  0  0  0  0  0  0  0
   31.7525  -25.9189    0.0000 N   0  0  0  0  0  0  0  0  0  0  0  0
   31.5404  -26.7174    0.0000 C   0  0  0  0  0  0  0  0  0  0  0  0
   33.5760  -30.1128    0.0000 C   0  0  0  0  0  0  0  0  0  0  0  0
   33.5749  -30.9429    0.0000 C   0  0  0  0  0  0  0  0  0  0  0  0
   34.2925  -31.3592    0.0000 C   0  0  0  0  0  0  0  0  0  0  0  0
   35.0119  -30.9424    0.0000 C   0  0  0  0  0  0  0  0  0  0  0  0
   35.0090  -30.1091    0.0000 C   0  0  0  0  0  0  0  0  0  0  0  0
   34.2907  -29.7007    0.0000 C   0  0  0  0  0  0  0  0  0  0  0  0
   32.8572  -31.3581    0.0000 N   0  0  0  0  0  0  0  0  0  0  0  0
   32.1402  -30.9416    0.0000 C   0  0  0  0  0  0  0  0  0  0  0  0
   35.7248  -29.6947    0.0000 C   0  0  0  0  0  0  0  0  0  0  0  0
   36.4437  -30.1038    0.0000 N   0  0  0  0  0  0  0  0  0  0  0  0
   35.7217  -28.8670    0.0000 O   0  0  0  0  0  0  0  0  0  0  0  0
   37.1553  -29.6893    0.0000 C   0  0  0  0  0  0  0  0  0  0  0  0
   37.8743  -30.0984    0.0000 C   0  0  0  0  0  0  0  0  0  0  0  0
   32.1454  -30.1141    0.0000 N   0  0  0  0  0  0  0  0  0  0  0  0
   31.4333  -29.7019    0.0000 C   0  0  0  0  0  0  0  0  0  0  0  0
   31.4334  -31.3577    0.0000 N   0  0  0  0  0  0  0  0  0  0  0  0
   30.7167  -30.9451    0.0000 C   0  0  0  0  0  0  0  0  0  0  0  0
   30.7144  -30.1119    0.0000 C   0  0  0  0  0  0  0  0  0  0  0  0
   29.9210  -29.8578    0.0000 C   0  0  0  0  0  0  0  0  0  0  0  0
   29.4312  -30.5341    0.0000 C   0  0  0  0  0  0  0  0  0  0  0  0
   29.9247  -31.2035    0.0000 N   0  0  0  0  0  0  0  0  0  0  0  0
   31.4376  -28.8770    0.0000 C   0  0  0  0  0  0  0  0  0  0  0  0
   32.1047  -28.3901    0.0000 C   0  0  0  0  0  0  0  0  0  0  0  0
   31.8518  -27.6022    0.0000 N   0  0  0  0  0  0  0  0  0  0  0  0
   31.0241  -27.6004    0.0000 N   0  0  0  0  0  0  0  0  0  0  0  0
   30.7682  -28.3874    0.0000 C   0  0  0  0  0  0  0  0  0  0  0  0
   33.1644  -27.0206    0.0000 C   0  0  0  0  0  0  0  0  0  0  0  0
   33.6499  -26.3553    0.0000 C   0  0  0  0  0  0  0  0  0  0  0  0
   34.1362  -25.6858    0.0000 N   0  0  0  0  0  0  0  0  0  0  0  0
   30.5121  -25.2089    0.0000 C   0  0  0  0  0  0  0  0  0  0  0  0
   30.0968  -24.4978    0.0000 C   0  0  0  0  0  0  0  0  0  0  0  0
   38.5848  -29.6822    0.0000 N   0  0  0  0  0  0  0  0  0  0  0  0
   39.3007  -30.0895    0.0000 C   0  0  0  0  0  0  0  0  0  0  0  0
   38.5797  -28.8586    0.0000 C   0  0  0  0  0  0  0  0  0  0  0  0
   39.2903  -28.4424    0.0000 C   0  0  0  0  0  0  0  0  0  0  0  0
   40.0061  -28.8498    0.0000 N   0  0  0  0  0  0  0  0  0  0  0  0
   40.7166  -28.4334    0.0000 C   0  0  0  0  0  0  0  0  0  0  0  0
   40.0112  -29.6732    0.0000 C   0  0  0  0  0  0  0  0  0  0  0  0
   41.4301  -28.8449    0.0000 C   0  0  0  0  0  0  0  0  0  0  0  0
   42.1402  -28.4294    0.0000 C   0  0  0  0  0  0  0  0  0  0  0  0
   40.7076  -27.6159    0.0000 C   0  0  0  0  0  0  0  0  0  0  0  0
   41.4147  -27.1979    0.0000 C   0  0  0  0  0  0  0  0  0  0  0  0
   42.1331  -27.6035    0.0000 C   0  0  0  0  0  0  0  0  0  0  0  0
   42.7408  -27.0455    0.0000 C   0  0  0  0  0  0  0  0  0  0  0  0
   42.3980  -26.2951    0.0000 N   0  0  0  0  0  0  0  0  0  0  0  0
   41.5785  -26.3894    0.0000 C   0  0  0  0  0  0  0  0  0  0  0  0
   42.7997  -25.5781    0.0000 C   0  0  0  0  0  0  0  0  0  0  0  0
   43.6241  -25.5720    0.0000 C   0  0  0  0  0  0  0  0  0  0  0  0
   44.0288  -24.8589    0.0000 C   0  0  0  0  0  0  0  0  0  0  0  0
   43.6136  -24.1474    0.0000 C   0  0  0  0  0  0  0  0  0  0  0  0
   42.7892  -24.1534    0.0000 N   0  0  0  0  0  0  0  0  0  0  0  0
   42.3799  -24.8711    0.0000 C   0  0  0  0  0  0  0  0  0  0  0  0
   41.0215  -25.7829    0.0000 O   0  0  0  0  0  0  0  0  0  0  0  0
   43.5480  -27.2089    0.0000 O   0  0  0  0  0  0  0  0  0  0  0  0
   41.5564  -24.8783    0.0000 O   0  0  0  0  0  0  0  0  0  0  0  0
   44.0211  -23.4318    0.0000 O   0  0  0  0  0  0  0  0  0  0  0  0
  2  1  2  0
  3  2  2  0
  4  5  1  0
  5  6  1  0
  6  7  1  0
  7  4  1  0
  8  9  2  0
  9 10  1  0
 10 11  2  0
 11 12  1  0
 12 13  2  0
 13  8  1  0
  9 14  1  0
 14 15  1  0
 12 16  1  0
 16 17  1  0
 16 18  2  0
 17 19  1  0
 19 20  1  0
 15 21  2  0
 21 22  1  0
 22 25  2  0
 24 23  2  0
 23 15  1  0
 24 25  1  0
 25 26  1  0
 26 27  2  0
 27 28  1  0
 28 24  1  0
 29 30  2  0
 30 31  1  0
 31 32  1  0
 32 33  2  0
 33 29  1  0
 22 29  1  0
 31  4  1  0
  4 34  1  0
 34 35  1  0
 35 36  3  0
  6  2  1  0
  2 37  1  0
 37 38  1  0
 20 39  1  0
 39 40  1  0
 39 41  1  0
 41 42  1  0
 40 45  1  0
 42 43  1  0
 43 44  1  0
 43 45  1  0
 44 46  2  0
 46 47  1  0
 47 50  2  0
 49 48  2  0
 48 44  1  0
 49 50  1  0
 50 51  1  0
 51 52  1  0
 52 53  1  0
 53 49  1  0
 54 55  1  0
 54 59  1  0
 55 56  1  0
 56 57  1  0
 57 58  1  0
 58 59  1  0
 52 54  1  0
 53 60  2  0
 51 61  2  0
 59 62  2  0
 57 63  2  0
M  END
> <From>
www.bindingDB.org

> <BindingDB Reactant_set_id>
51451984

> <Ligand InChI>


> <Ligand InChI Key>


> <BindingDB MonomerID>
50586179

> <BindingDB Ligand Name>
CHEMBL4744617

> <Target Name>
Protein cereblon

> <Target Source Organism According to Curator or DataSource>
Human

> <Ki (nM)>


> <IC50 (nM)>
 0.310000

> <Kd (nM)>


> <EC50 (nM)>


> <kon (M-1-s-1)>


> <koff (s-1)>


> <pH>


> <Temp C>


> <Curation/DataSource>
ChEMBL

> <Article DOI>
10.1021/acsmedchemlett.1c00650

> <BindingDB Entry DOI>
10.7270/Q2D79GBF

> <PMID>
35300081

> <PubChem AID>


> <Patent Number>


> <Authors>
Alcock, LJ; Chang, Y; Jarusiewicz, JA; Actis, M; Nithianantham, S; Mayasundari, A; Min, J; Maxwell, D; Hunt, J; Smart, B; Yang, JJ; Nishiguchi, G; Fischer, M; Mullighan, CG; Rankovic, Z

> <Date of publication>
3/10/2022

> <Date in BindingDB>
3/7/2023

> <Institution>
St. Jude Children's Research Hospital

> <Link to Ligand in BindingDB>
http://www.bindingdb.org/bind/chemsearch/marvin/MolStructure.jsp?monomerid=50586179

> <Link to Ligand-Target Pair in BindingDB>
http://www.bindingdb.org/jsp/dbsearch/PrimarySearch_ki.jsp?energyterm=kJ/mole&tag=pol&polymerid=50007050&target=Protein+cereblon&column=ki&startPg=0&Increment=50&submit=Search

> <Link to Ligand-Target Pair in BindingDB>
http://www.bindingdb.org/jsp/dbsearch/PrimarySearch_ki.jsp?energyterm=kJ/mole&tag=r21&monomerid=50586179&enzyme=Protein+cereblon&column=ki&startPg=0&Increment=50&submit=Search

> <Ligand HET ID in PDB>


> <PDB ID(s) for Ligand-Target Complex>


> <PubChem CID of Ligand>
155599261

> <PubChem SID of Ligand>
476022266

> <ChEBI ID of Ligand>


> <ChEMBL ID of Ligand>


> <DrugBank ID of Ligand>


> <IUPHAR_GRAC ID of Ligand>


> <KEGG ID of Ligand>


> <ZINC ID of Ligand>


> <Number of Protein Chains in Target (bigger than 1 implies a multichain complex)>
1

> <BindingDB Target Chain Sequence>
MAGEGDQQDAAHNMGNHLPLLPAESEEEDEMEVEDQDSKEAKKPNIINFDTSLPTSHTYLGADMEEFHGRTLHDDDSCQVIPVLPQVMMILIPGQTLPLQLFHPQEVSMVRNLIQKDRTFAVLAYSNVQEREAQFGTTAEIYAYREEQDFGIEIVKVKAIGRQRFKVLELRTQSDGIQQAKVQILPECVLPSTMSAVQLESLNKCQIFPSKPVSREDQCSYKWWQKYQKRKFHCANLTSWPRWLYSLYDAETLMDRIKKQLREWDENLKDDSLPSNPIDFSYRVAACLPIDDVLRIQLLKIGSAIQRLRCELDIMNKCTSLCCKQCQETEITTKNEIFSLSLCGPMAAYVNPHGYVHETLTVYKACNLNLIGRPSTEHSWFPGYAWTVAQCKICASHIGWKFTATKKDMSPQKFWGLTRSALLPTIPDTEDEISPDKVILCL

> <PDB ID(s) of Target Chain>
4TZ4,5HXB,5V3O,6UML,6XK9,7LPS,7U8F,8CVP,8D7U,8D7V,8D7W,8D7X,8D7Y,8D7Z,8D80,8D81,8DEY,8OIZ,8OJH

> <UniProt (SwissProt) Recommended Name of Target Chain>
Protein cereblon

> <UniProt (SwissProt) Entry Name of Target Chain>
CRBN_HUMAN

> <UniProt (SwissProt) Primary ID of Target Chain>
Q96SW2

> <UniProt (SwissProt) Secondary ID(s) of Target Chain>
B2R6H4 C9IZA9 C9JAH6 Q6AI62 Q6NVZ0 Q9UHW4

> <UniProt (SwissProt) Alternative ID(s) of Target Chain>


> <UniProt (TrEMBL) Submitted Name of Target Chain>


> <UniProt (TrEMBL) Entry Name of Target Chain>


> <UniProt (TrEMBL) Primary ID of Target Chain>


> <UniProt (TrEMBL) Secondary ID(s) of Target Chain>


> <UniProt (TrEMBL) Alternative ID(s) of Target Chain>


$$$$
 
     RDKit          2D

 58 65  0  0  0  0  0  0  0  0999 V2000
   18.0979  -11.8039    0.0000 O   0  0  0  0  0  0  0  0  0  0  0  0
   18.6798  -12.3858    0.0000 S   0  0  0  0  0  0  0  0  0  0  0  0
   18.8928  -11.5909    0.0000 O   0  0  0  0  0  0  0  0  0  0  0  0
   15.9421  -17.1321    0.0000 N   0  0  0  0  0  0  0  0  0  0  0  0
   15.9409  -17.9516    0.0000 C   0  0  0  0  0  0  0  0  0  0  0  0
   16.6490  -18.3606    0.0000 N   0  0  0  0  0  0  0  0  0  0  0  0
   16.6472  -16.7232    0.0000 C   0  0  0  0  0  0  0  0  0  0  0  0
   17.3558  -17.1285    0.0000 C   0  0  0  0  0  0  0  0  0  0  0  0
   17.3606  -17.9471    0.0000 C   0  0  0  0  0  0  0  0  0  0  0  0
   18.1406  -18.1956    0.0000 N   0  0  0  0  0  0  0  0  0  0  0  0
   18.6180  -17.5304    0.0000 C   0  0  0  0  0  0  0  0  0  0  0  0
   18.1329  -16.8710    0.0000 C   0  0  0  0  0  0  0  0  0  0  0  0
   16.6416  -15.9088    0.0000 C   0  0  0  0  0  0  0  0  0  0  0  0
   17.3012  -15.4265    0.0000 C   0  0  0  0  0  0  0  0  0  0  0  0
   17.0464  -14.6500    0.0000 N   0  0  0  0  0  0  0  0  0  0  0  0
   16.2292  -14.6525    0.0000 N   0  0  0  0  0  0  0  0  0  0  0  0
   15.9791  -15.4304    0.0000 C   0  0  0  0  0  0  0  0  0  0  0  0
   15.2329  -18.3597    0.0000 N   0  0  0  0  0  0  0  0  0  0  0  0
   14.5255  -17.9505    0.0000 C   0  0  0  0  0  0  0  0  0  0  0  0
   14.5307  -17.1334    0.0000 C   0  0  0  0  0  0  0  0  0  0  0  0
   13.8241  -16.7244    0.0000 C   0  0  0  0  0  0  0  0  0  0  0  0
   13.1151  -17.1324    0.0000 C   0  0  0  0  0  0  0  0  0  0  0  0
   13.1171  -17.9539    0.0000 C   0  0  0  0  0  0  0  0  0  0  0  0
   13.8242  -18.3592    0.0000 C   0  0  0  0  0  0  0  0  0  0  0  0
   12.4072  -16.7242    0.0000 C   0  0  0  0  0  0  0  0  0  0  0  0
   12.4068  -15.9070    0.0000 O   0  0  0  0  0  0  0  0  0  0  0  0
   11.6997  -17.1332    0.0000 N   0  0  0  0  0  0  0  0  0  0  0  0
   10.9918  -16.7250    0.0000 C   0  0  0  0  0  0  0  0  0  0  0  0
   17.5248  -13.9875    0.0000 C   0  0  0  0  0  0  0  0  0  0  0  0
   18.3357  -13.8572    0.0000 C   0  0  0  0  0  0  0  0  0  0  0  0
   18.2055  -13.0504    0.0000 N   0  0  0  0  0  0  0  0  0  0  0  0
   17.3987  -13.1807    0.0000 C   0  0  0  0  0  0  0  0  0  0  0  0
   19.4968  -12.4709    0.0000 C   0  0  0  0  0  0  0  0  0  0  0  0
   19.9765  -11.8093    0.0000 C   0  0  0  0  0  0  0  0  0  0  0  0
   18.1020  -14.5650    0.0000 C   0  0  0  0  0  0  0  0  0  0  0  0
   18.8914  -14.3537    0.0000 C   0  0  0  0  0  0  0  0  0  0  0  0
   19.6799  -14.1435    0.0000 N   0  0  0  0  0  0  0  0  0  0  0  0
   10.2843  -17.1340    0.0000 C   0  0  0  0  0  0  0  0  0  0  0  0
    9.5764  -16.7258    0.0000 N   0  0  0  0  0  0  0  0  0  0  0  0
    8.8689  -17.1347    0.0000 C   0  0  0  0  0  0  0  0  0  0  0  0
    9.5759  -15.9086    0.0000 C   0  0  0  0  0  0  0  0  0  0  0  0
    8.1610  -16.7265    0.0000 C   0  0  0  0  0  0  0  0  0  0  0  0
    8.8680  -15.5004    0.0000 C   0  0  0  0  0  0  0  0  0  0  0  0
    8.1605  -15.9093    0.0000 N   0  0  0  0  0  0  0  0  0  0  0  0
    7.4526  -15.5011    0.0000 C   0  0  0  0  0  0  0  0  0  0  0  0
    7.4537  -14.6862    0.0000 C   0  0  0  0  0  0  0  0  0  0  0  0
    6.0412  -15.5085    0.0000 C   0  0  0  0  0  0  0  0  0  0  0  0
    6.7489  -15.9130    0.0000 C   0  0  0  0  0  0  0  0  0  0  0  0
    6.0381  -14.6871    0.0000 C   0  0  0  0  0  0  0  0  0  0  0  0
    6.7429  -14.2777    0.0000 C   0  0  0  0  0  0  0  0  0  0  0  0
    5.3291  -14.2808    0.0000 C   0  0  0  0  0  0  0  0  0  0  0  0
    5.3265  -13.4636    0.0000 C   0  0  0  0  0  0  0  0  0  0  0  0
    4.6227  -14.6916    0.0000 C   0  0  0  0  0  0  0  0  0  0  0  0
    6.0329  -13.0527    0.0000 O   0  0  0  0  0  0  0  0  0  0  0  0
    4.6175  -13.0572    0.0000 N   0  0  0  0  0  0  0  0  0  0  0  0
    3.9111  -13.4681    0.0000 C   0  0  0  0  0  0  0  0  0  0  0  0
    3.2021  -13.0618    0.0000 O   0  0  0  0  0  0  0  0  0  0  0  0
    3.9137  -14.2853    0.0000 C   0  0  0  0  0  0  0  0  0  0  0  0
  2  1  2  0
  3  2  2  0
  4  5  2  0
  5  6  1  0
  6  9  2  0
  8  7  2  0
  7  4  1  0
  8  9  1  0
  9 10  1  0
 10 11  1  0
 11 12  2  0
 12  8  1  0
 13 14  2  0
 14 15  1  0
 15 16  1  0
 16 17  2  0
 17 13  1  0
  7 13  1  0
  5 18  1  0
 18 19  1  0
 19 20  2  0
 20 21  1  0
 21 22  2  0
 22 23  1  0
 23 24  2  0
 24 19  1  0
 22 25  1  0
 25 26  2  0
 25 27  1  0
 27 28  1  0
 15 29  1  0
 29 30  1  0
 30 31  1  0
 31 32  1  0
 32 29  1  0
 31  2  1  0
  2 33  1  0
 33 34  1  0
 29 35  1  0
 35 36  1  0
 36 37  3  0
 28 38  1  0
 38 39  1  0
 39 40  1  0
 39 41  1  0
 40 42  1  0
 41 43  1  0
 42 44  1  0
 44 43  1  0
 44 45  1  0
 45 46  2  0
 46 50  1  0
 49 47  1  0
 47 48  2  0
 48 45  1  0
 49 50  2  0
 49 51  1  0
 51 52  1  0
 51 53  1  0
 52 54  2  0
 52 55  1  0
 55 56  1  0
 56 57  2  0
 56 58  1  0
 53 58  1  0
M  END
> <From>
www.bindingDB.org

> <BindingDB Reactant_set_id>
51451989

> <Ligand InChI>


> <Ligand InChI Key>


> <BindingDB MonomerID>
50586184

> <BindingDB Ligand Name>
CHEMBL5078429

> <Target Name>
Protein cereblon

> <Target Source Organism According to Curator or DataSource>
Human

> <Ki (nM)>


> <IC50 (nM)>
 0.450000

> <Kd (nM)>


> <EC50 (nM)>


> <kon (M-1-s-1)>


> <koff (s-1)>


> <pH>


> <Temp C>


> <Curation/DataSource>
ChEMBL

> <Article DOI>
10.1021/acsmedchemlett.1c00650

> <BindingDB Entry DOI>
10.7270/Q2D79GBF

> <PMID>
35300081

> <PubChem AID>


> <Patent Number>


> <Authors>
Alcock, LJ; Chang, Y; Jarusiewicz, JA; Actis, M; Nithianantham, S; Mayasundari, A; Min, J; Maxwell, D; Hunt, J; Smart, B; Yang, JJ; Nishiguchi, G; Fischer, M; Mullighan, CG; Rankovic, Z

> <Date of publication>
3/10/2022

> <Date in BindingDB>
3/7/2023

> <Institution>
St. Jude Children's Research Hospital

> <Link to Ligand in BindingDB>
http://www.bindingdb.org/bind/chemsearch/marvin/MolStructure.jsp?monomerid=50586184

> <Link to Ligand-Target Pair in BindingDB>
http://www.bindingdb.org/jsp/dbsearch/PrimarySearch_ki.jsp?energyterm=kJ/mole&tag=pol&polymerid=50007050&target=Protein+cereblon&column=ki&startPg=0&Increment=50&submit=Search

> <Link to Ligand-Target Pair in BindingDB>
http://www.bindingdb.org/jsp/dbsearch/PrimarySearch_ki.jsp?energyterm=kJ/mole&tag=r21&monomerid=50586184&enzyme=Protein+cereblon&column=ki&startPg=0&Increment=50&submit=Search

> <Ligand HET ID in PDB>


> <PDB ID(s) for Ligand-Target Complex>


> <PubChem CID of Ligand>
164540944

> <PubChem SID of Ligand>
476022271

> <ChEBI ID of Ligand>


> <ChEMBL ID of Ligand>


> <DrugBank ID of Ligand>


> <IUPHAR_GRAC ID of Ligand>


> <KEGG ID of Ligand>


> <ZINC ID of Ligand>


> <Number of Protein Chains in Target (bigger than 1 implies a multichain complex)>
1

> <BindingDB Target Chain Sequence>
MAGEGDQQDAAHNMGNHLPLLPAESEEEDEMEVEDQDSKEAKKPNIINFDTSLPTSHTYLGADMEEFHGRTLHDDDSCQVIPVLPQVMMILIPGQTLPLQLFHPQEVSMVRNLIQKDRTFAVLAYSNVQEREAQFGTTAEIYAYREEQDFGIEIVKVKAIGRQRFKVLELRTQSDGIQQAKVQILPECVLPSTMSAVQLESLNKCQIFPSKPVSREDQCSYKWWQKYQKRKFHCANLTSWPRWLYSLYDAETLMDRIKKQLREWDENLKDDSLPSNPIDFSYRVAACLPIDDVLRIQLLKIGSAIQRLRCELDIMNKCTSLCCKQCQETEITTKNEIFSLSLCGPMAAYVNPHGYVHETLTVYKACNLNLIGRPSTEHSWFPGYAWTVAQCKICASHIGWKFTATKKDMSPQKFWGLTRSALLPTIPDTEDEISPDKVILCL

> <PDB ID(s) of Target Chain>
4TZ4,5HXB,5V3O,6UML,6XK9,7LPS,7U8F,8CVP,8D7U,8D7V,8D7W,8D7X,8D7Y,8D7Z,8D80,8D81,8DEY,8OIZ,8OJH

> <UniProt (SwissProt) Recommended Name of Target Chain>
Protein cereblon

> <UniProt (SwissProt) Entry Name of Target Chain>
CRBN_HUMAN

> <UniProt (SwissProt) Primary ID of Target Chain>
Q96SW2

> <UniProt (SwissProt) Secondary ID(s) of Target Chain>
B2R6H4 C9IZA9 C9JAH6 Q6AI62 Q6NVZ0 Q9UHW4

> <UniProt (SwissProt) Alternative ID(s) of Target Chain>


> <UniProt (TrEMBL) Submitted Name of Target Chain>


> <UniProt (TrEMBL) Entry Name of Target Chain>


> <UniProt (TrEMBL) Primary ID of Target Chain>


> <UniProt (TrEMBL) Secondary ID(s) of Target Chain>


> <UniProt (TrEMBL) Alternative ID(s) of Target Chain>


$$$$

     RDKit          2D

 62 71  0  0  0  0  0  0  0  0999 V2000
   10.8019   10.6218    0.0000 C   0  0  0  0  0  0  0  0  0  0  0  0
    9.5028   11.3718    0.0000 C   0  0  0  0  0  0  0  0  0  0  0  0
    9.5028   12.8718    0.0000 O   0  0  0  0  0  0  0  0  0  0  0  0
    8.2038   10.6218    0.0000 N   0  0  0  0  0  0  0  0  0  0  0  0
    8.2038    9.1218    0.0000 C   0  0  0  0  0  0  0  0  0  0  0  0
    6.9048    8.3718    0.0000 C   0  0  0  0  0  0  0  0  0  0  0  0
    5.6057    9.1218    0.0000 C   0  0  0  0  0  0  0  0  0  0  0  0
    5.6057   10.6218    0.0000 C   0  0  0  0  0  0  0  0  0  0  0  0
    4.1791   11.0854    0.0000 C   0  0  0  0  0  0  0  0  0  0  0  0
    3.7156   12.5120    0.0000 N   0  0  0  0  0  0  0  0  0  0  0  0
    4.7193   13.6267    0.0000 C   0  0  0  0  0  0  0  0  0  0  0  0
    4.2558   15.0533    0.0000 C   0  0  0  0  0  0  0  0  0  0  0  0
    2.7886   15.3651    0.0000 C   0  0  0  0  0  0  0  0  0  0  0  0
    1.7849   14.2504    0.0000 C   0  0  0  0  0  0  0  0  0  0  0  0
    0.3177   14.5623    0.0000 C   0  0  0  0  0  0  0  0  0  0  0  0
   -0.6860   13.4476    0.0000 C   0  0  0  0  0  0  0  0  0  0  0  0
   -2.1533   13.7594    0.0000 C   0  0  0  0  0  0  0  0  0  0  0  0
   -3.2680   12.7557    0.0000 C   0  0  0  0  0  0  0  0  0  0  0  0
   -4.5670   13.5057    0.0000 N   0  0  0  0  0  0  0  0  0  0  0  0
   -4.2552   14.9729    0.0000 N   0  0  0  0  0  0  0  0  0  0  0  0
   -5.2588   16.0877    0.0000 C   0  0  0  0  0  0  0  0  0  0  0  0
   -2.7634   15.1297    0.0000 C   0  0  0  0  0  0  0  0  0  0  0  0
   -0.2225   12.0210    0.0000 C   0  0  0  0  0  0  0  0  0  0  0  0
   -1.2262   10.9063    0.0000 C   0  0  0  0  0  0  0  0  0  0  0  0
   -0.7627    9.4797    0.0000 F   0  0  0  0  0  0  0  0  0  0  0  0
   -2.6934   11.2181    0.0000 F   0  0  0  0  0  0  0  0  0  0  0  0
    1.2447   11.7091    0.0000 C   0  0  0  0  0  0  0  0  0  0  0  0
    2.2484   12.8238    0.0000 C   0  0  0  0  0  0  0  0  0  0  0  0
    3.2975    9.8718    0.0000 N   0  0  0  0  0  0  0  0  0  0  0  0
    4.1791    8.6583    0.0000 N   0  0  0  0  0  0  0  0  0  0  0  0
    3.7156    7.2317    0.0000 C   0  0  0  0  0  0  0  0  0  0  0  0
    2.2484    6.9199    0.0000 C   0  0  0  0  0  0  0  0  0  0  0  0
    1.7849    5.4933    0.0000 C   0  0  0  0  0  0  0  0  0  0  0  0
    2.7886    4.3786    0.0000 N   0  0  0  0  0  0  0  0  0  0  0  0
    2.3250    2.9520    0.0000 C   0  0  0  0  0  0  0  0  0  0  0  0
    3.3287    1.8373    0.0000 O   0  0  0  0  0  0  0  0  0  0  0  0
    0.8578    2.6401    0.0000 C   0  0  0  0  0  0  0  0  0  0  0  0
    0.3943    1.2135    0.0000 N   0  0  0  0  0  0  0  0  0  0  0  0
    1.2760    0.0000    0.0000 C   0  0  0  0  0  0  0  0  0  0  0  0
    0.3943   -1.2135    0.0000 C   0  0  0  0  0  0  0  0  0  0  0  0
    0.7062   -2.6807    0.0000 C   0  0  0  0  0  0  0  0  0  0  0  0
   -0.4086   -3.6844    0.0000 C   0  0  0  0  0  0  0  0  0  0  0  0
   -1.8351   -3.2209    0.0000 C   0  0  0  0  0  0  0  0  0  0  0  0
   -2.1470   -1.7537    0.0000 C   0  0  0  0  0  0  0  0  0  0  0  0
   -1.0323   -0.7500    0.0000 C   0  0  0  0  0  0  0  0  0  0  0  0
   -1.0323    0.7500    0.0000 C   0  0  0  0  0  0  0  0  0  0  0  0
   -2.7168   -4.4344    0.0000 C   0  0  0  0  0  0  0  0  0  0  0  0
   -4.2168   -4.4344    0.0000 O   0  0  0  0  0  0  0  0  0  0  0  0
   -1.8351   -5.6480    0.0000 N   0  0  0  0  0  0  0  0  0  0  0  0
   -2.2987   -7.0746    0.0000 C   0  0  0  0  0  0  0  0  0  0  0  0
   -3.7659   -7.3864    0.0000 C   0  0  0  0  0  0  0  0  0  0  0  0
   -4.2294   -8.8130    0.0000 C   0  0  0  0  0  0  0  0  0  0  0  0
   -3.2257   -9.9277    0.0000 C   0  0  0  0  0  0  0  0  0  0  0  0
   -3.6892  -11.3543    0.0000 O   0  0  0  0  0  0  0  0  0  0  0  0
   -1.7585   -9.6159    0.0000 N   0  0  0  0  0  0  0  0  0  0  0  0
   -1.2950   -8.1893    0.0000 C   0  0  0  0  0  0  0  0  0  0  0  0
    0.1723   -7.8774    0.0000 O   0  0  0  0  0  0  0  0  0  0  0  0
   -0.4086   -5.1844    0.0000 C   0  0  0  0  0  0  0  0  0  0  0  0
    0.8050   -6.0661    0.0000 O   0  0  0  0  0  0  0  0  0  0  0  0
    4.2558    4.6904    0.0000 C   0  0  0  0  0  0  0  0  0  0  0  0
    4.7193    6.1170    0.0000 C   0  0  0  0  0  0  0  0  0  0  0  0
    6.9048   11.3718    0.0000 C   0  0  0  0  0  0  0  0  0  0  0  0
  1  2  1  0
  2  3  2  0
  2  4  1  0
  4  5  1  0
  5  6  1  0
  6  7  1  0
  7  8  2  0
  8  9  1  0
  9 10  1  0
 10 11  1  0
 11 12  1  0
 12 13  1  0
 13 14  1  0
 14 15  2  0
 15 16  1  0
 16 17  1  0
 17 18  1  0
 18 19  2  0
 19 20  1  0
 20 21  1  0
 20 22  1  0
 16 23  2  0
 23 24  1  0
 24 25  1  0
 24 26  1  0
 23 27  1  0
 27 28  2  0
  9 29  2  0
 29 30  1  0
 30 31  1  0
 31 32  1  0
 32 33  1  0
 33 34  1  0
 34 35  1  0
 35 36  2  0
 35 37  1  0
 37 38  1  0
 38 39  1  0
 39 40  1  0
 40 41  2  0
 41 42  1  0
 42 43  2  0
 43 44  1  0
 44 45  2  0
 45 46  1  0
 43 47  1  0
 47 48  2  0
 47 49  1  0
 49 50  1  0
 50 51  1  0
 51 52  1  0
 52 53  1  0
 53 54  2  0
 53 55  1  0
 55 56  1  0
 56 57  2  0
 49 58  1  0
 58 59  2  0
 34 60  1  0
 60 61  1  0
  8 62  1  0
 62  4  1  0
 30  7  1  0
 61 31  1  0
 28 10  1  0
 46 38  1  0
 56 50  1  0
 28 14  1  0
 45 40  1  0
 22 17  2  0
 58 42  1  0
M  END
> <From>
www.bindingDB.org

> <BindingDB Reactant_set_id>
51598323

> <Ligand InChI>
InChI=1S/C44H46F2N10O6/c1-24(57)53-13-9-35-34(22-53)41(54-10-3-4-25-14-30(28-18-47-50(2)19-28)31(40(45)46)17-37(25)54)49-56(35)29-7-11-52(12-8-29)39(59)23-51-20-26-15-32-33(16-27(26)21-51)44(62)55(43(32)61)36-5-6-38(58)48-42(36)60/h14-19,29,36,40H,3-13,20-23H2,1-2H3,(H,48,58,60)

> <Ligand InChI Key>
ADRVUGPWBAQVJT-UHFFFAOYSA-N

> <BindingDB MonomerID>
50643720

> <BindingDB Ligand Name>
CHEMBL5574408

> <Target Name>
Protein cereblon

> <Target Source Organism According to Curator or DataSource>
Human

> <Ki (nM)>


> <IC50 (nM)>
 0.900000

> <Kd (nM)>


> <EC50 (nM)>


> <kon (M-1-s-1)>


> <koff (s-1)>


> <pH>


> <Temp C>


> <Curation/DataSource>
ChEMBL

> <Article DOI>


> <BindingDB Entry DOI>
10.7270/Q2VM4HXD

> <PMID>
38477974

> <PubChem AID>


> <Patent Number>


> <Authors>
Chen, Z; Wang, M; Wu, D; Bai, L; Xu, T; Metwally, H; Wang, Y; McEachern, D; Zhao, L; Li, R; Takyi-Williams, J; Wang, M; Wang, L; Li, Q; Wen, B; Sun, D; Wang, S

> <Date of publication>
//0

> <Date in BindingDB>
10/12/2025

> <Institution>
University of Michigan

> <Link to Ligand in BindingDB>
http://www.bindingdb.org/bind/chemsearch/marvin/MolStructure.jsp?monomerid=50643720

> <Link to Ligand-Target Pair in BindingDB>
http://www.bindingdb.org/rwd/jsp/dbsearch/PrimarySearch_ki.jsp?energyterm=kJ/mole&tag=pol&polymerid=50007050&target=Protein+cereblon&column=ki&startPg=0&Increment=50&submit=Search

> <Link to Ligand-Target Pair in BindingDB>
http://www.bindingdb.org/rwd/jsp/dbsearch/PrimarySearch_ki.jsp?energyterm=kJ/mole&tag=r21&monomerid=50643720&enzyme=Protein+cereblon&column=ki&startPg=0&Increment=50&submit=Search

> <Ligand HET ID in PDB>


> <PDB ID(s) for Ligand-Target Complex>


> <PubChem CID of Ligand>
164919448

> <PubChem SID of Ligand>
519669124

> <ChEBI ID of Ligand>


> <ChEMBL ID of Ligand>


> <DrugBank ID of Ligand>


> <IUPHAR_GRAC ID of Ligand>


> <KEGG ID of Ligand>


> <ZINC ID of Ligand>


> <Number of Protein Chains in Target (bigger than 1 implies a multichain complex)>
1

> <BindingDB Target Chain Sequence>
MAGEGDQQDAAHNMGNHLPLLPAESEEEDEMEVEDQDSKEAKKPNIINFDTSLPTSHTYLGADMEEFHGRTLHDDDSCQVIPVLPQVMMILIPGQTLPLQLFHPQEVSMVRNLIQKDRTFAVLAYSNVQEREAQFGTTAEIYAYREEQDFGIEIVKVKAIGRQRFKVLELRTQSDGIQQAKVQILPECVLPSTMSAVQLESLNKCQIFPSKPVSREDQCSYKWWQKYQKRKFHCANLTSWPRWLYSLYDAETLMDRIKKQLREWDENLKDDSLPSNPIDFSYRVAACLPIDDVLRIQLLKIGSAIQRLRCELDIMNKCTSLCCKQCQETEITTKNEIFSLSLCGPMAAYVNPHGYVHETLTVYKACNLNLIGRPSTEHSWFPGYAWTVAQCKICASHIGWKFTATKKDMSPQKFWGLTRSALLPTIPDTEDEISPDKVILCL

> <PDB ID(s) of Target Chain>
9DUR,8TNR,8TNQ,8TNP,9DWW,9DWV,9NGT,9NFR,9NFQ,8D81,8D80,8D7Z,8D7Y,8D7X,8D7W,8D7V,8D7U,8CVP,9Q2D,9Q03,9DQD,8UH6,9SAI,9SAF,9H59,9E2U,6BOY,6BNB,6BN9,6BN8,6BN7,9OUL,9Y7D,6XK9,6UML,5V3O,5HXB,9HNE,9D0X,9D0W,7U8F,9FJX,8OJH,8OIZ,7LPS,9SFM,9OTY,4TZ4,9DJX,9DJT,8U17,8U16,8U15,8TZX,8DEY,9CUO,4M91

> <UniProt (SwissProt) Recommended Name of Target Chain>
Protein cereblon

> <UniProt (SwissProt) Entry Name of Target Chain>
CRBN_HUMAN

> <UniProt (SwissProt) Primary ID of Target Chain>
Q96SW2

> <UniProt (SwissProt) Secondary ID(s) of Target Chain>
B2R6H4 C9IZA9 C9JAH6 Q6AI62 Q6NVZ0 Q9UHW4

> <UniProt (SwissProt) Alternative ID(s) of Target Chain>


> <UniProt (TrEMBL) Submitted Name of Target Chain>


> <UniProt (TrEMBL) Entry Name of Target Chain>


> <UniProt (TrEMBL) Primary ID of Target Chain>


> <UniProt (TrEMBL) Secondary ID(s) of Target Chain>


> <UniProt (TrEMBL) Alternative ID(s) of Target Chain>


$$$$
 
     RDKit          2D

 55 61  0  0  0  0  0  0  0  0999 V2000
   18.1474  -23.0010    0.0000 O   0  0  0  0  0  0  0  0  0  0  0  0
   18.7294  -23.5830    0.0000 S   0  0  0  0  0  0  0  0  0  0  0  0
   18.9424  -22.7880    0.0000 O   0  0  0  0  0  0  0  0  0  0  0  0
   15.9916  -28.3293    0.0000 N   0  0  0  0  0  0  0  0  0  0  0  0
   15.9904  -29.1488    0.0000 C   0  0  0  0  0  0  0  0  0  0  0  0
   16.6985  -29.5578    0.0000 N   0  0  0  0  0  0  0  0  0  0  0  0
   16.6967  -27.9204    0.0000 C   0  0  0  0  0  0  0  0  0  0  0  0
   17.4053  -28.3257    0.0000 C   0  0  0  0  0  0  0  0  0  0  0  0
   17.4101  -29.1443    0.0000 C   0  0  0  0  0  0  0  0  0  0  0  0
   18.1902  -29.3927    0.0000 N   0  0  0  0  0  0  0  0  0  0  0  0
   18.6675  -28.7276    0.0000 C   0  0  0  0  0  0  0  0  0  0  0  0
   18.1824  -28.0682    0.0000 C   0  0  0  0  0  0  0  0  0  0  0  0
   16.6911  -27.1060    0.0000 C   0  0  0  0  0  0  0  0  0  0  0  0
   17.3508  -26.6236    0.0000 C   0  0  0  0  0  0  0  0  0  0  0  0
   17.0959  -25.8472    0.0000 N   0  0  0  0  0  0  0  0  0  0  0  0
   16.2787  -25.8496    0.0000 N   0  0  0  0  0  0  0  0  0  0  0  0
   16.0286  -26.6276    0.0000 C   0  0  0  0  0  0  0  0  0  0  0  0
   15.2824  -29.5568    0.0000 N   0  0  0  0  0  0  0  0  0  0  0  0
   14.5750  -29.1477    0.0000 C   0  0  0  0  0  0  0  0  0  0  0  0
   14.5802  -28.3306    0.0000 C   0  0  0  0  0  0  0  0  0  0  0  0
   13.8737  -27.9215    0.0000 C   0  0  0  0  0  0  0  0  0  0  0  0
   13.1647  -28.3296    0.0000 C   0  0  0  0  0  0  0  0  0  0  0  0
   13.1666  -29.1510    0.0000 C   0  0  0  0  0  0  0  0  0  0  0  0
   13.8738  -29.5564    0.0000 C   0  0  0  0  0  0  0  0  0  0  0  0
   12.4567  -27.9214    0.0000 C   0  0  0  0  0  0  0  0  0  0  0  0
   12.4563  -27.1042    0.0000 O   0  0  0  0  0  0  0  0  0  0  0  0
   11.7492  -28.3304    0.0000 N   0  0  0  0  0  0  0  0  0  0  0  0
   11.0413  -27.9222    0.0000 C   0  0  0  0  0  0  0  0  0  0  0  0
   17.5743  -25.1846    0.0000 C   0  0  0  0  0  0  0  0  0  0  0  0
   18.3853  -25.0544    0.0000 C   0  0  0  0  0  0  0  0  0  0  0  0
   18.2550  -24.2476    0.0000 N   0  0  0  0  0  0  0  0  0  0  0  0
   17.4483  -24.3779    0.0000 C   0  0  0  0  0  0  0  0  0  0  0  0
   19.5463  -23.6680    0.0000 C   0  0  0  0  0  0  0  0  0  0  0  0
   20.0260  -23.0065    0.0000 C   0  0  0  0  0  0  0  0  0  0  0  0
   18.1516  -25.7622    0.0000 C   0  0  0  0  0  0  0  0  0  0  0  0
   18.9409  -25.5508    0.0000 C   0  0  0  0  0  0  0  0  0  0  0  0
   19.7294  -25.3407    0.0000 N   0  0  0  0  0  0  0  0  0  0  0  0
   10.3338  -28.3311    0.0000 C   0  0  0  0  0  0  0  0  0  0  0  0
    9.6259  -27.9229    0.0000 C   0  0  0  0  0  0  0  0  0  0  0  0
    8.9184  -28.3319    0.0000 C   0  0  0  0  0  0  0  0  0  0  0  0
    8.2105  -27.9237    0.0000 N   0  0  0  0  0  0  0  0  0  0  0  0
    7.5030  -28.3327    0.0000 C   0  0  0  0  0  0  0  0  0  0  0  0
    6.0913  -29.1498    0.0000 C   0  0  0  0  0  0  0  0  0  0  0  0
    6.8042  -29.5579    0.0000 C   0  0  0  0  0  0  0  0  0  0  0  0
    7.5083  -29.1473    0.0000 C   0  0  0  0  0  0  0  0  0  0  0  0
    6.0913  -28.3318    0.0000 C   0  0  0  0  0  0  0  0  0  0  0  0
    6.8000  -27.9190    0.0000 C   0  0  0  0  0  0  0  0  0  0  0  0
    5.3828  -27.9245    0.0000 C   0  0  0  0  0  0  0  0  0  0  0  0
    4.6759  -28.3345    0.0000 C   0  0  0  0  0  0  0  0  0  0  0  0
    3.9674  -27.9272    0.0000 C   0  0  0  0  0  0  0  0  0  0  0  0
    3.9658  -27.1101    0.0000 C   0  0  0  0  0  0  0  0  0  0  0  0
    4.6727  -26.7001    0.0000 N   0  0  0  0  0  0  0  0  0  0  0  0
    5.3812  -27.1073    0.0000 C   0  0  0  0  0  0  0  0  0  0  0  0
    6.0881  -26.6974    0.0000 O   0  0  0  0  0  0  0  0  0  0  0  0
    3.2573  -26.7028    0.0000 O   0  0  0  0  0  0  0  0  0  0  0  0
  2  1  2  0
  3  2  2  0
  4  5  2  0
  5  6  1  0
  6  9  2  0
  8  7  2  0
  7  4  1  0
  8  9  1  0
  9 10  1  0
 10 11  1  0
 11 12  2  0
 12  8  1  0
 13 14  2  0
 14 15  1  0
 15 16  1  0
 16 17  2  0
 17 13  1  0
  7 13  1  0
  5 18  1  0
 18 19  1  0
 19 20  2  0
 20 21  1  0
 21 22  2  0
 22 23  1  0
 23 24  2  0
 24 19  1  0
 22 25  1  0
 25 26  2  0
 25 27  1  0
 27 28  1  0
 15 29  1  0
 29 30  1  0
 30 31  1  0
 31 32  1  0
 32 29  1  0
 31  2  1  0
  2 33  1  0
 33 34  1  0
 29 35  1  0
 35 36  1  0
 36 37  3  0
 28 38  1  0
 38 39  1  0
 39 40  1  0
 40 41  1  0
 41 42  1  0
 42 47  2  0
 46 43  2  0
 43 44  1  0
 44 45  2  0
 45 42  1  0
 46 47  1  0
 46 48  1  0
 48 53  1  0
 48 49  1  0
 49 50  1  0
 50 51  1  0
 51 52  1  0
 52 53  1  0
 53 54  2  0
 51 55  2  0
M  END
> <From>
www.bindingDB.org

> <BindingDB Reactant_set_id>
51451985

> <Ligand InChI>


> <Ligand InChI Key>


> <BindingDB MonomerID>
50586180

> <BindingDB Ligand Name>
CHEMBL5082689

> <Target Name>
Protein cereblon

> <Target Source Organism According to Curator or DataSource>
Human

> <Ki (nM)>


> <IC50 (nM)>
 1.1

> <Kd (nM)>


> <EC50 (nM)>


> <kon (M-1-s-1)>


> <koff (s-1)>


> <pH>


> <Temp C>


> <Curation/DataSource>
ChEMBL

> <Article DOI>
10.1021/acsmedchemlett.1c00650

> <BindingDB Entry DOI>
10.7270/Q2D79GBF

> <PMID>
35300081

> <PubChem AID>


> <Patent Number>


> <Authors>
Alcock, LJ; Chang, Y; Jarusiewicz, JA; Actis, M; Nithianantham, S; Mayasundari, A; Min, J; Maxwell, D; Hunt, J; Smart, B; Yang, JJ; Nishiguchi, G; Fischer, M; Mullighan, CG; Rankovic, Z

> <Date of publication>
3/10/2022

> <Date in BindingDB>
3/7/2023

> <Institution>
St. Jude Children's Research Hospital

> <Link to Ligand in BindingDB>
http://www.bindingdb.org/bind/chemsearch/marvin/MolStructure.jsp?monomerid=50586180

> <Link to Ligand-Target Pair in BindingDB>
http://www.bindingdb.org/jsp/dbsearch/PrimarySearch_ki.jsp?energyterm=kJ/mole&tag=pol&polymerid=50007050&target=Protein+cereblon&column=ki&startPg=0&Increment=50&submit=Search

> <Link to Ligand-Target Pair in BindingDB>
http://www.bindingdb.org/jsp/dbsearch/PrimarySearch_ki.jsp?energyterm=kJ/mole&tag=r21&monomerid=50586180&enzyme=Protein+cereblon&column=ki&startPg=0&Increment=50&submit=Search

> <Ligand HET ID in PDB>


> <PDB ID(s) for Ligand-Target Complex>


> <PubChem CID of Ligand>
164540976

> <PubChem SID of Ligand>
476022267

> <ChEBI ID of Ligand>


> <ChEMBL ID of Ligand>


> <DrugBank ID of Ligand>


> <IUPHAR_GRAC ID of Ligand>


> <KEGG ID of Ligand>


> <ZINC ID of Ligand>


> <Number of Protein Chains in Target (bigger than 1 implies a multichain complex)>
1

> <BindingDB Target Chain Sequence>
MAGEGDQQDAAHNMGNHLPLLPAESEEEDEMEVEDQDSKEAKKPNIINFDTSLPTSHTYLGADMEEFHGRTLHDDDSCQVIPVLPQVMMILIPGQTLPLQLFHPQEVSMVRNLIQKDRTFAVLAYSNVQEREAQFGTTAEIYAYREEQDFGIEIVKVKAIGRQRFKVLELRTQSDGIQQAKVQILPECVLPSTMSAVQLESLNKCQIFPSKPVSREDQCSYKWWQKYQKRKFHCANLTSWPRWLYSLYDAETLMDRIKKQLREWDENLKDDSLPSNPIDFSYRVAACLPIDDVLRIQLLKIGSAIQRLRCELDIMNKCTSLCCKQCQETEITTKNEIFSLSLCGPMAAYVNPHGYVHETLTVYKACNLNLIGRPSTEHSWFPGYAWTVAQCKICASHIGWKFTATKKDMSPQKFWGLTRSALLPTIPDTEDEISPDKVILCL

> <PDB ID(s) of Target Chain>
4TZ4,5HXB,5V3O,6UML,6XK9,7LPS,7U8F,8CVP,8D7U,8D7V,8D7W,8D7X,8D7Y,8D7Z,8D80,8D81,8DEY,8OIZ,8OJH

> <UniProt (SwissProt) Recommended Name of Target Chain>
Protein cereblon

> <UniProt (SwissProt) Entry Name of Target Chain>
CRBN_HUMAN

> <UniProt (SwissProt) Primary ID of Target Chain>
Q96SW2

> <UniProt (SwissProt) Secondary ID(s) of Target Chain>
B2R6H4 C9IZA9 C9JAH6 Q6AI62 Q6NVZ0 Q9UHW4

> <UniProt (SwissProt) Alternative ID(s) of Target Chain>


> <UniProt (TrEMBL) Submitted Name of Target Chain>


> <UniProt (TrEMBL) Entry Name of Target Chain>


> <UniProt (TrEMBL) Primary ID of Target Chain>


> <UniProt (TrEMBL) Secondary ID(s) of Target Chain>


> <UniProt (TrEMBL) Alternative ID(s) of Target Chain>


$$$$
 
     RDKit          2D

 22 24  0  0  0  0  0  0  0  0999 V2000
   -3.4064    1.4812    0.0000 O   0  0  0  0  0  0  0  0  0  0  0  0
   -2.5815    1.4812    0.0000 O   0  0  0  0  0  0  0  0  0  0  0  0
   -3.7074    0.3547    0.0000 F   0  0  0  0  0  0  0  0  0  0  0  0
   -2.9941    0.7666    0.0000 S   0  0  0  0  0  0  0  0  0  0  0  0
    0.1415    1.4072    0.0000 O   0  0  0  0  0  0  0  0  0  0  0  0
    3.7074   -0.0543    0.0000 O   0  0  0  0  0  0  0  0  0  0  0  0
    1.2359   -1.4812    0.0000 O   0  0  0  0  0  0  0  0  0  0  0  0
   -1.5708    0.7704    0.0000 C   0  0  0  0  0  0  0  0  0  0  0  0
   -2.2808    0.3547    0.0000 C   0  0  0  0  0  0  0  0  0  0  0  0
   -2.2790   -0.4644    0.0000 C   0  0  0  0  0  0  0  0  0  0  0  0
   -1.5657   -0.8759    0.0000 C   0  0  0  0  0  0  0  0  0  0  0  0
   -0.0716    0.6116    0.0000 C   0  0  0  0  0  0  0  0  0  0  0  0
   -0.8547    0.3572    0.0000 C   0  0  0  0  0  0  0  0  0  0  0  0
   -0.8547   -0.4660    0.0000 C   0  0  0  0  0  0  0  0  0  0  0  0
   -0.0716   -0.7204    0.0000 C   0  0  0  0  0  0  0  0  0  0  0  0
    0.4121   -0.0543    0.0000 N   0  0  0  0  0  0  0  0  0  0  0  0
    1.6478    0.6591    0.0000 C   0  0  0  0  0  0  0  0  0  0  0  0
    1.2359   -0.0543    0.0000 C   0  0  0  0  0  0  0  0  0  0  0  0
    1.6478   -0.7679    0.0000 C   0  0  0  0  0  0  0  0  0  0  0  0
    2.4718   -0.7679    0.0000 N   0  0  0  0  0  0  0  0  0  0  0  0
    2.8838   -0.0543    0.0000 C   0  0  0  0  0  0  0  0  0  0  0  0
    2.4718    0.6591    0.0000 C   0  0  0  0  0  0  0  0  0  0  0  0
  1  4  2  0
  2  4  2  0
  3  4  1  0
  4  9  1  0
  8  9  2  0
  9 10  1  0
 10 11  2  0
  5 12  2  0
  8 13  1  0
 12 13  1  0
 11 14  1  0
 13 14  2  0
 14 15  1  0
 12 16  1  0
 15 16  1  0
 16 18  1  0
 17 18  1  0
  7 19  2  0
 18 19  1  0
 19 20  1  0
  6 21  2  0
 20 21  1  0
 17 22  1  0
 21 22  1  0
M  END
> <From>
www.bindingDB.org

> <BindingDB Reactant_set_id>
51568394

> <Ligand InChI>
InChI=1S/C13H11FN2O5S/c14-22(20,21)8-2-1-7-6-16(13(19)9(7)5-8)10-3-4-11(17)15-12(10)18/h1-2,5,10H,3-4,6H2,(H,15,17,18)

> <Ligand InChI Key>
IAJNULNMWPZFDR-UHFFFAOYSA-N

> <BindingDB MonomerID>
50630767

> <BindingDB Ligand Name>
CHEMBL5279477

> <Target Name>
Protein cereblon

> <Target Source Organism According to Curator or DataSource>
Homo sapiens

> <Ki (nM)>


> <IC50 (nM)>
 1.1

> <Kd (nM)>


> <EC50 (nM)>


> <kon (M-1-s-1)>


> <koff (s-1)>


> <pH>


> <Temp C>


> <Curation/DataSource>
ChEMBL

> <Article DOI>
10.1021/acsmedchemlett.3c00371

> <BindingDB Entry DOI>
10.7270/Q28D01RH

> <PMID>
37974938

> <PubChem AID>


> <Patent Number>


> <Authors>
Cruite, JT; Nowak, RP; Donovan, KA; Ficarro, SB; Huang, H; Liu, H; Liu, Y; Marto, JA; Metivier, RJ; Fischer, ES; Jones, LH

> <Date of publication>
11/9/2023

> <Date in BindingDB>
12/20/2024

> <Institution>
Dana-Farber Cancer Institute

> <Link to Ligand in BindingDB>
http://www.bindingdb.org/bind/chemsearch/marvin/MolStructure.jsp?monomerid=50630767

> <Link to Ligand-Target Pair in BindingDB>
http://www.bindingdb.org/jsp/dbsearch/PrimarySearch_ki.jsp?energyterm=kJ/mole&tag=pol&polymerid=50007050&target=Protein+cereblon&column=ki&startPg=0&Increment=50&submit=Search

> <Link to Ligand-Target Pair in BindingDB>
http://www.bindingdb.org/jsp/dbsearch/PrimarySearch_ki.jsp?energyterm=kJ/mole&tag=r21&monomerid=50630767&enzyme=Protein+cereblon&column=ki&startPg=0&Increment=50&submit=Search

> <Ligand HET ID in PDB>


> <PDB ID(s) for Ligand-Target Complex>


> <PubChem CID of Ligand>
165670019

> <PubChem SID of Ligand>
505048738

> <ChEBI ID of Ligand>


> <ChEMBL ID of Ligand>


> <DrugBank ID of Ligand>


> <IUPHAR_GRAC ID of Ligand>


> <KEGG ID of Ligand>


> <ZINC ID of Ligand>


> <Number of Protein Chains in Target (bigger than 1 implies a multichain complex)>
1

> <BindingDB Target Chain Sequence>
MAGEGDQQDAAHNMGNHLPLLPAESEEEDEMEVEDQDSKEAKKPNIINFDTSLPTSHTYLGADMEEFHGRTLHDDDSCQVIPVLPQVMMILIPGQTLPLQLFHPQEVSMVRNLIQKDRTFAVLAYSNVQEREAQFGTTAEIYAYREEQDFGIEIVKVKAIGRQRFKVLELRTQSDGIQQAKVQILPECVLPSTMSAVQLESLNKCQIFPSKPVSREDQCSYKWWQKYQKRKFHCANLTSWPRWLYSLYDAETLMDRIKKQLREWDENLKDDSLPSNPIDFSYRVAACLPIDDVLRIQLLKIGSAIQRLRCELDIMNKCTSLCCKQCQETEITTKNEIFSLSLCGPMAAYVNPHGYVHETLTVYKACNLNLIGRPSTEHSWFPGYAWTVAQCKICASHIGWKFTATKKDMSPQKFWGLTRSALLPTIPDTEDEISPDKVILCL

> <PDB ID(s) of Target Chain>
8TNR,8TNQ,8TNP,8D81,8D80,8D7Z,8D7Y,8D7X,8D7W,8D7V,8D7U,8CVP,9DQD,8UH6,6BOY,6BNB,6BN9,6BN8,6BN7,6XK9,6UML,5V3O,5HXB,7U8F,8OJH,8OIZ,7LPS,4TZ4,9DJX,9DJT,8U17,8U16,8U15,8TZX,8DEY,9CUO,4M91

> <UniProt (SwissProt) Recommended Name of Target Chain>
Protein cereblon

> <UniProt (SwissProt) Entry Name of Target Chain>
CRBN_HUMAN

> <UniProt (SwissProt) Primary ID of Target Chain>
Q96SW2

> <UniProt (SwissProt) Secondary ID(s) of Target Chain>
B2R6H4 C9IZA9 C9JAH6 Q6AI62 Q6NVZ0 Q9UHW4

> <UniProt (SwissProt) Alternative ID(s) of Target Chain>


> <UniProt (TrEMBL) Submitted Name of Target Chain>


> <UniProt (TrEMBL) Entry Name of Target Chain>


> <UniProt (TrEMBL) Primary ID of Target Chain>


> <UniProt (TrEMBL) Secondary ID(s) of Target Chain>


> <UniProt (TrEMBL) Alternative ID(s) of Target Chain>


$$$$
 
     RDKit          2D

 22 24  0  0  0  0  0  0  0  0999 V2000
   -3.4064    1.4812    0.0000 O   0  0  0  0  0  0  0  0  0  0  0  0
   -2.5815    1.4812    0.0000 O   0  0  0  0  0  0  0  0  0  0  0  0
   -3.7074    0.3547    0.0000 F   0  0  0  0  0  0  0  0  0  0  0  0
   -2.9941    0.7666    0.0000 S   0  0  0  0  0  0  0  0  0  0  0  0
    0.1415    1.4072    0.0000 O   0  0  0  0  0  0  0  0  0  0  0  0
    3.7074   -0.0543    0.0000 O   0  0  0  0  0  0  0  0  0  0  0  0
    1.2359   -1.4812    0.0000 O   0  0  0  0  0  0  0  0  0  0  0  0
   -1.5708    0.7704    0.0000 C   0  0  0  0  0  0  0  0  0  0  0  0
   -2.2808    0.3547    0.0000 C   0  0  0  0  0  0  0  0  0  0  0  0
   -2.2790   -0.4644    0.0000 C   0  0  0  0  0  0  0  0  0  0  0  0
   -1.5657   -0.8759    0.0000 C   0  0  0  0  0  0  0  0  0  0  0  0
   -0.0716    0.6116    0.0000 C   0  0  0  0  0  0  0  0  0  0  0  0
   -0.8547    0.3572    0.0000 C   0  0  0  0  0  0  0  0  0  0  0  0
   -0.8547   -0.4660    0.0000 C   0  0  0  0  0  0  0  0  0  0  0  0
   -0.0716   -0.7204    0.0000 C   0  0  0  0  0  0  0  0  0  0  0  0
    0.4121   -0.0543    0.0000 N   0  0  0  0  0  0  0  0  0  0  0  0
    1.6478    0.6591    0.0000 C   0  0  0  0  0  0  0  0  0  0  0  0
    1.2359   -0.0543    0.0000 C   0  0  0  0  0  0  0  0  0  0  0  0
    1.6478   -0.7679    0.0000 C   0  0  0  0  0  0  0  0  0  0  0  0
    2.4718   -0.7679    0.0000 N   0  0  0  0  0  0  0  0  0  0  0  0
    2.8838   -0.0543    0.0000 C   0  0  0  0  0  0  0  0  0  0  0  0
    2.4718    0.6591    0.0000 C   0  0  0  0  0  0  0  0  0  0  0  0
  1  4  2  0
  2  4  2  0
  3  4  1  0
  4  9  1  0
  8  9  2  0
  9 10  1  0
 10 11  2  0
  5 12  2  0
  8 13  1  0
 12 13  1  0
 11 14  1  0
 13 14  2  0
 14 15  1  0
 12 16  1  0
 15 16  1  0
 16 18  1  0
 17 18  1  0
  7 19  2  0
 18 19  1  0
 19 20  1  0
  6 21  2  0
 20 21  1  0
 17 22  1  0
 21 22  1  0
M  END
> <From>
www.bindingDB.org

> <BindingDB Reactant_set_id>
51570912

> <Ligand InChI>
InChI=1S/C13H11FN2O5S/c14-22(20,21)8-2-1-7-6-16(13(19)9(7)5-8)10-3-4-11(17)15-12(10)18/h1-2,5,10H,3-4,6H2,(H,15,17,18)

> <Ligand InChI Key>
IAJNULNMWPZFDR-UHFFFAOYSA-N

> <BindingDB MonomerID>
50630767

> <BindingDB Ligand Name>
CHEMBL5279477

> <Target Name>
Protein cereblon

> <Target Source Organism According to Curator or DataSource>
Homo sapiens

> <Ki (nM)>


> <IC50 (nM)>
 1.1

> <Kd (nM)>


> <EC50 (nM)>


> <kon (M-1-s-1)>


> <koff (s-1)>


> <pH>


> <Temp C>


> <Curation/DataSource>
ChEMBL

> <Article DOI>
10.1039/d3md00652b

> <BindingDB Entry DOI>
10.7270/Q2CV4P64

> <PMID>
38389883

> <PubChem AID>


> <Patent Number>


> <Authors>
Liu, Y; Nowak, RP; Che, J; Donovan, KA; Huerta, F; Liu, H; Metivier, RJ; Fischer, ES; Jones, LH

> <Date of publication>
2/21/2024

> <Date in BindingDB>
12/21/2024

> <Institution>
Dana-Farber Cancer Institute

> <Link to Ligand in BindingDB>
http://www.bindingdb.org/bind/chemsearch/marvin/MolStructure.jsp?monomerid=50630767

> <Link to Ligand-Target Pair in BindingDB>
http://www.bindingdb.org/jsp/dbsearch/PrimarySearch_ki.jsp?energyterm=kJ/mole&tag=pol&polymerid=50007050&target=Protein+cereblon&column=ki&startPg=0&Increment=50&submit=Search

> <Link to Ligand-Target Pair in BindingDB>
http://www.bindingdb.org/jsp/dbsearch/PrimarySearch_ki.jsp?energyterm=kJ/mole&tag=r21&monomerid=50630767&enzyme=Protein+cereblon&column=ki&startPg=0&Increment=50&submit=Search

> <Ligand HET ID in PDB>


> <PDB ID(s) for Ligand-Target Complex>


> <PubChem CID of Ligand>
165670019

> <PubChem SID of Ligand>
505048738

> <ChEBI ID of Ligand>


> <ChEMBL ID of Ligand>


> <DrugBank ID of Ligand>


> <IUPHAR_GRAC ID of Ligand>


> <KEGG ID of Ligand>


> <ZINC ID of Ligand>


> <Number of Protein Chains in Target (bigger than 1 implies a multichain complex)>
1

> <BindingDB Target Chain Sequence>
MAGEGDQQDAAHNMGNHLPLLPAESEEEDEMEVEDQDSKEAKKPNIINFDTSLPTSHTYLGADMEEFHGRTLHDDDSCQVIPVLPQVMMILIPGQTLPLQLFHPQEVSMVRNLIQKDRTFAVLAYSNVQEREAQFGTTAEIYAYREEQDFGIEIVKVKAIGRQRFKVLELRTQSDGIQQAKVQILPECVLPSTMSAVQLESLNKCQIFPSKPVSREDQCSYKWWQKYQKRKFHCANLTSWPRWLYSLYDAETLMDRIKKQLREWDENLKDDSLPSNPIDFSYRVAACLPIDDVLRIQLLKIGSAIQRLRCELDIMNKCTSLCCKQCQETEITTKNEIFSLSLCGPMAAYVNPHGYVHETLTVYKACNLNLIGRPSTEHSWFPGYAWTVAQCKICASHIGWKFTATKKDMSPQKFWGLTRSALLPTIPDTEDEISPDKVILCL

> <PDB ID(s) of Target Chain>
8TNR,8TNQ,8TNP,8D81,8D80,8D7Z,8D7Y,8D7X,8D7W,8D7V,8D7U,8CVP,9DQD,8UH6,6BOY,6BNB,6BN9,6BN8,6BN7,6XK9,6UML,5V3O,5HXB,7U8F,8OJH,8OIZ,7LPS,4TZ4,9DJX,9DJT,8U17,8U16,8U15,8TZX,8DEY,9CUO,4M91

> <UniProt (SwissProt) Recommended Name of Target Chain>
Protein cereblon

> <UniProt (SwissProt) Entry Name of Target Chain>
CRBN_HUMAN

> <UniProt (SwissProt) Primary ID of Target Chain>
Q96SW2

> <UniProt (SwissProt) Secondary ID(s) of Target Chain>
B2R6H4 C9IZA9 C9JAH6 Q6AI62 Q6NVZ0 Q9UHW4

> <UniProt (SwissProt) Alternative ID(s) of Target Chain>


> <UniProt (TrEMBL) Submitted Name of Target Chain>


> <UniProt (TrEMBL) Entry Name of Target Chain>


> <UniProt (TrEMBL) Primary ID of Target Chain>


> <UniProt (TrEMBL) Secondary ID(s) of Target Chain>


> <UniProt (TrEMBL) Alternative ID(s) of Target Chain>


$$$$

     RDKit          2D

 60 69  0  0  0  0  0  0  0  0999 V2000
    8.4625   12.0858    0.0000 C   0  0  0  0  0  0  0  0  0  0  0  0
    6.9708   12.2426    0.0000 C   0  0  0  0  0  0  0  0  0  0  0  0
    6.3607   13.6129    0.0000 O   0  0  0  0  0  0  0  0  0  0  0  0
    6.0891   11.0291    0.0000 N   0  0  0  0  0  0  0  0  0  0  0  0
    4.5973   11.1859    0.0000 C   0  0  0  0  0  0  0  0  0  0  0  0
    3.7156    9.9724    0.0000 C   0  0  0  0  0  0  0  0  0  0  0  0
    4.3257    8.6021    0.0000 C   0  0  0  0  0  0  0  0  0  0  0  0
    5.8175    8.4453    0.0000 C   0  0  0  0  0  0  0  0  0  0  0  0
    6.1294    6.9780    0.0000 C   0  0  0  0  0  0  0  0  0  0  0  0
    7.4997    6.3679    0.0000 N   0  0  0  0  0  0  0  0  0  0  0  0
    8.7132    7.2496    0.0000 C   0  0  0  0  0  0  0  0  0  0  0  0
   10.0835    6.6395    0.0000 C   0  0  0  0  0  0  0  0  0  0  0  0
   10.2403    5.1477    0.0000 C   0  0  0  0  0  0  0  0  0  0  0  0
    9.0268    4.2660    0.0000 C   0  0  0  0  0  0  0  0  0  0  0  0
    9.1836    2.7743    0.0000 C   0  0  0  0  0  0  0  0  0  0  0  0
    7.9701    1.8926    0.0000 C   0  0  0  0  0  0  0  0  0  0  0  0
    8.1269    0.4008    0.0000 C   0  0  0  0  0  0  0  0  0  0  0  0
    7.0121   -0.6029    0.0000 C   0  0  0  0  0  0  0  0  0  0  0  0
    7.6223   -1.9732    0.0000 N   0  0  0  0  0  0  0  0  0  0  0  0
    9.1140   -1.8164    0.0000 N   0  0  0  0  0  0  0  0  0  0  0  0
   10.1177   -2.9311    0.0000 C   0  0  0  0  0  0  0  0  0  0  0  0
    9.4259   -0.3492    0.0000 C   0  0  0  0  0  0  0  0  0  0  0  0
    6.5998    2.5027    0.0000 C   0  0  0  0  0  0  0  0  0  0  0  0
    5.3862    1.6210    0.0000 C   0  0  0  0  0  0  0  0  0  0  0  0
    4.0159    2.2311    0.0000 F   0  0  0  0  0  0  0  0  0  0  0  0
    5.5430    0.1292    0.0000 F   0  0  0  0  0  0  0  0  0  0  0  0
    6.4430    3.9945    0.0000 C   0  0  0  0  0  0  0  0  0  0  0  0
    7.6565    4.8761    0.0000 C   0  0  0  0  0  0  0  0  0  0  0  0
    4.8303    6.2280    0.0000 N   0  0  0  0  0  0  0  0  0  0  0  0
    3.7156    7.2317    0.0000 N   0  0  0  0  0  0  0  0  0  0  0  0
    2.2484    6.9199    0.0000 C   0  0  0  0  0  0  0  0  0  0  0  0
    1.7849    5.4933    0.0000 C   0  0  0  0  0  0  0  0  0  0  0  0
    0.3177    5.1814    0.0000 C   0  0  0  0  0  0  0  0  0  0  0  0
   -0.1459    3.7548    0.0000 C   0  0  0  0  0  0  0  0  0  0  0  0
    0.8578    2.6401    0.0000 C   0  0  0  0  0  0  0  0  0  0  0  0
    0.3943    1.2135    0.0000 N   0  0  0  0  0  0  0  0  0  0  0  0
    1.2760    0.0000    0.0000 C   0  0  0  0  0  0  0  0  0  0  0  0
    0.3943   -1.2135    0.0000 C   0  0  0  0  0  0  0  0  0  0  0  0
    0.7062   -2.6807    0.0000 C   0  0  0  0  0  0  0  0  0  0  0  0
   -0.4086   -3.6844    0.0000 C   0  0  0  0  0  0  0  0  0  0  0  0
   -1.8351   -3.2209    0.0000 C   0  0  0  0  0  0  0  0  0  0  0  0
   -2.1470   -1.7537    0.0000 C   0  0  0  0  0  0  0  0  0  0  0  0
   -1.0323   -0.7500    0.0000 C   0  0  0  0  0  0  0  0  0  0  0  0
   -1.0323    0.7500    0.0000 C   0  0  0  0  0  0  0  0  0  0  0  0
   -2.7168   -4.4344    0.0000 C   0  0  0  0  0  0  0  0  0  0  0  0
   -4.2168   -4.4344    0.0000 O   0  0  0  0  0  0  0  0  0  0  0  0
   -1.8351   -5.6480    0.0000 N   0  0  0  0  0  0  0  0  0  0  0  0
   -2.2987   -7.0746    0.0000 C   0  0  0  0  0  0  0  0  0  0  0  0
   -3.7659   -7.3864    0.0000 C   0  0  0  0  0  0  0  0  0  0  0  0
   -4.2294   -8.8130    0.0000 C   0  0  0  0  0  0  0  0  0  0  0  0
   -3.2257   -9.9277    0.0000 C   0  0  0  0  0  0  0  0  0  0  0  0
   -3.6892  -11.3543    0.0000 O   0  0  0  0  0  0  0  0  0  0  0  0
   -1.7585   -9.6159    0.0000 N   0  0  0  0  0  0  0  0  0  0  0  0
   -1.2950   -8.1893    0.0000 C   0  0  0  0  0  0  0  0  0  0  0  0
    0.1723   -7.8774    0.0000 O   0  0  0  0  0  0  0  0  0  0  0  0
   -0.4086   -5.1844    0.0000 C   0  0  0  0  0  0  0  0  0  0  0  0
    0.8050   -6.0661    0.0000 O   0  0  0  0  0  0  0  0  0  0  0  0
    2.3250    2.9520    0.0000 C   0  0  0  0  0  0  0  0  0  0  0  0
    2.7886    4.3786    0.0000 C   0  0  0  0  0  0  0  0  0  0  0  0
    6.6992    9.6588    0.0000 C   0  0  0  0  0  0  0  0  0  0  0  0
  1  2  1  0
  2  3  2  0
  2  4  1  0
  4  5  1  0
  5  6  1  0
  6  7  1  0
  7  8  2  0
  8  9  1  0
  9 10  1  0
 10 11  1  0
 11 12  1  0
 12 13  1  0
 13 14  1  0
 14 15  2  0
 15 16  1  0
 16 17  1  0
 17 18  1  0
 18 19  2  0
 19 20  1  0
 20 21  1  0
 20 22  1  0
 16 23  2  0
 23 24  1  0
 24 25  1  0
 24 26  1  0
 23 27  1  0
 27 28  2  0
  9 29  2  0
 29 30  1  0
 30 31  1  0
 31 32  1  0
 32 33  1  0
 33 34  1  0
 34 35  1  0
 35 36  1  0
 36 37  1  0
 37 38  1  0
 38 39  2  0
 39 40  1  0
 40 41  2  0
 41 42  1  0
 42 43  2  0
 43 44  1  0
 41 45  1  0
 45 46  2  0
 45 47  1  0
 47 48  1  0
 48 49  1  0
 49 50  1  0
 50 51  1  0
 51 52  2  0
 51 53  1  0
 53 54  1  0
 54 55  2  0
 47 56  1  0
 56 57  2  0
 35 58  1  0
 58 59  1  0
  8 60  1  0
 60  4  1  0
 30  7  1  0
 59 32  1  0
 28 10  1  0
 44 36  1  0
 54 48  1  0
 28 14  1  0
 43 38  1  0
 22 17  2  0
 56 40  1  0
M  END
> <From>
www.bindingDB.org

> <BindingDB Reactant_set_id>
51598328

> <Ligand InChI>
InChI=1S/C44H47F2N9O5/c1-24(56)51-13-11-36-35(23-51)41(53-12-3-4-26-14-31(29-18-47-50(2)20-29)32(40(45)46)17-38(26)53)49-54(36)19-25-5-7-30(8-6-25)52-21-27-15-33-34(16-28(27)22-52)44(60)55(43(33)59)37-9-10-39(57)48-42(37)58/h14-18,20,25,30,37,40H,3-13,19,21-23H2,1-2H3,(H,48,57,58)

> <Ligand InChI Key>
NYSBJQXVHZZLDQ-UHFFFAOYSA-N

> <BindingDB MonomerID>
50643725

> <BindingDB Ligand Name>
CHEMBL5575548

> <Target Name>
Protein cereblon

> <Target Source Organism According to Curator or DataSource>
Human

> <Ki (nM)>


> <IC50 (nM)>
 1.1

> <Kd (nM)>


> <EC50 (nM)>


> <kon (M-1-s-1)>


> <koff (s-1)>


> <pH>


> <Temp C>


> <Curation/DataSource>
ChEMBL

> <Article DOI>


> <BindingDB Entry DOI>
10.7270/Q2VM4HXD

> <PMID>
38477974

> <PubChem AID>


> <Patent Number>


> <Authors>
Chen, Z; Wang, M; Wu, D; Bai, L; Xu, T; Metwally, H; Wang, Y; McEachern, D; Zhao, L; Li, R; Takyi-Williams, J; Wang, M; Wang, L; Li, Q; Wen, B; Sun, D; Wang, S

> <Date of publication>
//0

> <Date in BindingDB>
10/12/2025

> <Institution>
University of Michigan

> <Link to Ligand in BindingDB>
http://www.bindingdb.org/bind/chemsearch/marvin/MolStructure.jsp?monomerid=50643725

> <Link to Ligand-Target Pair in BindingDB>
http://www.bindingdb.org/rwd/jsp/dbsearch/PrimarySearch_ki.jsp?energyterm=kJ/mole&tag=pol&polymerid=50007050&target=Protein+cereblon&column=ki&startPg=0&Increment=50&submit=Search

> <Link to Ligand-Target Pair in BindingDB>
http://www.bindingdb.org/rwd/jsp/dbsearch/PrimarySearch_ki.jsp?energyterm=kJ/mole&tag=r21&monomerid=50643725&enzyme=Protein+cereblon&column=ki&startPg=0&Increment=50&submit=Search

> <Ligand HET ID in PDB>


> <PDB ID(s) for Ligand-Target Complex>


> <PubChem CID of Ligand>
164919396

> <PubChem SID of Ligand>
519669129

> <ChEBI ID of Ligand>


> <ChEMBL ID of Ligand>


> <DrugBank ID of Ligand>


> <IUPHAR_GRAC ID of Ligand>


> <KEGG ID of Ligand>


> <ZINC ID of Ligand>


> <Number of Protein Chains in Target (bigger than 1 implies a multichain complex)>
1

> <BindingDB Target Chain Sequence>
MAGEGDQQDAAHNMGNHLPLLPAESEEEDEMEVEDQDSKEAKKPNIINFDTSLPTSHTYLGADMEEFHGRTLHDDDSCQVIPVLPQVMMILIPGQTLPLQLFHPQEVSMVRNLIQKDRTFAVLAYSNVQEREAQFGTTAEIYAYREEQDFGIEIVKVKAIGRQRFKVLELRTQSDGIQQAKVQILPECVLPSTMSAVQLESLNKCQIFPSKPVSREDQCSYKWWQKYQKRKFHCANLTSWPRWLYSLYDAETLMDRIKKQLREWDENLKDDSLPSNPIDFSYRVAACLPIDDVLRIQLLKIGSAIQRLRCELDIMNKCTSLCCKQCQETEITTKNEIFSLSLCGPMAAYVNPHGYVHETLTVYKACNLNLIGRPSTEHSWFPGYAWTVAQCKICASHIGWKFTATKKDMSPQKFWGLTRSALLPTIPDTEDEISPDKVILCL

> <PDB ID(s) of Target Chain>
9DUR,8TNR,8TNQ,8TNP,9DWW,9DWV,9NGT,9NFR,9NFQ,8D81,8D80,8D7Z,8D7Y,8D7X,8D7W,8D7V,8D7U,8CVP,9Q2D,9Q03,9DQD,8UH6,9SAI,9SAF,9H59,9E2U,6BOY,6BNB,6BN9,6BN8,6BN7,9OUL,9Y7D,6XK9,6UML,5V3O,5HXB,9HNE,9D0X,9D0W,7U8F,9FJX,8OJH,8OIZ,7LPS,9SFM,9OTY,4TZ4,9DJX,9DJT,8U17,8U16,8U15,8TZX,8DEY,9CUO,4M91

> <UniProt (SwissProt) Recommended Name of Target Chain>
Protein cereblon

> <UniProt (SwissProt) Entry Name of Target Chain>
CRBN_HUMAN

> <UniProt (SwissProt) Primary ID of Target Chain>
Q96SW2

> <UniProt (SwissProt) Secondary ID(s) of Target Chain>
B2R6H4 C9IZA9 C9JAH6 Q6AI62 Q6NVZ0 Q9UHW4

> <UniProt (SwissProt) Alternative ID(s) of Target Chain>


> <UniProt (TrEMBL) Submitted Name of Target Chain>


> <UniProt (TrEMBL) Entry Name of Target Chain>


> <UniProt (TrEMBL) Primary ID of Target Chain>


> <UniProt (TrEMBL) Secondary ID(s) of Target Chain>


> <UniProt (TrEMBL) Alternative ID(s) of Target Chain>


$$$$

     RDKit          2D

 59 68  0  0  0  0  0  0  0  0999 V2000
    8.8711    8.8834    0.0000 C   0  0  0  0  0  0  0  0  0  0  0  0
    7.5721    9.6334    0.0000 C   0  0  0  0  0  0  0  0  0  0  0  0
    7.5721   11.1334    0.0000 O   0  0  0  0  0  0  0  0  0  0  0  0
    6.2731    8.8834    0.0000 N   0  0  0  0  0  0  0  0  0  0  0  0
    6.2731    7.3834    0.0000 C   0  0  0  0  0  0  0  0  0  0  0  0
    4.9740    6.6334    0.0000 C   0  0  0  0  0  0  0  0  0  0  0  0
    3.6750    7.3834    0.0000 C   0  0  0  0  0  0  0  0  0  0  0  0
    3.6750    8.8834    0.0000 C   0  0  0  0  0  0  0  0  0  0  0  0
    2.2484    9.3469    0.0000 C   0  0  0  0  0  0  0  0  0  0  0  0
    1.7849   10.7735    0.0000 N   0  0  0  0  0  0  0  0  0  0  0  0
    2.7886   11.8882    0.0000 C   0  0  0  0  0  0  0  0  0  0  0  0
    2.3250   13.3148    0.0000 C   0  0  0  0  0  0  0  0  0  0  0  0
    0.8578   13.6267    0.0000 C   0  0  0  0  0  0  0  0  0  0  0  0
   -0.1459   12.5120    0.0000 C   0  0  0  0  0  0  0  0  0  0  0  0
   -1.6131   12.8238    0.0000 C   0  0  0  0  0  0  0  0  0  0  0  0
   -2.6168   11.7091    0.0000 C   0  0  0  0  0  0  0  0  0  0  0  0
   -4.0840   12.0210    0.0000 C   0  0  0  0  0  0  0  0  0  0  0  0
   -5.1987   11.0173    0.0000 C   0  0  0  0  0  0  0  0  0  0  0  0
   -6.4978   11.7673    0.0000 N   0  0  0  0  0  0  0  0  0  0  0  0
   -6.1859   13.2345    0.0000 N   0  0  0  0  0  0  0  0  0  0  0  0
   -7.1896   14.3492    0.0000 C   0  0  0  0  0  0  0  0  0  0  0  0
   -4.6941   13.3913    0.0000 C   0  0  0  0  0  0  0  0  0  0  0  0
   -2.1533   10.2825    0.0000 C   0  0  0  0  0  0  0  0  0  0  0  0
   -3.1570    9.1678    0.0000 C   0  0  0  0  0  0  0  0  0  0  0  0
   -2.6934    7.7412    0.0000 F   0  0  0  0  0  0  0  0  0  0  0  0
   -4.6242    9.4797    0.0000 F   0  0  0  0  0  0  0  0  0  0  0  0
   -0.6860    9.9707    0.0000 C   0  0  0  0  0  0  0  0  0  0  0  0
    0.3177   11.0854    0.0000 C   0  0  0  0  0  0  0  0  0  0  0  0
    1.3667    8.1334    0.0000 N   0  0  0  0  0  0  0  0  0  0  0  0
    2.2484    6.9199    0.0000 N   0  0  0  0  0  0  0  0  0  0  0  0
    1.7849    5.4933    0.0000 C   0  0  0  0  0  0  0  0  0  0  0  0
    0.3177    5.1814    0.0000 C   0  0  0  0  0  0  0  0  0  0  0  0
   -0.1459    3.7548    0.0000 C   0  0  0  0  0  0  0  0  0  0  0  0
    0.8578    2.6401    0.0000 C   0  0  0  0  0  0  0  0  0  0  0  0
    0.3943    1.2135    0.0000 N   0  0  0  0  0  0  0  0  0  0  0  0
    1.2760    0.0000    0.0000 C   0  0  0  0  0  0  0  0  0  0  0  0
    0.3943   -1.2135    0.0000 C   0  0  0  0  0  0  0  0  0  0  0  0
    0.7062   -2.6807    0.0000 C   0  0  0  0  0  0  0  0  0  0  0  0
   -0.4086   -3.6844    0.0000 C   0  0  0  0  0  0  0  0  0  0  0  0
   -1.8351   -3.2209    0.0000 C   0  0  0  0  0  0  0  0  0  0  0  0
   -2.1470   -1.7537    0.0000 C   0  0  0  0  0  0  0  0  0  0  0  0
   -1.0323   -0.7500    0.0000 C   0  0  0  0  0  0  0  0  0  0  0  0
   -1.0323    0.7500    0.0000 C   0  0  0  0  0  0  0  0  0  0  0  0
   -2.7168   -4.4344    0.0000 C   0  0  0  0  0  0  0  0  0  0  0  0
   -4.2168   -4.4344    0.0000 O   0  0  0  0  0  0  0  0  0  0  0  0
   -1.8351   -5.6480    0.0000 N   0  0  0  0  0  0  0  0  0  0  0  0
   -2.2987   -7.0746    0.0000 C   0  0  0  0  0  0  0  0  0  0  0  0
   -3.7659   -7.3864    0.0000 C   0  0  0  0  0  0  0  0  0  0  0  0
   -4.2294   -8.8130    0.0000 C   0  0  0  0  0  0  0  0  0  0  0  0
   -3.2257   -9.9277    0.0000 C   0  0  0  0  0  0  0  0  0  0  0  0
   -3.6892  -11.3543    0.0000 O   0  0  0  0  0  0  0  0  0  0  0  0
   -1.7585   -9.6159    0.0000 N   0  0  0  0  0  0  0  0  0  0  0  0
   -1.2950   -8.1893    0.0000 C   0  0  0  0  0  0  0  0  0  0  0  0
    0.1723   -7.8774    0.0000 O   0  0  0  0  0  0  0  0  0  0  0  0
   -0.4086   -5.1844    0.0000 C   0  0  0  0  0  0  0  0  0  0  0  0
    0.8050   -6.0661    0.0000 O   0  0  0  0  0  0  0  0  0  0  0  0
    2.3250    2.9520    0.0000 C   0  0  0  0  0  0  0  0  0  0  0  0
    2.7886    4.3786    0.0000 C   0  0  0  0  0  0  0  0  0  0  0  0
    4.9740    9.6334    0.0000 C   0  0  0  0  0  0  0  0  0  0  0  0
  1  2  1  0
  2  3  2  0
  2  4  1  0
  4  5  1  0
  5  6  1  0
  6  7  1  0
  7  8  2  0
  8  9  1  0
  9 10  1  0
 10 11  1  0
 11 12  1  0
 12 13  1  0
 13 14  1  0
 14 15  2  0
 15 16  1  0
 16 17  1  0
 17 18  1  0
 18 19  2  0
 19 20  1  0
 20 21  1  0
 20 22  1  0
 16 23  2  0
 23 24  1  0
 24 25  1  0
 24 26  1  0
 23 27  1  0
 27 28  2  0
  9 29  2  0
 29 30  1  0
 30 31  1  0
 31 32  1  0
 32 33  1  0
 33 34  1  0
 34 35  1  0
 35 36  1  0
 36 37  1  0
 37 38  2  0
 38 39  1  0
 39 40  2  0
 40 41  1  0
 41 42  2  0
 42 43  1  0
 40 44  1  0
 44 45  2  0
 44 46  1  0
 46 47  1  0
 47 48  1  0
 48 49  1  0
 49 50  1  0
 50 51  2  0
 50 52  1  0
 52 53  1  0
 53 54  2  0
 46 55  1  0
 55 56  2  0
 34 57  1  0
 57 58  1  0
  8 59  1  0
 59  4  1  0
 30  7  1  0
 58 31  1  0
 28 10  1  0
 43 35  1  0
 53 47  1  0
 28 14  1  0
 42 37  1  0
 22 17  2  0
 55 39  1  0
M  END
> <From>
www.bindingDB.org

> <BindingDB Reactant_set_id>
51598329

> <Ligand InChI>
InChI=1S/C43H45F2N9O5/c1-23(55)50-13-11-35-34(22-50)40(52-12-3-4-24-14-30(27-18-46-49(2)19-27)31(39(44)45)17-37(24)52)48-54(35)29-7-5-28(6-8-29)51-20-25-15-32-33(16-26(25)21-51)43(59)53(42(32)58)36-9-10-38(56)47-41(36)57/h14-19,28-29,36,39H,3-13,20-22H2,1-2H3,(H,47,56,57)

> <Ligand InChI Key>
XMMPMEMOIBXWRN-UHFFFAOYSA-N

> <BindingDB MonomerID>
50643726

> <BindingDB Ligand Name>
CHEMBL5566094

> <Target Name>
Protein cereblon

> <Target Source Organism According to Curator or DataSource>
Human

> <Ki (nM)>


> <IC50 (nM)>
 1.1

> <Kd (nM)>


> <EC50 (nM)>


> <kon (M-1-s-1)>


> <koff (s-1)>


> <pH>


> <Temp C>


> <Curation/DataSource>
ChEMBL

> <Article DOI>


> <BindingDB Entry DOI>
10.7270/Q2VM4HXD

> <PMID>
38477974

> <PubChem AID>


> <Patent Number>


> <Authors>
Chen, Z; Wang, M; Wu, D; Bai, L; Xu, T; Metwally, H; Wang, Y; McEachern, D; Zhao, L; Li, R; Takyi-Williams, J; Wang, M; Wang, L; Li, Q; Wen, B; Sun, D; Wang, S

> <Date of publication>
//0

> <Date in BindingDB>
10/12/2025

> <Institution>
University of Michigan

> <Link to Ligand in BindingDB>
http://www.bindingdb.org/bind/chemsearch/marvin/MolStructure.jsp?monomerid=50643726

> <Link to Ligand-Target Pair in BindingDB>
http://www.bindingdb.org/rwd/jsp/dbsearch/PrimarySearch_ki.jsp?energyterm=kJ/mole&tag=pol&polymerid=50007050&target=Protein+cereblon&column=ki&startPg=0&Increment=50&submit=Search

> <Link to Ligand-Target Pair in BindingDB>
http://www.bindingdb.org/rwd/jsp/dbsearch/PrimarySearch_ki.jsp?energyterm=kJ/mole&tag=r21&monomerid=50643726&enzyme=Protein+cereblon&column=ki&startPg=0&Increment=50&submit=Search

> <Ligand HET ID in PDB>


> <PDB ID(s) for Ligand-Target Complex>


> <PubChem CID of Ligand>
164919568

> <PubChem SID of Ligand>
519669130

> <ChEBI ID of Ligand>


> <ChEMBL ID of Ligand>


> <DrugBank ID of Ligand>


> <IUPHAR_GRAC ID of Ligand>


> <KEGG ID of Ligand>


> <ZINC ID of Ligand>


> <Number of Protein Chains in Target (bigger than 1 implies a multichain complex)>
1

> <BindingDB Target Chain Sequence>
MAGEGDQQDAAHNMGNHLPLLPAESEEEDEMEVEDQDSKEAKKPNIINFDTSLPTSHTYLGADMEEFHGRTLHDDDSCQVIPVLPQVMMILIPGQTLPLQLFHPQEVSMVRNLIQKDRTFAVLAYSNVQEREAQFGTTAEIYAYREEQDFGIEIVKVKAIGRQRFKVLELRTQSDGIQQAKVQILPECVLPSTMSAVQLESLNKCQIFPSKPVSREDQCSYKWWQKYQKRKFHCANLTSWPRWLYSLYDAETLMDRIKKQLREWDENLKDDSLPSNPIDFSYRVAACLPIDDVLRIQLLKIGSAIQRLRCELDIMNKCTSLCCKQCQETEITTKNEIFSLSLCGPMAAYVNPHGYVHETLTVYKACNLNLIGRPSTEHSWFPGYAWTVAQCKICASHIGWKFTATKKDMSPQKFWGLTRSALLPTIPDTEDEISPDKVILCL

> <PDB ID(s) of Target Chain>
9DUR,8TNR,8TNQ,8TNP,9DWW,9DWV,9NGT,9NFR,9NFQ,8D81,8D80,8D7Z,8D7Y,8D7X,8D7W,8D7V,8D7U,8CVP,9Q2D,9Q03,9DQD,8UH6,9SAI,9SAF,9H59,9E2U,6BOY,6BNB,6BN9,6BN8,6BN7,9OUL,9Y7D,6XK9,6UML,5V3O,5HXB,9HNE,9D0X,9D0W,7U8F,9FJX,8OJH,8OIZ,7LPS,9SFM,9OTY,4TZ4,9DJX,9DJT,8U17,8U16,8U15,8TZX,8DEY,9CUO,4M91

> <UniProt (SwissProt) Recommended Name of Target Chain>
Protein cereblon

> <UniProt (SwissProt) Entry Name of Target Chain>
CRBN_HUMAN

> <UniProt (SwissProt) Primary ID of Target Chain>
Q96SW2

> <UniProt (SwissProt) Secondary ID(s) of Target Chain>
B2R6H4 C9IZA9 C9JAH6 Q6AI62 Q6NVZ0 Q9UHW4

> <UniProt (SwissProt) Alternative ID(s) of Target Chain>


> <UniProt (TrEMBL) Submitted Name of Target Chain>


> <UniProt (TrEMBL) Entry Name of Target Chain>


> <UniProt (TrEMBL) Primary ID of Target Chain>


> <UniProt (TrEMBL) Secondary ID(s) of Target Chain>


> <UniProt (TrEMBL) Alternative ID(s) of Target Chain>


$$$$

     RDKit          2D

 61 70  0  0  0  0  0  0  0  0999 V2000
   10.8019   10.6218    0.0000 C   0  0  0  0  0  0  0  0  0  0  0  0
    9.5028   11.3718    0.0000 C   0  0  0  0  0  0  0  0  0  0  0  0
    9.5028   12.8718    0.0000 O   0  0  0  0  0  0  0  0  0  0  0  0
    8.2038   10.6218    0.0000 N   0  0  0  0  0  0  0  0  0  0  0  0
    8.2038    9.1218    0.0000 C   0  0  0  0  0  0  0  0  0  0  0  0
    6.9048    8.3718    0.0000 C   0  0  0  0  0  0  0  0  0  0  0  0
    5.6057    9.1218    0.0000 C   0  0  0  0  0  0  0  0  0  0  0  0
    5.6057   10.6218    0.0000 C   0  0  0  0  0  0  0  0  0  0  0  0
    4.1791   11.0854    0.0000 C   0  0  0  0  0  0  0  0  0  0  0  0
    3.7156   12.5120    0.0000 N   0  0  0  0  0  0  0  0  0  0  0  0
    4.7193   13.6267    0.0000 C   0  0  0  0  0  0  0  0  0  0  0  0
    4.2558   15.0533    0.0000 C   0  0  0  0  0  0  0  0  0  0  0  0
    2.7886   15.3651    0.0000 C   0  0  0  0  0  0  0  0  0  0  0  0
    1.7849   14.2504    0.0000 C   0  0  0  0  0  0  0  0  0  0  0  0
    0.3177   14.5623    0.0000 C   0  0  0  0  0  0  0  0  0  0  0  0
   -0.6860   13.4476    0.0000 C   0  0  0  0  0  0  0  0  0  0  0  0
   -2.1533   13.7594    0.0000 C   0  0  0  0  0  0  0  0  0  0  0  0
   -3.2680   12.7557    0.0000 C   0  0  0  0  0  0  0  0  0  0  0  0
   -4.5670   13.5057    0.0000 N   0  0  0  0  0  0  0  0  0  0  0  0
   -4.2552   14.9729    0.0000 N   0  0  0  0  0  0  0  0  0  0  0  0
   -5.2588   16.0877    0.0000 C   0  0  0  0  0  0  0  0  0  0  0  0
   -2.7634   15.1297    0.0000 C   0  0  0  0  0  0  0  0  0  0  0  0
   -0.2225   12.0210    0.0000 C   0  0  0  0  0  0  0  0  0  0  0  0
   -1.2262   10.9063    0.0000 C   0  0  0  0  0  0  0  0  0  0  0  0
   -0.7627    9.4797    0.0000 F   0  0  0  0  0  0  0  0  0  0  0  0
   -2.6934   11.2181    0.0000 F   0  0  0  0  0  0  0  0  0  0  0  0
    1.2447   11.7091    0.0000 C   0  0  0  0  0  0  0  0  0  0  0  0
    2.2484   12.8238    0.0000 C   0  0  0  0  0  0  0  0  0  0  0  0
    3.2975    9.8718    0.0000 N   0  0  0  0  0  0  0  0  0  0  0  0
    4.1791    8.6583    0.0000 N   0  0  0  0  0  0  0  0  0  0  0  0
    3.7156    7.2317    0.0000 C   0  0  0  0  0  0  0  0  0  0  0  0
    2.2484    6.9199    0.0000 C   0  0  0  0  0  0  0  0  0  0  0  0
    1.7849    5.4933    0.0000 C   0  0  0  0  0  0  0  0  0  0  0  0
    2.7886    4.3786    0.0000 C   0  0  0  0  0  0  0  0  0  0  0  0
    2.3250    2.9520    0.0000 C   0  0  0  0  0  0  0  0  0  0  0  0
    0.8578    2.6401    0.0000 C   0  0  0  0  0  0  0  0  0  0  0  0
    0.3943    1.2135    0.0000 N   0  0  0  0  0  0  0  0  0  0  0  0
    1.2760    0.0000    0.0000 C   0  0  0  0  0  0  0  0  0  0  0  0
    0.3943   -1.2135    0.0000 C   0  0  0  0  0  0  0  0  0  0  0  0
    0.7062   -2.6807    0.0000 C   0  0  0  0  0  0  0  0  0  0  0  0
   -0.4086   -3.6844    0.0000 C   0  0  0  0  0  0  0  0  0  0  0  0
   -1.8351   -3.2209    0.0000 C   0  0  0  0  0  0  0  0  0  0  0  0
   -2.1470   -1.7537    0.0000 C   0  0  0  0  0  0  0  0  0  0  0  0
   -1.0323   -0.7500    0.0000 C   0  0  0  0  0  0  0  0  0  0  0  0
   -1.0323    0.7500    0.0000 C   0  0  0  0  0  0  0  0  0  0  0  0
   -2.7168   -4.4344    0.0000 C   0  0  0  0  0  0  0  0  0  0  0  0
   -4.2168   -4.4344    0.0000 O   0  0  0  0  0  0  0  0  0  0  0  0
   -1.8351   -5.6480    0.0000 N   0  0  0  0  0  0  0  0  0  0  0  0
   -2.2987   -7.0746    0.0000 C   0  0  0  0  0  0  0  0  0  0  0  0
   -3.7659   -7.3864    0.0000 C   0  0  0  0  0  0  0  0  0  0  0  0
   -4.2294   -8.8130    0.0000 C   0  0  0  0  0  0  0  0  0  0  0  0
   -3.2257   -9.9277    0.0000 C   0  0  0  0  0  0  0  0  0  0  0  0
   -3.6892  -11.3543    0.0000 O   0  0  0  0  0  0  0  0  0  0  0  0
   -1.7585   -9.6159    0.0000 N   0  0  0  0  0  0  0  0  0  0  0  0
   -1.2950   -8.1893    0.0000 C   0  0  0  0  0  0  0  0  0  0  0  0
    0.1723   -7.8774    0.0000 O   0  0  0  0  0  0  0  0  0  0  0  0
   -0.4086   -5.1844    0.0000 C   0  0  0  0  0  0  0  0  0  0  0  0
    0.8050   -6.0661    0.0000 O   0  0  0  0  0  0  0  0  0  0  0  0
    4.2558    4.6904    0.0000 C   0  0  0  0  0  0  0  0  0  0  0  0
    4.7193    6.1170    0.0000 C   0  0  0  0  0  0  0  0  0  0  0  0
    6.9048   11.3718    0.0000 C   0  0  0  0  0  0  0  0  0  0  0  0
  1  2  1  0
  2  3  2  0
  2  4  1  0
  4  5  1  0
  5  6  1  0
  6  7  1  0
  7  8  2  0
  8  9  1  0
  9 10  1  0
 10 11  1  0
 11 12  1  0
 12 13  1  0
 13 14  1  0
 14 15  2  0
 15 16  1  0
 16 17  1  0
 17 18  1  0
 18 19  2  0
 19 20  1  0
 20 21  1  0
 20 22  1  0
 16 23  2  0
 23 24  1  0
 24 25  1  0
 24 26  1  0
 23 27  1  0
 27 28  2  0
  9 29  2  0
 29 30  1  0
 30 31  1  0
 31 32  1  0
 32 33  1  0
 33 34  1  0
 34 35  1  0
 35 36  1  0
 36 37  1  0
 37 38  1  0
 38 39  1  0
 39 40  2  0
 40 41  1  0
 41 42  2  0
 42 43  1  0
 43 44  2  0
 44 45  1  0
 42 46  1  0
 46 47  2  0
 46 48  1  0
 48 49  1  0
 49 50  1  0
 50 51  1  0
 51 52  1  0
 52 53  2  0
 52 54  1  0
 54 55  1  0
 55 56  2  0
 48 57  1  0
 57 58  2  0
 34 59  1  0
 59 60  1  0
  8 61  1  0
 61  4  1  0
 30  7  1  0
 60 31  1  0
 28 10  1  0
 45 37  1  0
 55 49  1  0
 28 14  1  0
 44 39  1  0
 22 17  2  0
 57 41  1  0
M  END
> <From>
www.bindingDB.org

> <BindingDB Reactant_set_id>
51598324

> <Ligand InChI>
InChI=1S/C45H49F2N9O5/c1-25(57)53-15-12-37-36(24-53)42(54-13-3-4-27-16-32(30-20-48-51(2)21-30)33(41(46)47)19-39(27)54)50-56(37)31-7-5-26(6-8-31)11-14-52-22-28-17-34-35(18-29(28)23-52)45(61)55(44(34)60)38-9-10-40(58)49-43(38)59/h16-21,26,31,38,41H,3-15,22-24H2,1-2H3,(H,49,58,59)

> <Ligand InChI Key>
UXNPHJKPDROTTJ-UHFFFAOYSA-N

> <BindingDB MonomerID>
50643721

> <BindingDB Ligand Name>
CHEMBL5575700

> <Target Name>
Protein cereblon

> <Target Source Organism According to Curator or DataSource>
Human

> <Ki (nM)>


> <IC50 (nM)>
 1.3

> <Kd (nM)>


> <EC50 (nM)>


> <kon (M-1-s-1)>


> <koff (s-1)>


> <pH>


> <Temp C>


> <Curation/DataSource>
ChEMBL

> <Article DOI>


> <BindingDB Entry DOI>
10.7270/Q2VM4HXD

> <PMID>
38477974

> <PubChem AID>


> <Patent Number>


> <Authors>
Chen, Z; Wang, M; Wu, D; Bai, L; Xu, T; Metwally, H; Wang, Y; McEachern, D; Zhao, L; Li, R; Takyi-Williams, J; Wang, M; Wang, L; Li, Q; Wen, B; Sun, D; Wang, S

> <Date of publication>
//0

> <Date in BindingDB>
10/12/2025

> <Institution>
University of Michigan

> <Link to Ligand in BindingDB>
http://www.bindingdb.org/bind/chemsearch/marvin/MolStructure.jsp?monomerid=50643721

> <Link to Ligand-Target Pair in BindingDB>
http://www.bindingdb.org/rwd/jsp/dbsearch/PrimarySearch_ki.jsp?energyterm=kJ/mole&tag=pol&polymerid=50007050&target=Protein+cereblon&column=ki&startPg=0&Increment=50&submit=Search

> <Link to Ligand-Target Pair in BindingDB>
http://www.bindingdb.org/rwd/jsp/dbsearch/PrimarySearch_ki.jsp?energyterm=kJ/mole&tag=r21&monomerid=50643721&enzyme=Protein+cereblon&column=ki&startPg=0&Increment=50&submit=Search

> <Ligand HET ID in PDB>


> <PDB ID(s) for Ligand-Target Complex>


> <PubChem CID of Ligand>
164919462

> <PubChem SID of Ligand>
519669125

> <ChEBI ID of Ligand>


> <ChEMBL ID of Ligand>


> <DrugBank ID of Ligand>


> <IUPHAR_GRAC ID of Ligand>


> <KEGG ID of Ligand>


> <ZINC ID of Ligand>


> <Number of Protein Chains in Target (bigger than 1 implies a multichain complex)>
1

> <BindingDB Target Chain Sequence>
MAGEGDQQDAAHNMGNHLPLLPAESEEEDEMEVEDQDSKEAKKPNIINFDTSLPTSHTYLGADMEEFHGRTLHDDDSCQVIPVLPQVMMILIPGQTLPLQLFHPQEVSMVRNLIQKDRTFAVLAYSNVQEREAQFGTTAEIYAYREEQDFGIEIVKVKAIGRQRFKVLELRTQSDGIQQAKVQILPECVLPSTMSAVQLESLNKCQIFPSKPVSREDQCSYKWWQKYQKRKFHCANLTSWPRWLYSLYDAETLMDRIKKQLREWDENLKDDSLPSNPIDFSYRVAACLPIDDVLRIQLLKIGSAIQRLRCELDIMNKCTSLCCKQCQETEITTKNEIFSLSLCGPMAAYVNPHGYVHETLTVYKACNLNLIGRPSTEHSWFPGYAWTVAQCKICASHIGWKFTATKKDMSPQKFWGLTRSALLPTIPDTEDEISPDKVILCL

> <PDB ID(s) of Target Chain>
9DUR,8TNR,8TNQ,8TNP,9DWW,9DWV,9NGT,9NFR,9NFQ,8D81,8D80,8D7Z,8D7Y,8D7X,8D7W,8D7V,8D7U,8CVP,9Q2D,9Q03,9DQD,8UH6,9SAI,9SAF,9H59,9E2U,6BOY,6BNB,6BN9,6BN8,6BN7,9OUL,9Y7D,6XK9,6UML,5V3O,5HXB,9HNE,9D0X,9D0W,7U8F,9FJX,8OJH,8OIZ,7LPS,9SFM,9OTY,4TZ4,9DJX,9DJT,8U17,8U16,8U15,8TZX,8DEY,9CUO,4M91

> <UniProt (SwissProt) Recommended Name of Target Chain>
Protein cereblon

> <UniProt (SwissProt) Entry Name of Target Chain>
CRBN_HUMAN

> <UniProt (SwissProt) Primary ID of Target Chain>
Q96SW2

> <UniProt (SwissProt) Secondary ID(s) of Target Chain>
B2R6H4 C9IZA9 C9JAH6 Q6AI62 Q6NVZ0 Q9UHW4

> <UniProt (SwissProt) Alternative ID(s) of Target Chain>


> <UniProt (TrEMBL) Submitted Name of Target Chain>


> <UniProt (TrEMBL) Entry Name of Target Chain>


> <UniProt (TrEMBL) Primary ID of Target Chain>


> <UniProt (TrEMBL) Secondary ID(s) of Target Chain>


> <UniProt (TrEMBL) Alternative ID(s) of Target Chain>


$$$$

     RDKit          2D

 61 70  0  0  0  0  0  0  0  0999 V2000
   14.3076    1.0890    0.0000 C   0  0  0  0  0  0  0  0  0  0  0  0
   13.6975    2.4593    0.0000 C   0  0  0  0  0  0  0  0  0  0  0  0
   14.5792    3.6728    0.0000 O   0  0  0  0  0  0  0  0  0  0  0  0
   12.2058    2.6161    0.0000 N   0  0  0  0  0  0  0  0  0  0  0  0
   11.5956    3.9864    0.0000 C   0  0  0  0  0  0  0  0  0  0  0  0
   10.1039    4.1432    0.0000 C   0  0  0  0  0  0  0  0  0  0  0  0
    9.2222    2.9297    0.0000 C   0  0  0  0  0  0  0  0  0  0  0  0
    9.8323    1.5593    0.0000 C   0  0  0  0  0  0  0  0  0  0  0  0
    8.7176    0.5556    0.0000 C   0  0  0  0  0  0  0  0  0  0  0  0
    8.8744   -0.9361    0.0000 N   0  0  0  0  0  0  0  0  0  0  0  0
   10.2447   -1.5462    0.0000 C   0  0  0  0  0  0  0  0  0  0  0  0
   10.4015   -3.0380    0.0000 C   0  0  0  0  0  0  0  0  0  0  0  0
    9.1880   -3.9197    0.0000 C   0  0  0  0  0  0  0  0  0  0  0  0
    7.8176   -3.3096    0.0000 C   0  0  0  0  0  0  0  0  0  0  0  0
    6.6041   -4.1913    0.0000 C   0  0  0  0  0  0  0  0  0  0  0  0
    5.2338   -3.5812    0.0000 C   0  0  0  0  0  0  0  0  0  0  0  0
    4.0203   -4.4629    0.0000 C   0  0  0  0  0  0  0  0  0  0  0  0
    2.5937   -3.9993    0.0000 C   0  0  0  0  0  0  0  0  0  0  0  0
    1.7120   -5.2129    0.0000 N   0  0  0  0  0  0  0  0  0  0  0  0
    2.5937   -6.4264    0.0000 N   0  0  0  0  0  0  0  0  0  0  0  0
    2.1302   -7.8530    0.0000 C   0  0  0  0  0  0  0  0  0  0  0  0
    4.0203   -5.9629    0.0000 C   0  0  0  0  0  0  0  0  0  0  0  0
    5.0770   -2.0894    0.0000 C   0  0  0  0  0  0  0  0  0  0  0  0
    3.7067   -1.4793    0.0000 C   0  0  0  0  0  0  0  0  0  0  0  0
    2.4932   -2.3610    0.0000 F   0  0  0  0  0  0  0  0  0  0  0  0
    3.5499    0.0125    0.0000 F   0  0  0  0  0  0  0  0  0  0  0  0
    6.2905   -1.2077    0.0000 C   0  0  0  0  0  0  0  0  0  0  0  0
    7.6608   -1.8178    0.0000 C   0  0  0  0  0  0  0  0  0  0  0  0
    7.4185    1.3056    0.0000 N   0  0  0  0  0  0  0  0  0  0  0  0
    7.7304    2.7729    0.0000 N   0  0  0  0  0  0  0  0  0  0  0  0
    6.7267    3.8876    0.0000 C   0  0  0  0  0  0  0  0  0  0  0  0
    5.2595    3.5757    0.0000 C   0  0  0  0  0  0  0  0  0  0  0  0
    4.2558    4.6904    0.0000 C   0  0  0  0  0  0  0  0  0  0  0  0
    2.7886    4.3786    0.0000 C   0  0  0  0  0  0  0  0  0  0  0  0
    2.3250    2.9520    0.0000 C   0  0  0  0  0  0  0  0  0  0  0  0
    0.8578    2.6401    0.0000 C   0  0  0  0  0  0  0  0  0  0  0  0
    0.3943    1.2135    0.0000 N   0  0  0  0  0  0  0  0  0  0  0  0
    1.2760    0.0000    0.0000 C   0  0  0  0  0  0  0  0  0  0  0  0
    0.3943   -1.2135    0.0000 C   0  0  0  0  0  0  0  0  0  0  0  0
    0.7062   -2.6807    0.0000 C   0  0  0  0  0  0  0  0  0  0  0  0
   -0.4086   -3.6844    0.0000 C   0  0  0  0  0  0  0  0  0  0  0  0
   -1.8351   -3.2209    0.0000 C   0  0  0  0  0  0  0  0  0  0  0  0
   -2.1470   -1.7537    0.0000 C   0  0  0  0  0  0  0  0  0  0  0  0
   -1.0323   -0.7500    0.0000 C   0  0  0  0  0  0  0  0  0  0  0  0
   -1.0323    0.7500    0.0000 C   0  0  0  0  0  0  0  0  0  0  0  0
   -2.7168   -4.4344    0.0000 C   0  0  0  0  0  0  0  0  0  0  0  0
   -4.2168   -4.4344    0.0000 O   0  0  0  0  0  0  0  0  0  0  0  0
   -1.8351   -5.6480    0.0000 N   0  0  0  0  0  0  0  0  0  0  0  0
   -2.2987   -7.0746    0.0000 C   0  0  0  0  0  0  0  0  0  0  0  0
   -3.7659   -7.3864    0.0000 C   0  0  0  0  0  0  0  0  0  0  0  0
   -4.2294   -8.8130    0.0000 C   0  0  0  0  0  0  0  0  0  0  0  0
   -3.2257   -9.9277    0.0000 C   0  0  0  0  0  0  0  0  0  0  0  0
   -3.6892  -11.3543    0.0000 O   0  0  0  0  0  0  0  0  0  0  0  0
   -1.7585   -9.6159    0.0000 N   0  0  0  0  0  0  0  0  0  0  0  0
   -1.2950   -8.1893    0.0000 C   0  0  0  0  0  0  0  0  0  0  0  0
    0.1723   -7.8774    0.0000 O   0  0  0  0  0  0  0  0  0  0  0  0
   -0.4086   -5.1844    0.0000 C   0  0  0  0  0  0  0  0  0  0  0  0
    0.8050   -6.0661    0.0000 O   0  0  0  0  0  0  0  0  0  0  0  0
    3.3287    1.8373    0.0000 C   0  0  0  0  0  0  0  0  0  0  0  0
    4.7960    2.1491    0.0000 C   0  0  0  0  0  0  0  0  0  0  0  0
   11.3241    1.4025    0.0000 C   0  0  0  0  0  0  0  0  0  0  0  0
  1  2  1  0
  2  3  2  0
  2  4  1  0
  4  5  1  0
  5  6  1  0
  6  7  1  0
  7  8  2  0
  8  9  1  0
  9 10  1  0
 10 11  1  0
 11 12  1  0
 12 13  1  0
 13 14  1  0
 14 15  2  0
 15 16  1  0
 16 17  1  0
 17 18  1  0
 18 19  2  0
 19 20  1  0
 20 21  1  0
 20 22  1  0
 16 23  2  0
 23 24  1  0
 24 25  1  0
 24 26  1  0
 23 27  1  0
 27 28  2  0
  9 29  2  0
 29 30  1  0
 30 31  1  0
 32 31  1  6
 32 33  1  0
 33 34  1  0
 34 35  1  0
 35 36  1  1
 36 37  1  0
 37 38  1  0
 38 39  1  0
 39 40  2  0
 40 41  1  0
 41 42  2  0
 42 43  1  0
 43 44  2  0
 44 45  1  0
 42 46  1  0
 46 47  2  0
 46 48  1  0
 48 49  1  0
 49 50  1  0
 50 51  1  0
 51 52  1  0
 52 53  2  0
 52 54  1  0
 54 55  1  0
 55 56  2  0
 48 57  1  0
 57 58  2  0
 35 59  1  0
 59 60  1  0
  8 61  1  0
 61  4  1  0
 30  7  1  0
 60 32  1  0
 28 10  1  0
 45 37  1  0
 55 49  1  0
 28 14  1  0
 44 39  1  0
 22 17  2  0
 57 41  1  0
M  END
> <From>
www.bindingDB.org

> <BindingDB Reactant_set_id>
51598327

> <Ligand InChI>
InChI=1S/C45H49F2N9O5/c1-25(57)53-13-11-37-36(24-53)42(54-12-3-4-28-14-32(31-18-48-51(2)21-31)33(41(46)47)17-39(28)54)50-55(37)20-27-7-5-26(6-8-27)19-52-22-29-15-34-35(16-30(29)23-52)45(61)56(44(34)60)38-9-10-40(58)49-43(38)59/h14-18,21,26-27,38,41H,3-13,19-20,22-24H2,1-2H3,(H,49,58,59)

> <Ligand InChI Key>
JHZJBMRRFXYWAC-UHFFFAOYSA-N

> <BindingDB MonomerID>
50643724

> <BindingDB Ligand Name>
CHEMBL5565362

> <Target Name>
Protein cereblon

> <Target Source Organism According to Curator or DataSource>
Human

> <Ki (nM)>


> <IC50 (nM)>
 1.3

> <Kd (nM)>


> <EC50 (nM)>


> <kon (M-1-s-1)>


> <koff (s-1)>


> <pH>


> <Temp C>


> <Curation/DataSource>
ChEMBL

> <Article DOI>


> <BindingDB Entry DOI>
10.7270/Q2VM4HXD

> <PMID>
38477974

> <PubChem AID>


> <Patent Number>


> <Authors>
Chen, Z; Wang, M; Wu, D; Bai, L; Xu, T; Metwally, H; Wang, Y; McEachern, D; Zhao, L; Li, R; Takyi-Williams, J; Wang, M; Wang, L; Li, Q; Wen, B; Sun, D; Wang, S

> <Date of publication>
//0

> <Date in BindingDB>
10/12/2025

> <Institution>
University of Michigan

> <Link to Ligand in BindingDB>
http://www.bindingdb.org/bind/chemsearch/marvin/MolStructure.jsp?monomerid=50643724

> <Link to Ligand-Target Pair in BindingDB>
http://www.bindingdb.org/rwd/jsp/dbsearch/PrimarySearch_ki.jsp?energyterm=kJ/mole&tag=pol&polymerid=50007050&target=Protein+cereblon&column=ki&startPg=0&Increment=50&submit=Search

> <Link to Ligand-Target Pair in BindingDB>
http://www.bindingdb.org/rwd/jsp/dbsearch/PrimarySearch_ki.jsp?energyterm=kJ/mole&tag=r21&monomerid=50643724&enzyme=Protein+cereblon&column=ki&startPg=0&Increment=50&submit=Search

> <Ligand HET ID in PDB>


> <PDB ID(s) for Ligand-Target Complex>


> <PubChem CID of Ligand>
164919527

> <PubChem SID of Ligand>
519669128

> <ChEBI ID of Ligand>


> <ChEMBL ID of Ligand>


> <DrugBank ID of Ligand>


> <IUPHAR_GRAC ID of Ligand>


> <KEGG ID of Ligand>


> <ZINC ID of Ligand>


> <Number of Protein Chains in Target (bigger than 1 implies a multichain complex)>
1

> <BindingDB Target Chain Sequence>
MAGEGDQQDAAHNMGNHLPLLPAESEEEDEMEVEDQDSKEAKKPNIINFDTSLPTSHTYLGADMEEFHGRTLHDDDSCQVIPVLPQVMMILIPGQTLPLQLFHPQEVSMVRNLIQKDRTFAVLAYSNVQEREAQFGTTAEIYAYREEQDFGIEIVKVKAIGRQRFKVLELRTQSDGIQQAKVQILPECVLPSTMSAVQLESLNKCQIFPSKPVSREDQCSYKWWQKYQKRKFHCANLTSWPRWLYSLYDAETLMDRIKKQLREWDENLKDDSLPSNPIDFSYRVAACLPIDDVLRIQLLKIGSAIQRLRCELDIMNKCTSLCCKQCQETEITTKNEIFSLSLCGPMAAYVNPHGYVHETLTVYKACNLNLIGRPSTEHSWFPGYAWTVAQCKICASHIGWKFTATKKDMSPQKFWGLTRSALLPTIPDTEDEISPDKVILCL

> <PDB ID(s) of Target Chain>
9DUR,8TNR,8TNQ,8TNP,9DWW,9DWV,9NGT,9NFR,9NFQ,8D81,8D80,8D7Z,8D7Y,8D7X,8D7W,8D7V,8D7U,8CVP,9Q2D,9Q03,9DQD,8UH6,9SAI,9SAF,9H59,9E2U,6BOY,6BNB,6BN9,6BN8,6BN7,9OUL,9Y7D,6XK9,6UML,5V3O,5HXB,9HNE,9D0X,9D0W,7U8F,9FJX,8OJH,8OIZ,7LPS,9SFM,9OTY,4TZ4,9DJX,9DJT,8U17,8U16,8U15,8TZX,8DEY,9CUO,4M91

> <UniProt (SwissProt) Recommended Name of Target Chain>
Protein cereblon

> <UniProt (SwissProt) Entry Name of Target Chain>
CRBN_HUMAN

> <UniProt (SwissProt) Primary ID of Target Chain>
Q96SW2

> <UniProt (SwissProt) Secondary ID(s) of Target Chain>
B2R6H4 C9IZA9 C9JAH6 Q6AI62 Q6NVZ0 Q9UHW4

> <UniProt (SwissProt) Alternative ID(s) of Target Chain>


> <UniProt (TrEMBL) Submitted Name of Target Chain>


> <UniProt (TrEMBL) Entry Name of Target Chain>


> <UniProt (TrEMBL) Primary ID of Target Chain>


> <UniProt (TrEMBL) Secondary ID(s) of Target Chain>


> <UniProt (TrEMBL) Alternative ID(s) of Target Chain>


$$$$
 
     RDKit          2D

 60 67  0  0  0  0  0  0  0  0999 V2000
    6.9817  -23.8534    0.0000 O   0  0  0  0  0  0  0  0  0  0  0  0
    6.9860  -24.6747    0.0000 S   0  0  0  0  0  0  0  0  0  0  0  0
    7.6952  -24.2604    0.0000 O   0  0  0  0  0  0  0  0  0  0  0  0
    7.9866  -26.3949    0.0000 C   0  0  0  0  0  0  0  0  0  0  0  0
    8.1981  -25.5984    0.0000 C   0  0  0  0  0  0  0  0  0  0  0  0
    7.4017  -25.3868    0.0000 N   0  0  0  0  0  0  0  0  0  0  0  0
    7.1901  -26.1834    0.0000 C   0  0  0  0  0  0  0  0  0  0  0  0
    9.2205  -29.5697    0.0000 C   0  0  0  0  0  0  0  0  0  0  0  0
    9.2194  -30.3977    0.0000 C   0  0  0  0  0  0  0  0  0  0  0  0
    9.9351  -30.8129    0.0000 C   0  0  0  0  0  0  0  0  0  0  0  0
   10.6526  -30.3972    0.0000 C   0  0  0  0  0  0  0  0  0  0  0  0
   10.6498  -29.5661    0.0000 C   0  0  0  0  0  0  0  0  0  0  0  0
    9.9333  -29.1588    0.0000 C   0  0  0  0  0  0  0  0  0  0  0  0
    8.5035  -30.8120    0.0000 N   0  0  0  0  0  0  0  0  0  0  0  0
    7.7884  -30.3966    0.0000 C   0  0  0  0  0  0  0  0  0  0  0  0
   11.3637  -29.1528    0.0000 C   0  0  0  0  0  0  0  0  0  0  0  0
   12.0808  -29.5608    0.0000 N   0  0  0  0  0  0  0  0  0  0  0  0
   11.3606  -28.3273    0.0000 O   0  0  0  0  0  0  0  0  0  0  0  0
   12.7905  -29.1475    0.0000 C   0  0  0  0  0  0  0  0  0  0  0  0
   13.5075  -29.5555    0.0000 C   0  0  0  0  0  0  0  0  0  0  0  0
   14.2215  -29.1421    0.0000 C   0  0  0  0  0  0  0  0  0  0  0  0
   14.9386  -29.5500    0.0000 C   0  0  0  0  0  0  0  0  0  0  0  0
   15.6524  -29.1367    0.0000 N   0  0  0  0  0  0  0  0  0  0  0  0
   16.3695  -29.5447    0.0000 C   0  0  0  0  0  0  0  0  0  0  0  0
    7.7936  -29.5711    0.0000 N   0  0  0  0  0  0  0  0  0  0  0  0
    7.0834  -29.1599    0.0000 C   0  0  0  0  0  0  0  0  0  0  0  0
    7.0835  -30.8116    0.0000 N   0  0  0  0  0  0  0  0  0  0  0  0
    6.3686  -30.4000    0.0000 C   0  0  0  0  0  0  0  0  0  0  0  0
    6.3663  -29.5688    0.0000 C   0  0  0  0  0  0  0  0  0  0  0  0
    5.5750  -29.3154    0.0000 C   0  0  0  0  0  0  0  0  0  0  0  0
    5.0866  -29.9900    0.0000 C   0  0  0  0  0  0  0  0  0  0  0  0
    5.5787  -30.6576    0.0000 N   0  0  0  0  0  0  0  0  0  0  0  0
    7.0876  -28.3371    0.0000 C   0  0  0  0  0  0  0  0  0  0  0  0
    7.7531  -27.8516    0.0000 C   0  0  0  0  0  0  0  0  0  0  0  0
    7.5008  -27.0658    0.0000 N   0  0  0  0  0  0  0  0  0  0  0  0
    6.6753  -27.0640    0.0000 N   0  0  0  0  0  0  0  0  0  0  0  0
    6.4200  -27.8489    0.0000 C   0  0  0  0  0  0  0  0  0  0  0  0
    8.8100  -26.4856    0.0000 C   0  0  0  0  0  0  0  0  0  0  0  0
    9.2941  -25.8221    0.0000 C   0  0  0  0  0  0  0  0  0  0  0  0
   16.3700  -30.3674    0.0000 C   0  0  0  0  0  0  0  0  0  0  0  0
   17.0861  -30.7795    0.0000 C   0  0  0  0  0  0  0  0  0  0  0  0
   17.8011  -30.3619    0.0000 C   0  0  0  0  0  0  0  0  0  0  0  0
   17.0785  -29.1279    0.0000 C   0  0  0  0  0  0  0  0  0  0  0  0
   17.7924  -29.5309    0.0000 C   0  0  0  0  0  0  0  0  0  0  0  0
   18.3951  -28.9764    0.0000 C   0  0  0  0  0  0  0  0  0  0  0  0
   18.0578  -28.2289    0.0000 N   0  0  0  0  0  0  0  0  0  0  0  0
   17.2426  -28.3243    0.0000 C   0  0  0  0  0  0  0  0  0  0  0  0
   18.4653  -27.5180    0.0000 C   0  0  0  0  0  0  0  0  0  0  0  0
   19.2918  -27.5140    0.0000 C   0  0  0  0  0  0  0  0  0  0  0  0
   19.7015  -26.7997    0.0000 C   0  0  0  0  0  0  0  0  0  0  0  0
   19.2850  -26.0847    0.0000 C   0  0  0  0  0  0  0  0  0  0  0  0
   18.4585  -26.0887    0.0000 N   0  0  0  0  0  0  0  0  0  0  0  0
   18.0485  -26.8075    0.0000 C   0  0  0  0  0  0  0  0  0  0  0  0
   17.2230  -26.8126    0.0000 O   0  0  0  0  0  0  0  0  0  0  0  0
   19.6974  -25.3679    0.0000 O   0  0  0  0  0  0  0  0  0  0  0  0
   16.6845  -27.7137    0.0000 O   0  0  0  0  0  0  0  0  0  0  0  0
   19.2038  -29.1457    0.0000 O   0  0  0  0  0  0  0  0  0  0  0  0
    9.7792  -25.1544    0.0000 N   0  0  0  0  0  0  0  0  0  0  0  0
    6.1646  -24.6787    0.0000 C   0  0  0  0  0  0  0  0  0  0  0  0
    5.7504  -23.9693    0.0000 C   0  0  0  0  0  0  0  0  0  0  0  0
  2  1  2  0
  3  2  2  0
  4  5  1  0
  5  6  1  0
  6  7  1  0
  7  4  1  0
  8  9  2  0
  9 10  1  0
 10 11  2  0
 11 12  1  0
 12 13  2  0
 13  8  1  0
  9 14  1  0
 14 15  1  0
 12 16  1  0
 16 17  1  0
 16 18  2  0
 17 19  1  0
 19 20  1  0
 20 21  1  0
 21 22  1  0
 22 23  1  0
 23 24  1  0
 15 25  2  0
 25 26  1  0
 26 29  2  0
 28 27  2  0
 27 15  1  0
 28 29  1  0
 29 30  1  0
 30 31  2  0
 31 32  1  0
 32 28  1  0
 33 34  2  0
 34 35  1  0
 35 36  1  0
 36 37  2  0
 37 33  1  0
 26 33  1  0
 35  4  1  0
  4 38  1  0
 38 39  1  0
 24 40  2  0
 40 41  1  0
 41 42  2  0
 42 44  1  0
 43 24  1  0
 43 44  2  0
 44 45  1  0
 45 46  1  0
 46 47  1  0
 47 43  1  0
 48 49  1  0
 48 53  1  0
 49 50  1  0
 50 51  1  0
 51 52  1  0
 52 53  1  0
 46 48  1  0
 53 54  2  0
 51 55  2  0
 47 56  2  0
 45 57  2  0
 39 58  3  0
  6  2  1  0
  2 59  1  0
 59 60  1  0
M  END
> <From>
www.bindingDB.org

> <BindingDB Reactant_set_id>
51451981

> <Ligand InChI>


> <Ligand InChI Key>


> <BindingDB MonomerID>
50586176

> <BindingDB Ligand Name>
CHEMBL4742130

> <Target Name>
Protein cereblon

> <Target Source Organism According to Curator or DataSource>
Human

> <Ki (nM)>


> <IC50 (nM)>
 1.6

> <Kd (nM)>


> <EC50 (nM)>


> <kon (M-1-s-1)>


> <koff (s-1)>


> <pH>


> <Temp C>


> <Curation/DataSource>
ChEMBL

> <Article DOI>
10.1021/acsmedchemlett.1c00650

> <BindingDB Entry DOI>
10.7270/Q2D79GBF

> <PMID>
35300081

> <PubChem AID>


> <Patent Number>


> <Authors>
Alcock, LJ; Chang, Y; Jarusiewicz, JA; Actis, M; Nithianantham, S; Mayasundari, A; Min, J; Maxwell, D; Hunt, J; Smart, B; Yang, JJ; Nishiguchi, G; Fischer, M; Mullighan, CG; Rankovic, Z

> <Date of publication>
3/10/2022

> <Date in BindingDB>
3/7/2023

> <Institution>
St. Jude Children's Research Hospital

> <Link to Ligand in BindingDB>
http://www.bindingdb.org/bind/chemsearch/marvin/MolStructure.jsp?monomerid=50586176

> <Link to Ligand-Target Pair in BindingDB>
http://www.bindingdb.org/jsp/dbsearch/PrimarySearch_ki.jsp?energyterm=kJ/mole&tag=pol&polymerid=50007050&target=Protein+cereblon&column=ki&startPg=0&Increment=50&submit=Search

> <Link to Ligand-Target Pair in BindingDB>
http://www.bindingdb.org/jsp/dbsearch/PrimarySearch_ki.jsp?energyterm=kJ/mole&tag=r21&monomerid=50586176&enzyme=Protein+cereblon&column=ki&startPg=0&Increment=50&submit=Search

> <Ligand HET ID in PDB>


> <PDB ID(s) for Ligand-Target Complex>


> <PubChem CID of Ligand>
155599272

> <PubChem SID of Ligand>
476022263

> <ChEBI ID of Ligand>


> <ChEMBL ID of Ligand>


> <DrugBank ID of Ligand>


> <IUPHAR_GRAC ID of Ligand>


> <KEGG ID of Ligand>


> <ZINC ID of Ligand>


> <Number of Protein Chains in Target (bigger than 1 implies a multichain complex)>
1

> <BindingDB Target Chain Sequence>
MAGEGDQQDAAHNMGNHLPLLPAESEEEDEMEVEDQDSKEAKKPNIINFDTSLPTSHTYLGADMEEFHGRTLHDDDSCQVIPVLPQVMMILIPGQTLPLQLFHPQEVSMVRNLIQKDRTFAVLAYSNVQEREAQFGTTAEIYAYREEQDFGIEIVKVKAIGRQRFKVLELRTQSDGIQQAKVQILPECVLPSTMSAVQLESLNKCQIFPSKPVSREDQCSYKWWQKYQKRKFHCANLTSWPRWLYSLYDAETLMDRIKKQLREWDENLKDDSLPSNPIDFSYRVAACLPIDDVLRIQLLKIGSAIQRLRCELDIMNKCTSLCCKQCQETEITTKNEIFSLSLCGPMAAYVNPHGYVHETLTVYKACNLNLIGRPSTEHSWFPGYAWTVAQCKICASHIGWKFTATKKDMSPQKFWGLTRSALLPTIPDTEDEISPDKVILCL

> <PDB ID(s) of Target Chain>
4TZ4,5HXB,5V3O,6UML,6XK9,7LPS,7U8F,8CVP,8D7U,8D7V,8D7W,8D7X,8D7Y,8D7Z,8D80,8D81,8DEY,8OIZ,8OJH

> <UniProt (SwissProt) Recommended Name of Target Chain>
Protein cereblon

> <UniProt (SwissProt) Entry Name of Target Chain>
CRBN_HUMAN

> <UniProt (SwissProt) Primary ID of Target Chain>
Q96SW2

> <UniProt (SwissProt) Secondary ID(s) of Target Chain>
B2R6H4 C9IZA9 C9JAH6 Q6AI62 Q6NVZ0 Q9UHW4

> <UniProt (SwissProt) Alternative ID(s) of Target Chain>


> <UniProt (TrEMBL) Submitted Name of Target Chain>


> <UniProt (TrEMBL) Entry Name of Target Chain>


> <UniProt (TrEMBL) Primary ID of Target Chain>


> <UniProt (TrEMBL) Secondary ID(s) of Target Chain>


> <UniProt (TrEMBL) Alternative ID(s) of Target Chain>


$$$$

     RDKit          2D

 60 69  0  0  0  0  0  0  0  0999 V2000
   11.4736    8.7417    0.0000 C   0  0  0  0  0  0  0  0  0  0  0  0
    9.9818    8.8985    0.0000 C   0  0  0  0  0  0  0  0  0  0  0  0
    9.3717   10.2688    0.0000 O   0  0  0  0  0  0  0  0  0  0  0  0
    9.1002    7.6849    0.0000 N   0  0  0  0  0  0  0  0  0  0  0  0
    7.6084    7.8417    0.0000 C   0  0  0  0  0  0  0  0  0  0  0  0
    6.7267    6.6282    0.0000 C   0  0  0  0  0  0  0  0  0  0  0  0
    7.3368    5.2579    0.0000 C   0  0  0  0  0  0  0  0  0  0  0  0
    8.8286    5.1011    0.0000 C   0  0  0  0  0  0  0  0  0  0  0  0
    9.1405    3.6339    0.0000 C   0  0  0  0  0  0  0  0  0  0  0  0
   10.5108    3.0238    0.0000 N   0  0  0  0  0  0  0  0  0  0  0  0
   11.7243    3.9055    0.0000 C   0  0  0  0  0  0  0  0  0  0  0  0
   13.0946    3.2954    0.0000 C   0  0  0  0  0  0  0  0  0  0  0  0
   13.2514    1.8036    0.0000 C   0  0  0  0  0  0  0  0  0  0  0  0
   12.0379    0.9219    0.0000 C   0  0  0  0  0  0  0  0  0  0  0  0
   12.1947   -0.5699    0.0000 C   0  0  0  0  0  0  0  0  0  0  0  0
   10.9812   -1.4516    0.0000 C   0  0  0  0  0  0  0  0  0  0  0  0
   11.1380   -2.9434    0.0000 C   0  0  0  0  0  0  0  0  0  0  0  0
   10.0232   -3.9470    0.0000 C   0  0  0  0  0  0  0  0  0  0  0  0
   10.6333   -5.3174    0.0000 N   0  0  0  0  0  0  0  0  0  0  0  0
   12.1251   -5.1606    0.0000 N   0  0  0  0  0  0  0  0  0  0  0  0
   13.1288   -6.2753    0.0000 C   0  0  0  0  0  0  0  0  0  0  0  0
   12.4370   -3.6934    0.0000 C   0  0  0  0  0  0  0  0  0  0  0  0
    9.6108   -0.8415    0.0000 C   0  0  0  0  0  0  0  0  0  0  0  0
    8.3973   -1.7231    0.0000 C   0  0  0  0  0  0  0  0  0  0  0  0
    7.0270   -1.1130    0.0000 F   0  0  0  0  0  0  0  0  0  0  0  0
    8.5541   -3.2149    0.0000 F   0  0  0  0  0  0  0  0  0  0  0  0
    9.4541    0.6503    0.0000 C   0  0  0  0  0  0  0  0  0  0  0  0
   10.6676    1.5320    0.0000 C   0  0  0  0  0  0  0  0  0  0  0  0
    7.8414    2.8839    0.0000 N   0  0  0  0  0  0  0  0  0  0  0  0
    6.7267    3.8876    0.0000 N   0  0  0  0  0  0  0  0  0  0  0  0
    5.2595    3.5757    0.0000 C   0  0  0  0  0  0  0  0  0  0  0  0
    4.2558    4.6904    0.0000 C   0  0  0  0  0  0  0  0  0  0  0  0
    2.7886    4.3786    0.0000 C   0  0  0  0  0  0  0  0  0  0  0  0
    2.3250    2.9520    0.0000 C   0  0  0  0  0  0  0  0  0  0  0  0
    0.8578    2.6401    0.0000 C   0  0  0  0  0  0  0  0  0  0  0  0
    0.3943    1.2135    0.0000 N   0  0  0  0  0  0  0  0  0  0  0  0
    1.2760    0.0000    0.0000 C   0  0  0  0  0  0  0  0  0  0  0  0
    0.3943   -1.2135    0.0000 C   0  0  0  0  0  0  0  0  0  0  0  0
    0.7062   -2.6807    0.0000 C   0  0  0  0  0  0  0  0  0  0  0  0
   -0.4086   -3.6844    0.0000 C   0  0  0  0  0  0  0  0  0  0  0  0
   -1.8351   -3.2209    0.0000 C   0  0  0  0  0  0  0  0  0  0  0  0
   -2.1470   -1.7537    0.0000 C   0  0  0  0  0  0  0  0  0  0  0  0
   -1.0323   -0.7500    0.0000 C   0  0  0  0  0  0  0  0  0  0  0  0
   -1.0323    0.7500    0.0000 C   0  0  0  0  0  0  0  0  0  0  0  0
   -2.7168   -4.4344    0.0000 C   0  0  0  0  0  0  0  0  0  0  0  0
   -4.2168   -4.4344    0.0000 O   0  0  0  0  0  0  0  0  0  0  0  0
   -1.8351   -5.6480    0.0000 N   0  0  0  0  0  0  0  0  0  0  0  0
   -2.2987   -7.0746    0.0000 C   0  0  0  0  0  0  0  0  0  0  0  0
   -3.7659   -7.3864    0.0000 C   0  0  0  0  0  0  0  0  0  0  0  0
   -4.2294   -8.8130    0.0000 C   0  0  0  0  0  0  0  0  0  0  0  0
   -3.2257   -9.9277    0.0000 C   0  0  0  0  0  0  0  0  0  0  0  0
   -3.6892  -11.3543    0.0000 O   0  0  0  0  0  0  0  0  0  0  0  0
   -1.7585   -9.6159    0.0000 N   0  0  0  0  0  0  0  0  0  0  0  0
   -1.2950   -8.1893    0.0000 C   0  0  0  0  0  0  0  0  0  0  0  0
    0.1723   -7.8774    0.0000 O   0  0  0  0  0  0  0  0  0  0  0  0
   -0.4086   -5.1844    0.0000 C   0  0  0  0  0  0  0  0  0  0  0  0
    0.8050   -6.0661    0.0000 O   0  0  0  0  0  0  0  0  0  0  0  0
    3.3287    1.8373    0.0000 C   0  0  0  0  0  0  0  0  0  0  0  0
    4.7960    2.1491    0.0000 C   0  0  0  0  0  0  0  0  0  0  0  0
    9.7103    6.3146    0.0000 C   0  0  0  0  0  0  0  0  0  0  0  0
  1  2  1  0
  2  3  2  0
  2  4  1  0
  4  5  1  0
  5  6  1  0
  6  7  1  0
  7  8  2  0
  8  9  1  0
  9 10  1  0
 10 11  1  0
 11 12  1  0
 12 13  1  0
 13 14  1  0
 14 15  2  0
 15 16  1  0
 16 17  1  0
 17 18  1  0
 18 19  2  0
 19 20  1  0
 20 21  1  0
 20 22  1  0
 16 23  2  0
 23 24  1  0
 24 25  1  0
 24 26  1  0
 23 27  1  0
 27 28  2  0
  9 29  2  0
 29 30  1  0
 31 30  1  6
 31 32  1  0
 32 33  1  0
 33 34  1  0
 34 35  1  1
 35 36  1  0
 36 37  1  0
 37 38  1  0
 38 39  2  0
 39 40  1  0
 40 41  2  0
 41 42  1  0
 42 43  2  0
 43 44  1  0
 41 45  1  0
 45 46  2  0
 45 47  1  0
 47 48  1  0
 48 49  1  0
 49 50  1  0
 50 51  1  0
 51 52  2  0
 51 53  1  0
 53 54  1  0
 54 55  2  0
 47 56  1  0
 56 57  2  0
 34 58  1  0
 58 59  1  0
  8 60  1  0
 60  4  1  0
 30  7  1  0
 59 31  1  0
 28 10  1  0
 44 36  1  0
 54 48  1  0
 28 14  1  0
 43 38  1  0
 22 17  2  0
 56 40  1  0
M  END
> <From>
www.bindingDB.org

> <BindingDB Reactant_set_id>
51598325

> <Ligand InChI>
InChI=1S/C44H47F2N9O5/c1-24(56)52-13-11-36-35(23-52)41(53-12-3-4-26-14-31(29-18-47-50(2)20-29)32(40(45)46)17-38(26)53)49-55(36)30-7-5-25(6-8-30)19-51-21-27-15-33-34(16-28(27)22-51)44(60)54(43(33)59)37-9-10-39(57)48-42(37)58/h14-18,20,25,30,37,40H,3-13,19,21-23H2,1-2H3,(H,48,57,58)

> <Ligand InChI Key>
NORRDWRSNUOCBV-UHFFFAOYSA-N

> <BindingDB MonomerID>
50643722

> <BindingDB Ligand Name>
CHEMBL5564627

> <Target Name>
Protein cereblon

> <Target Source Organism According to Curator or DataSource>
Human

> <Ki (nM)>


> <IC50 (nM)>
 1.8

> <Kd (nM)>


> <EC50 (nM)>


> <kon (M-1-s-1)>


> <koff (s-1)>


> <pH>


> <Temp C>


> <Curation/DataSource>
ChEMBL

> <Article DOI>


> <BindingDB Entry DOI>
10.7270/Q2VM4HXD

> <PMID>
38477974

> <PubChem AID>


> <Patent Number>


> <Authors>
Chen, Z; Wang, M; Wu, D; Bai, L; Xu, T; Metwally, H; Wang, Y; McEachern, D; Zhao, L; Li, R; Takyi-Williams, J; Wang, M; Wang, L; Li, Q; Wen, B; Sun, D; Wang, S

> <Date of publication>
//0

> <Date in BindingDB>
10/12/2025

> <Institution>
University of Michigan

> <Link to Ligand in BindingDB>
http://www.bindingdb.org/bind/chemsearch/marvin/MolStructure.jsp?monomerid=50643722

> <Link to Ligand-Target Pair in BindingDB>
http://www.bindingdb.org/rwd/jsp/dbsearch/PrimarySearch_ki.jsp?energyterm=kJ/mole&tag=pol&polymerid=50007050&target=Protein+cereblon&column=ki&startPg=0&Increment=50&submit=Search

> <Link to Ligand-Target Pair in BindingDB>
http://www.bindingdb.org/rwd/jsp/dbsearch/PrimarySearch_ki.jsp?energyterm=kJ/mole&tag=r21&monomerid=50643722&enzyme=Protein+cereblon&column=ki&startPg=0&Increment=50&submit=Search

> <Ligand HET ID in PDB>


> <PDB ID(s) for Ligand-Target Complex>


> <PubChem CID of Ligand>
164919450

> <PubChem SID of Ligand>
519669126

> <ChEBI ID of Ligand>


> <ChEMBL ID of Ligand>


> <DrugBank ID of Ligand>


> <IUPHAR_GRAC ID of Ligand>


> <KEGG ID of Ligand>


> <ZINC ID of Ligand>


> <Number of Protein Chains in Target (bigger than 1 implies a multichain complex)>
1

> <BindingDB Target Chain Sequence>
MAGEGDQQDAAHNMGNHLPLLPAESEEEDEMEVEDQDSKEAKKPNIINFDTSLPTSHTYLGADMEEFHGRTLHDDDSCQVIPVLPQVMMILIPGQTLPLQLFHPQEVSMVRNLIQKDRTFAVLAYSNVQEREAQFGTTAEIYAYREEQDFGIEIVKVKAIGRQRFKVLELRTQSDGIQQAKVQILPECVLPSTMSAVQLESLNKCQIFPSKPVSREDQCSYKWWQKYQKRKFHCANLTSWPRWLYSLYDAETLMDRIKKQLREWDENLKDDSLPSNPIDFSYRVAACLPIDDVLRIQLLKIGSAIQRLRCELDIMNKCTSLCCKQCQETEITTKNEIFSLSLCGPMAAYVNPHGYVHETLTVYKACNLNLIGRPSTEHSWFPGYAWTVAQCKICASHIGWKFTATKKDMSPQKFWGLTRSALLPTIPDTEDEISPDKVILCL

> <PDB ID(s) of Target Chain>
9DUR,8TNR,8TNQ,8TNP,9DWW,9DWV,9NGT,9NFR,9NFQ,8D81,8D80,8D7Z,8D7Y,8D7X,8D7W,8D7V,8D7U,8CVP,9Q2D,9Q03,9DQD,8UH6,9SAI,9SAF,9H59,9E2U,6BOY,6BNB,6BN9,6BN8,6BN7,9OUL,9Y7D,6XK9,6UML,5V3O,5HXB,9HNE,9D0X,9D0W,7U8F,9FJX,8OJH,8OIZ,7LPS,9SFM,9OTY,4TZ4,9DJX,9DJT,8U17,8U16,8U15,8TZX,8DEY,9CUO,4M91

> <UniProt (SwissProt) Recommended Name of Target Chain>
Protein cereblon

> <UniProt (SwissProt) Entry Name of Target Chain>
CRBN_HUMAN

> <UniProt (SwissProt) Primary ID of Target Chain>
Q96SW2

> <UniProt (SwissProt) Secondary ID(s) of Target Chain>
B2R6H4 C9IZA9 C9JAH6 Q6AI62 Q6NVZ0 Q9UHW4

> <UniProt (SwissProt) Alternative ID(s) of Target Chain>


> <UniProt (TrEMBL) Submitted Name of Target Chain>


> <UniProt (TrEMBL) Entry Name of Target Chain>


> <UniProt (TrEMBL) Primary ID of Target Chain>


> <UniProt (TrEMBL) Secondary ID(s) of Target Chain>


> <UniProt (TrEMBL) Alternative ID(s) of Target Chain>


$$$$
 
     RDKit          2D

 54 61  0  0  0  0  0  0  0  0999 V2000
   10.7339  -16.2570    0.0000 C   0  0  0  0  0  0  0  0  0  0  0  0
   11.8815  -15.0974    0.0000 C   0  0  0  0  0  0  0  0  0  0  0  0
   11.0866  -14.8905    0.0000 C   0  0  0  0  0  0  0  0  0  0  0  0
   10.5148  -15.4714    0.0000 C   0  0  0  0  0  0  0  0  0  0  0  0
   12.0960  -15.8868    0.0000 C   0  0  0  0  0  0  0  0  0  0  0  0
   11.5211  -16.4637    0.0000 C   0  0  0  0  0  0  0  0  0  0  0  0
   11.8920  -17.1889    0.0000 C   0  0  0  0  0  0  0  0  0  0  0  0
   12.6964  -17.0601    0.0000 N   0  0  0  0  0  0  0  0  0  0  0  0
   12.8223  -16.2554    0.0000 C   0  0  0  0  0  0  0  0  0  0  0  0
   13.5498  -15.8832    0.0000 O   0  0  0  0  0  0  0  0  0  0  0  0
   13.2734  -17.6350    0.0000 C   0  0  0  0  0  0  0  0  0  0  0  0
   13.0611  -18.4251    0.0000 C   0  0  0  0  0  0  0  0  0  0  0  0
   13.6361  -19.0008    0.0000 C   0  0  0  0  0  0  0  0  0  0  0  0
   14.4265  -18.7920    0.0000 C   0  0  0  0  0  0  0  0  0  0  0  0
   14.6388  -18.0018    0.0000 N   0  0  0  0  0  0  0  0  0  0  0  0
   14.0606  -17.4206    0.0000 C   0  0  0  0  0  0  0  0  0  0  0  0
   14.2716  -16.6311    0.0000 O   0  0  0  0  0  0  0  0  0  0  0  0
   15.0031  -19.3710    0.0000 O   0  0  0  0  0  0  0  0  0  0  0  0
    7.0039  -19.8437    0.0000 C   0  0  0  0  0  0  0  0  0  0  0  0
    7.2144  -20.6320    0.0000 C   0  0  0  0  0  0  0  0  0  0  0  0
    7.9980  -20.8427    0.0000 C   0  0  0  0  0  0  0  0  0  0  0  0
    8.5766  -20.2683    0.0000 C   0  0  0  0  0  0  0  0  0  0  0  0
    8.3661  -19.4800    0.0000 C   0  0  0  0  0  0  0  0  0  0  0  0
    7.5770  -19.2661    0.0000 C   0  0  0  0  0  0  0  0  0  0  0  0
    6.2158  -20.0613    0.0000 C   0  0  0  0  0  0  0  0  0  0  0  0
    7.0437  -19.0306    0.0000 N   0  0  0  0  0  0  0  0  0  0  0  0
    6.2797  -18.7409    0.0000 C   0  0  0  0  0  0  0  0  0  0  0  0
    5.7682  -19.3779    0.0000 C   0  0  0  0  0  0  0  0  0  0  0  0
    4.0226  -20.3224    0.0000 C   0  0  0  0  0  0  0  0  0  0  0  0
    4.0215  -21.1420    0.0000 C   0  0  0  0  0  0  0  0  0  0  0  0
    4.7295  -21.5509    0.0000 C   0  0  0  0  0  0  0  0  0  0  0  0
    4.7277  -19.9136    0.0000 C   0  0  0  0  0  0  0  0  0  0  0  0
    5.4364  -20.3188    0.0000 C   0  0  0  0  0  0  0  0  0  0  0  0
    5.4412  -21.1374    0.0000 C   0  0  0  0  0  0  0  0  0  0  0  0
    6.2212  -21.3859    0.0000 N   0  0  0  0  0  0  0  0  0  0  0  0
    6.6985  -20.7208    0.0000 C   0  0  0  0  0  0  0  0  0  0  0  0
    3.3135  -21.5500    0.0000 Cl  0  0  0  0  0  0  0  0  0  0  0  0
    7.4042  -21.1273    0.0000 O   0  0  0  0  0  0  0  0  0  0  0  0
    6.0650  -17.9524    0.0000 C   0  0  0  0  0  0  0  0  0  0  0  0
    6.6405  -17.3722    0.0000 N   0  0  0  0  0  0  0  0  0  0  0  0
    5.2748  -17.7441    0.0000 O   0  0  0  0  0  0  0  0  0  0  0  0
    4.9733  -19.1627    0.0000 C   0  0  0  0  0  0  0  0  0  0  0  0
    4.7646  -18.3650    0.0000 C   0  0  0  0  0  0  0  0  0  0  0  0
    3.9706  -18.1497    0.0000 C   0  0  0  0  0  0  0  0  0  0  0  0
    3.3859  -18.7308    0.0000 C   0  0  0  0  0  0  0  0  0  0  0  0
    3.6006  -19.5302    0.0000 C   0  0  0  0  0  0  0  0  0  0  0  0
    4.3943  -19.7418    0.0000 C   0  0  0  0  0  0  0  0  0  0  0  0
    4.7587  -17.5448    0.0000 F   0  0  0  0  0  0  0  0  0  0  0  0
    3.7615  -17.3597    0.0000 Cl  0  0  0  0  0  0  0  0  0  0  0  0
    7.4307  -17.5805    0.0000 C   0  0  0  0  0  0  0  0  0  0  0  0
    8.0062  -17.0003    0.0000 C   0  0  0  0  0  0  0  0  0  0  0  0
    8.7964  -17.2086    0.0000 C   0  0  0  0  0  0  0  0  0  0  0  0
    9.3719  -16.6285    0.0000 C   0  0  0  0  0  0  0  0  0  0  0  0
   10.1621  -16.8368    0.0000 C   0  0  0  0  0  0  0  0  0  0  0  0
  1  6  2  0
  5  2  2  0
  2  3  1  0
  3  4  2  0
  4  1  1  0
  5  6  1  0
  6  7  1  0
  7  8  1  0
  8  9  1  0
  9  5  1  0
  9 10  2  0
 11 12  1  0
 11 16  1  0
 12 13  1  0
 13 14  1  0
 14 15  1  0
 15 16  1  0
  8 11  1  0
 16 17  2  0
 14 18  2  0
 19 20  1  0
 19 24  1  0
 20 21  1  0
 21 22  1  0
 22 23  1  0
 23 24  1  0
 25 19  1  0
 19 26  1  0
 26 27  1  0
 27 28  1  0
 28 25  1  0
 29 30  2  0
 30 31  1  0
 31 34  2  0
 33 32  2  0
 32 29  1  0
 33 34  1  0
 34 35  1  0
 35 36  1  0
 25 36  1  1
 25 33  1  0
 30 37  1  0
 36 38  2  0
 27 39  1  6
 39 40  1  0
 39 41  2  0
 28 42  1  1
 42 43  2  0
 43 44  1  0
 44 45  2  0
 45 46  1  0
 46 47  2  0
 47 42  1  0
 43 48  1  0
 44 49  1  0
 40 50  1  0
 50 51  1  0
 51 52  1  0
 52 53  1  0
 53 54  1  0
 54  1  1  0
M  END
> <From>
www.bindingDB.org

> <BindingDB Reactant_set_id>
51235018

> <Ligand InChI>
InChI=1S/C41H42Cl2FN5O5/c42-24-14-15-28-30(21-24)46-39(54)41(28)33(26-12-8-13-29(43)34(26)44)35(48-40(41)18-4-2-5-19-40)37(52)45-20-6-1-3-9-23-10-7-11-25-27(23)22-49(38(25)53)31-16-17-32(50)47-36(31)51/h7-8,10-15,21,31,33,35,48H,1-6,9,16-20,22H2,(H,45,52)(H,46,54)(H,47,50,51)/t31?,33-,35+,41+/m0/s1

> <Ligand InChI Key>
BANRYGZZIMCKNA-OYGJEQPESA-N

> <BindingDB MonomerID>
50505628

> <BindingDB Ligand Name>
CHEMBL4449512

> <Target Name>
Protein cereblon

> <Target Source Organism According to Curator or DataSource>
Human

> <Ki (nM)>


> <IC50 (nM)>
 2.0

> <Kd (nM)>


> <EC50 (nM)>


> <kon (M-1-s-1)>


> <koff (s-1)>


> <pH>


> <Temp C>


> <Curation/DataSource>
ChEMBL

> <Article DOI>
10.1021/acs.jmedchem.9b00846

> <BindingDB Entry DOI>
10.7270/Q20C5026

> <PMID>
31560543

> <PubChem AID>


> <Patent Number>


> <Authors>
Yang, J; Li, Y; Aguilar, A; Liu, Z; Yang, CY; Wang, S

> <Date of publication>
11/14/2019

> <Date in BindingDB>
2/18/2021

> <Institution>
TBA

> <Link to Ligand in BindingDB>
http://www.bindingdb.org/bind/chemsearch/marvin/MolStructure.jsp?monomerid=50505628

> <Link to Ligand-Target Pair in BindingDB>
http://www.bindingdb.org/jsp/dbsearch/PrimarySearch_ki.jsp?energyterm=kJ/mole&tag=pol&polymerid=50007050&target=Protein+cereblon&column=ki&startPg=0&Increment=50&submit=Search

> <Link to Ligand-Target Pair in BindingDB>
http://www.bindingdb.org/jsp/dbsearch/PrimarySearch_ki.jsp?energyterm=kJ/mole&tag=r21&monomerid=50505628&enzyme=Protein+cereblon&column=ki&startPg=0&Increment=50&submit=Search

> <Ligand HET ID in PDB>


> <PDB ID(s) for Ligand-Target Complex>


> <PubChem CID of Ligand>
139600332

> <PubChem SID of Ligand>
440714213

> <ChEBI ID of Ligand>


> <ChEMBL ID of Ligand>


> <DrugBank ID of Ligand>


> <IUPHAR_GRAC ID of Ligand>


> <KEGG ID of Ligand>


> <ZINC ID of Ligand>


> <Number of Protein Chains in Target (bigger than 1 implies a multichain complex)>
1

> <BindingDB Target Chain Sequence>
MAGEGDQQDAAHNMGNHLPLLPAESEEEDEMEVEDQDSKEAKKPNIINFDTSLPTSHTYLGADMEEFHGRTLHDDDSCQVIPVLPQVMMILIPGQTLPLQLFHPQEVSMVRNLIQKDRTFAVLAYSNVQEREAQFGTTAEIYAYREEQDFGIEIVKVKAIGRQRFKVLELRTQSDGIQQAKVQILPECVLPSTMSAVQLESLNKCQIFPSKPVSREDQCSYKWWQKYQKRKFHCANLTSWPRWLYSLYDAETLMDRIKKQLREWDENLKDDSLPSNPIDFSYRVAACLPIDDVLRIQLLKIGSAIQRLRCELDIMNKCTSLCCKQCQETEITTKNEIFSLSLCGPMAAYVNPHGYVHETLTVYKACNLNLIGRPSTEHSWFPGYAWTVAQCKICASHIGWKFTATKKDMSPQKFWGLTRSALLPTIPDTEDEISPDKVILCL

> <PDB ID(s) of Target Chain>
4TZ4,5HXB,5V3O,6UML,6XK9,7LPS,7U8F,8CVP,8D7U,8D7V,8D7W,8D7X,8D7Y,8D7Z,8D80,8D81,8DEY,8OIZ,8OJH

> <UniProt (SwissProt) Recommended Name of Target Chain>
Protein cereblon

> <UniProt (SwissProt) Entry Name of Target Chain>
CRBN_HUMAN

> <UniProt (SwissProt) Primary ID of Target Chain>
Q96SW2

> <UniProt (SwissProt) Secondary ID(s) of Target Chain>
B2R6H4 C9IZA9 C9JAH6 Q6AI62 Q6NVZ0 Q9UHW4

> <UniProt (SwissProt) Alternative ID(s) of Target Chain>


> <UniProt (TrEMBL) Submitted Name of Target Chain>


> <UniProt (TrEMBL) Entry Name of Target Chain>


> <UniProt (TrEMBL) Primary ID of Target Chain>


> <UniProt (TrEMBL) Secondary ID(s) of Target Chain>


> <UniProt (TrEMBL) Alternative ID(s) of Target Chain>


$$$$

     RDKit          2D

 60 69  0  0  0  0  0  0  0  0999 V2000
   11.4736    8.7417    0.0000 C   0  0  0  0  0  0  0  0  0  0  0  0
    9.9818    8.8985    0.0000 C   0  0  0  0  0  0  0  0  0  0  0  0
    9.3717   10.2688    0.0000 O   0  0  0  0  0  0  0  0  0  0  0  0
    9.1002    7.6849    0.0000 N   0  0  0  0  0  0  0  0  0  0  0  0
    7.6084    7.8417    0.0000 C   0  0  0  0  0  0  0  0  0  0  0  0
    6.7267    6.6282    0.0000 C   0  0  0  0  0  0  0  0  0  0  0  0
    7.3368    5.2579    0.0000 C   0  0  0  0  0  0  0  0  0  0  0  0
    8.8286    5.1011    0.0000 C   0  0  0  0  0  0  0  0  0  0  0  0
    9.1405    3.6339    0.0000 C   0  0  0  0  0  0  0  0  0  0  0  0
   10.5108    3.0238    0.0000 N   0  0  0  0  0  0  0  0  0  0  0  0
   11.7243    3.9055    0.0000 C   0  0  0  0  0  0  0  0  0  0  0  0
   13.0946    3.2954    0.0000 C   0  0  0  0  0  0  0  0  0  0  0  0
   13.2514    1.8036    0.0000 C   0  0  0  0  0  0  0  0  0  0  0  0
   12.0379    0.9219    0.0000 C   0  0  0  0  0  0  0  0  0  0  0  0
   12.1947   -0.5699    0.0000 C   0  0  0  0  0  0  0  0  0  0  0  0
   10.9812   -1.4516    0.0000 C   0  0  0  0  0  0  0  0  0  0  0  0
   11.1380   -2.9434    0.0000 C   0  0  0  0  0  0  0  0  0  0  0  0
   10.0232   -3.9470    0.0000 C   0  0  0  0  0  0  0  0  0  0  0  0
   10.6333   -5.3174    0.0000 N   0  0  0  0  0  0  0  0  0  0  0  0
   12.1251   -5.1606    0.0000 N   0  0  0  0  0  0  0  0  0  0  0  0
   13.1288   -6.2753    0.0000 C   0  0  0  0  0  0  0  0  0  0  0  0
   12.4370   -3.6934    0.0000 C   0  0  0  0  0  0  0  0  0  0  0  0
    9.6108   -0.8415    0.0000 C   0  0  0  0  0  0  0  0  0  0  0  0
    8.3973   -1.7231    0.0000 C   0  0  0  0  0  0  0  0  0  0  0  0
    7.0270   -1.1130    0.0000 F   0  0  0  0  0  0  0  0  0  0  0  0
    8.5541   -3.2149    0.0000 F   0  0  0  0  0  0  0  0  0  0  0  0
    9.4541    0.6503    0.0000 C   0  0  0  0  0  0  0  0  0  0  0  0
   10.6676    1.5320    0.0000 C   0  0  0  0  0  0  0  0  0  0  0  0
    7.8414    2.8839    0.0000 N   0  0  0  0  0  0  0  0  0  0  0  0
    6.7267    3.8876    0.0000 N   0  0  0  0  0  0  0  0  0  0  0  0
    5.2595    3.5757    0.0000 C   0  0  0  0  0  0  0  0  0  0  0  0
    4.2558    4.6904    0.0000 C   0  0  0  0  0  0  0  0  0  0  0  0
    2.7886    4.3786    0.0000 C   0  0  0  0  0  0  0  0  0  0  0  0
    2.3250    2.9520    0.0000 C   0  0  0  0  0  0  0  0  0  0  0  0
    0.8578    2.6401    0.0000 C   0  0  0  0  0  0  0  0  0  0  0  0
    0.3943    1.2135    0.0000 N   0  0  0  0  0  0  0  0  0  0  0  0
    1.2760    0.0000    0.0000 C   0  0  0  0  0  0  0  0  0  0  0  0
    0.3943   -1.2135    0.0000 C   0  0  0  0  0  0  0  0  0  0  0  0
    0.7062   -2.6807    0.0000 C   0  0  0  0  0  0  0  0  0  0  0  0
   -0.4086   -3.6844    0.0000 C   0  0  0  0  0  0  0  0  0  0  0  0
   -1.8351   -3.2209    0.0000 C   0  0  0  0  0  0  0  0  0  0  0  0
   -2.1470   -1.7537    0.0000 C   0  0  0  0  0  0  0  0  0  0  0  0
   -1.0323   -0.7500    0.0000 C   0  0  0  0  0  0  0  0  0  0  0  0
   -1.0323    0.7500    0.0000 C   0  0  0  0  0  0  0  0  0  0  0  0
   -2.7168   -4.4344    0.0000 C   0  0  0  0  0  0  0  0  0  0  0  0
   -4.2168   -4.4344    0.0000 O   0  0  0  0  0  0  0  0  0  0  0  0
   -1.8351   -5.6480    0.0000 N   0  0  0  0  0  0  0  0  0  0  0  0
   -2.2987   -7.0746    0.0000 C   0  0  0  0  0  0  0  0  0  0  0  0
   -3.7659   -7.3864    0.0000 C   0  0  0  0  0  0  0  0  0  0  0  0
   -4.2294   -8.8130    0.0000 C   0  0  0  0  0  0  0  0  0  0  0  0
   -3.2257   -9.9277    0.0000 C   0  0  0  0  0  0  0  0  0  0  0  0
   -3.6892  -11.3543    0.0000 O   0  0  0  0  0  0  0  0  0  0  0  0
   -1.7585   -9.6159    0.0000 N   0  0  0  0  0  0  0  0  0  0  0  0
   -1.2950   -8.1893    0.0000 C   0  0  0  0  0  0  0  0  0  0  0  0
    0.1723   -7.8774    0.0000 O   0  0  0  0  0  0  0  0  0  0  0  0
   -0.4086   -5.1844    0.0000 C   0  0  0  0  0  0  0  0  0  0  0  0
    0.8050   -6.0661    0.0000 O   0  0  0  0  0  0  0  0  0  0  0  0
    3.3287    1.8373    0.0000 C   0  0  0  0  0  0  0  0  0  0  0  0
    4.7960    2.1491    0.0000 C   0  0  0  0  0  0  0  0  0  0  0  0
    9.7103    6.3146    0.0000 C   0  0  0  0  0  0  0  0  0  0  0  0
  1  2  1  0
  2  3  2  0
  2  4  1  0
  4  5  1  0
  5  6  1  0
  6  7  1  0
  7  8  2  0
  8  9  1  0
  9 10  1  0
 10 11  1  0
 11 12  1  0
 12 13  1  0
 13 14  1  0
 14 15  2  0
 15 16  1  0
 16 17  1  0
 17 18  1  0
 18 19  2  0
 19 20  1  0
 20 21  1  0
 20 22  1  0
 16 23  2  0
 23 24  1  0
 24 25  1  0
 24 26  1  0
 23 27  1  0
 27 28  2  0
  9 29  2  0
 29 30  1  0
 31 30  1  6
 31 32  1  0
 32 33  1  0
 33 34  1  0
 34 35  1  6
 35 36  1  0
 36 37  1  0
 37 38  1  0
 38 39  2  0
 39 40  1  0
 40 41  2  0
 41 42  1  0
 42 43  2  0
 43 44  1  0
 41 45  1  0
 45 46  2  0
 45 47  1  0
 47 48  1  0
 48 49  1  0
 49 50  1  0
 50 51  1  0
 51 52  2  0
 51 53  1  0
 53 54  1  0
 54 55  2  0
 47 56  1  0
 56 57  2  0
 34 58  1  0
 58 59  1  0
  8 60  1  0
 60  4  1  0
 30  7  1  0
 59 31  1  0
 28 10  1  0
 44 36  1  0
 54 48  1  0
 28 14  1  0
 43 38  1  0
 22 17  2  0
 56 40  1  0
M  END
> <From>
www.bindingDB.org

> <BindingDB Reactant_set_id>
51598326

> <Ligand InChI>
InChI=1S/C44H47F2N9O5/c1-24(56)52-13-11-36-35(23-52)41(53-12-3-4-26-14-31(29-18-47-50(2)20-29)32(40(45)46)17-38(26)53)49-55(36)30-7-5-25(6-8-30)19-51-21-27-15-33-34(16-28(27)22-51)44(60)54(43(33)59)37-9-10-39(57)48-42(37)58/h14-18,20,25,30,37,40H,3-13,19,21-23H2,1-2H3,(H,48,57,58)

> <Ligand InChI Key>
NORRDWRSNUOCBV-UHFFFAOYSA-N

> <BindingDB MonomerID>
50643723

> <BindingDB Ligand Name>
CHEMBL5575710

> <Target Name>
Protein cereblon

> <Target Source Organism According to Curator or DataSource>
Human

> <Ki (nM)>


> <IC50 (nM)>
 2.8

> <Kd (nM)>


> <EC50 (nM)>


> <kon (M-1-s-1)>


> <koff (s-1)>


> <pH>


> <Temp C>


> <Curation/DataSource>
ChEMBL

> <Article DOI>


> <BindingDB Entry DOI>
10.7270/Q2VM4HXD

> <PMID>
38477974

> <PubChem AID>


> <Patent Number>


> <Authors>
Chen, Z; Wang, M; Wu, D; Bai, L; Xu, T; Metwally, H; Wang, Y; McEachern, D; Zhao, L; Li, R; Takyi-Williams, J; Wang, M; Wang, L; Li, Q; Wen, B; Sun, D; Wang, S

> <Date of publication>
//0

> <Date in BindingDB>
10/12/2025

> <Institution>
University of Michigan

> <Link to Ligand in BindingDB>
http://www.bindingdb.org/bind/chemsearch/marvin/MolStructure.jsp?monomerid=50643723

> <Link to Ligand-Target Pair in BindingDB>
http://www.bindingdb.org/rwd/jsp/dbsearch/PrimarySearch_ki.jsp?energyterm=kJ/mole&tag=pol&polymerid=50007050&target=Protein+cereblon&column=ki&startPg=0&Increment=50&submit=Search

> <Link to Ligand-Target Pair in BindingDB>
http://www.bindingdb.org/rwd/jsp/dbsearch/PrimarySearch_ki.jsp?energyterm=kJ/mole&tag=r21&monomerid=50643723&enzyme=Protein+cereblon&column=ki&startPg=0&Increment=50&submit=Search

> <Ligand HET ID in PDB>


> <PDB ID(s) for Ligand-Target Complex>


> <PubChem CID of Ligand>
164919450

> <PubChem SID of Ligand>
519669127

> <ChEBI ID of Ligand>


> <ChEMBL ID of Ligand>


> <DrugBank ID of Ligand>


> <IUPHAR_GRAC ID of Ligand>


> <KEGG ID of Ligand>


> <ZINC ID of Ligand>


> <Number of Protein Chains in Target (bigger than 1 implies a multichain complex)>
1

> <BindingDB Target Chain Sequence>
MAGEGDQQDAAHNMGNHLPLLPAESEEEDEMEVEDQDSKEAKKPNIINFDTSLPTSHTYLGADMEEFHGRTLHDDDSCQVIPVLPQVMMILIPGQTLPLQLFHPQEVSMVRNLIQKDRTFAVLAYSNVQEREAQFGTTAEIYAYREEQDFGIEIVKVKAIGRQRFKVLELRTQSDGIQQAKVQILPECVLPSTMSAVQLESLNKCQIFPSKPVSREDQCSYKWWQKYQKRKFHCANLTSWPRWLYSLYDAETLMDRIKKQLREWDENLKDDSLPSNPIDFSYRVAACLPIDDVLRIQLLKIGSAIQRLRCELDIMNKCTSLCCKQCQETEITTKNEIFSLSLCGPMAAYVNPHGYVHETLTVYKACNLNLIGRPSTEHSWFPGYAWTVAQCKICASHIGWKFTATKKDMSPQKFWGLTRSALLPTIPDTEDEISPDKVILCL

> <PDB ID(s) of Target Chain>
9DUR,8TNR,8TNQ,8TNP,9DWW,9DWV,9NGT,9NFR,9NFQ,8D81,8D80,8D7Z,8D7Y,8D7X,8D7W,8D7V,8D7U,8CVP,9Q2D,9Q03,9DQD,8UH6,9SAI,9SAF,9H59,9E2U,6BOY,6BNB,6BN9,6BN8,6BN7,9OUL,9Y7D,6XK9,6UML,5V3O,5HXB,9HNE,9D0X,9D0W,7U8F,9FJX,8OJH,8OIZ,7LPS,9SFM,9OTY,4TZ4,9DJX,9DJT,8U17,8U16,8U15,8TZX,8DEY,9CUO,4M91

> <UniProt (SwissProt) Recommended Name of Target Chain>
Protein cereblon

> <UniProt (SwissProt) Entry Name of Target Chain>
CRBN_HUMAN

> <UniProt (SwissProt) Primary ID of Target Chain>
Q96SW2

> <UniProt (SwissProt) Secondary ID(s) of Target Chain>
B2R6H4 C9IZA9 C9JAH6 Q6AI62 Q6NVZ0 Q9UHW4

> <UniProt (SwissProt) Alternative ID(s) of Target Chain>


> <UniProt (TrEMBL) Submitted Name of Target Chain>


> <UniProt (TrEMBL) Entry Name of Target Chain>


> <UniProt (TrEMBL) Primary ID of Target Chain>


> <UniProt (TrEMBL) Secondary ID(s) of Target Chain>


> <UniProt (TrEMBL) Alternative ID(s) of Target Chain>


$$$$

     RDKit          2D

 62 70  0  0  0  0  0  0  0  0999 V2000
   -1.5639    5.4635    0.0000 C   0  0  0  0  0  0  0  0  0  0  0  0
   -0.0967    5.1517    0.0000 C   0  0  0  0  0  0  0  0  0  0  0  0
    1.3705    4.8398    0.0000 C   0  0  0  0  0  0  0  0  0  0  0  0
    0.2152    6.6189    0.0000 O   0  0  0  0  0  0  0  0  0  0  0  0
   -0.4086    3.6844    0.0000 C   0  0  0  0  0  0  0  0  0  0  0  0
    0.7062    2.6807    0.0000 C   0  0  0  0  0  0  0  0  0  0  0  0
    0.3943    1.2135    0.0000 C   0  0  0  0  0  0  0  0  0  0  0  0
    1.2760    0.0000    0.0000 N   0  0  0  0  0  0  0  0  0  0  0  0
    0.3943   -1.2135    0.0000 C   0  0  0  0  0  0  0  0  0  0  0  0
    0.8578   -2.6401    0.0000 C   0  0  0  0  0  0  0  0  0  0  0  0
   -0.1459   -3.7548    0.0000 C   0  0  0  0  0  0  0  0  0  0  0  0
    0.3177   -5.1814    0.0000 C   0  0  0  0  0  0  0  0  0  0  0  0
    1.7849   -5.4933    0.0000 C   0  0  0  0  0  0  0  0  0  0  0  0
    2.2484   -6.9199    0.0000 C   0  0  0  0  0  0  0  0  0  0  0  0
    1.2447   -8.0346    0.0000 N   0  0  0  0  0  0  0  0  0  0  0  0
   -0.2532   -8.1131    0.0000 C   0  0  0  0  0  0  0  0  0  0  0  0
   -0.1747   -9.6110    0.0000 C   0  0  0  0  0  0  0  0  0  0  0  0
   -1.6727   -9.6895    0.0000 C   0  0  0  0  0  0  0  0  0  0  0  0
   -1.5942  -11.1875    0.0000 C   0  0  0  0  0  0  0  0  0  0  0  0
   -2.5979  -12.3022    0.0000 C   0  0  0  0  0  0  0  0  0  0  0  0
   -4.0651  -11.9903    0.0000 C   0  0  0  0  0  0  0  0  0  0  0  0
   -5.0688  -13.1050    0.0000 N   0  0  0  0  0  0  0  0  0  0  0  0
   -6.5360  -12.7932    0.0000 C   0  0  0  0  0  0  0  0  0  0  0  0
   -6.9995  -11.3666    0.0000 C   0  0  0  0  0  0  0  0  0  0  0  0
   -8.4668  -11.0547    0.0000 C   0  0  0  0  0  0  0  0  0  0  0  0
   -9.4705  -12.1694    0.0000 C   0  0  0  0  0  0  0  0  0  0  0  0
   -9.0069  -13.5960    0.0000 C   0  0  0  0  0  0  0  0  0  0  0  0
   -7.5397  -13.9079    0.0000 C   0  0  0  0  0  0  0  0  0  0  0  0
   -7.3829  -15.3997    0.0000 C   0  0  0  0  0  0  0  0  0  0  0  0
   -6.0839  -16.1497    0.0000 O   0  0  0  0  0  0  0  0  0  0  0  0
   -8.7532  -16.0098    0.0000 N   0  0  0  0  0  0  0  0  0  0  0  0
   -9.0651  -17.4770    0.0000 C   0  0  0  0  0  0  0  0  0  0  0  0
  -10.4917  -17.9405    0.0000 C   0  0  0  0  0  0  0  0  0  0  0  0
  -10.8036  -19.4078    0.0000 C   0  0  0  0  0  0  0  0  0  0  0  0
   -9.6888  -20.4114    0.0000 C   0  0  0  0  0  0  0  0  0  0  0  0
  -10.0007  -21.8787    0.0000 O   0  0  0  0  0  0  0  0  0  0  0  0
   -8.2623  -19.9479    0.0000 N   0  0  0  0  0  0  0  0  0  0  0  0
   -7.9504  -18.4807    0.0000 C   0  0  0  0  0  0  0  0  0  0  0  0
   -6.5238  -18.0172    0.0000 O   0  0  0  0  0  0  0  0  0  0  0  0
   -9.7569  -14.8951    0.0000 C   0  0  0  0  0  0  0  0  0  0  0  0
  -11.2487  -15.0519    0.0000 O   0  0  0  0  0  0  0  0  0  0  0  0
   -0.0962  -11.1090    0.0000 C   0  0  0  0  0  0  0  0  0  0  0  0
    1.3232   -9.5325    0.0000 C   0  0  0  0  0  0  0  0  0  0  0  0
    2.7886   -4.3786    0.0000 C   0  0  0  0  0  0  0  0  0  0  0  0
    2.3250   -2.9520    0.0000 C   0  0  0  0  0  0  0  0  0  0  0  0
   -1.0323   -0.7500    0.0000 S   0  0  0  0  0  0  0  0  0  0  0  0
   -1.0323    0.7500    0.0000 C   0  0  0  0  0  0  0  0  0  0  0  0
   -2.1470    1.7537    0.0000 C   0  0  0  0  0  0  0  0  0  0  0  0
   -1.8351    3.2209    0.0000 C   0  0  0  0  0  0  0  0  0  0  0  0
   -2.9499    4.2246    0.0000 N   0  0  0  0  0  0  0  0  0  0  0  0
   -4.3764    3.7611    0.0000 C   0  0  0  0  0  0  0  0  0  0  0  0
   -4.6883    2.2939    0.0000 O   0  0  0  0  0  0  0  0  0  0  0  0
   -5.4912    4.7648    0.0000 C   0  0  0  0  0  0  0  0  0  0  0  0
   -5.1793    6.2320    0.0000 C   0  0  0  0  0  0  0  0  0  0  0  0
   -6.2940    7.2357    0.0000 C   0  0  0  0  0  0  0  0  0  0  0  0
   -7.7206    6.7722    0.0000 C   0  0  0  0  0  0  0  0  0  0  0  0
   -8.0325    5.3050    0.0000 C   0  0  0  0  0  0  0  0  0  0  0  0
   -9.4590    4.8414    0.0000 C   0  0  0  0  0  0  0  0  0  0  0  0
  -10.8856    4.3779    0.0000 F   0  0  0  0  0  0  0  0  0  0  0  0
   -9.9226    6.2680    0.0000 F   0  0  0  0  0  0  0  0  0  0  0  0
   -8.9955    3.4148    0.0000 F   0  0  0  0  0  0  0  0  0  0  0  0
   -6.9177    4.3013    0.0000 N   0  0  0  0  0  0  0  0  0  0  0  0
  1  2  1  0
  2  3  1  0
  2  4  1  0
  2  5  1  0
  5  6  2  0
  6  7  1  0
  7  8  1  0
  8  9  2  0
 10  9  1  6
 10 11  1  0
 11 12  1  0
 12 13  1  0
 13 14  1  1
 14 15  1  0
 15 16  1  0
 16 17  1  0
 17 18  1  0
 18 19  1  0
 19 20  1  0
 20 21  1  0
 21 22  1  0
 22 23  1  0
 23 24  2  0
 24 25  1  0
 25 26  2  0
 26 27  1  0
 27 28  2  0
 28 29  1  0
 29 30  2  0
 29 31  1  0
 32 31  1  6
 32 33  1  0
 33 34  1  0
 34 35  1  0
 35 36  2  0
 35 37  1  0
 37 38  1  0
 38 39  2  0
 31 40  1  0
 40 41  2  0
 19 42  1  0
 17 43  1  0
 13 44  1  0
 44 45  1  0
  9 46  1  0
 46 47  1  0
 47 48  1  0
 48 49  2  0
 49 50  1  0
 50 51  1  0
 51 52  2  0
 51 53  1  0
 53 54  2  0
 54 55  1  0
 55 56  2  0
 56 57  1  0
 57 58  1  0
 58 59  1  0
 58 60  1  0
 58 61  1  0
 57 62  2  0
 49  5  1  0
 62 53  1  0
 47  7  2  0
 45 10  1  0
 43 15  1  0
 42 17  1  0
 28 23  1  0
 38 32  1  0
 40 27  1  0
M  END
> <From>
www.bindingDB.org

> <BindingDB Reactant_set_id>
51589169

> <Ligand InChI>
InChI=1S/C45H48F3N7O6S/c1-43(2,61)28-17-32-34(18-31(28)51-38(57)30-7-4-8-35(50-30)45(46,47)48)62-40(52-32)26-11-9-24(10-12-26)21-54-22-44(23-54)19-25(20-44)15-16-49-29-6-3-5-27-37(29)42(60)55(41(27)59)33-13-14-36(56)53-39(33)58/h3-8,17-18,24-26,33,49,61H,9-16,19-23H2,1-2H3,(H,51,57)(H,53,56,58)

> <Ligand InChI Key>
WDRJGMSUTPVXDH-UHFFFAOYSA-N

> <BindingDB MonomerID>
50639852

> <BindingDB Ligand Name>
CHEMBL5561818

> <Target Name>
Protein cereblon

> <Target Source Organism According to Curator or DataSource>
Human

> <Ki (nM)>


> <IC50 (nM)>
 3.0

> <Kd (nM)>


> <EC50 (nM)>


> <kon (M-1-s-1)>


> <koff (s-1)>


> <pH>


> <Temp C>


> <Curation/DataSource>
ChEMBL

> <Article DOI>


> <BindingDB Entry DOI>
10.7270/Q23F4V8G

> <PMID>
38920289

> <PubChem AID>


> <Patent Number>


> <Authors>
Weiss, MM; Zheng, X; Ji, N; Browne, CM; Campbell, V; Chen, D; Enerson, B; Fei, X; Huang, X; Klaus, CR; Li, H; Mayo, M; McDonald, AA; Paul, A; Rong, H; Sharma, K; Shi, Y; Slavin, A; Walther, DM; Yuan, K; Zhang, Y; Zhu, X; Kelleher, J; Walker, D; Mainolfi, N

> <Date of publication>
//0

> <Date in BindingDB>
10/11/2025

> <Institution>
Kymera Therapeutics

> <Link to Ligand in BindingDB>
http://www.bindingdb.org/bind/chemsearch/marvin/MolStructure.jsp?monomerid=50639852

> <Link to Ligand-Target Pair in BindingDB>
http://www.bindingdb.org/rwd/jsp/dbsearch/PrimarySearch_ki.jsp?energyterm=kJ/mole&tag=pol&polymerid=50007050&target=Protein+cereblon&column=ki&startPg=0&Increment=50&submit=Search

> <Link to Ligand-Target Pair in BindingDB>
http://www.bindingdb.org/rwd/jsp/dbsearch/PrimarySearch_ki.jsp?energyterm=kJ/mole&tag=r21&monomerid=50639852&enzyme=Protein+cereblon&column=ki&startPg=0&Increment=50&submit=Search

> <Ligand HET ID in PDB>


> <PDB ID(s) for Ligand-Target Complex>


> <PubChem CID of Ligand>
156506408

> <PubChem SID of Ligand>
519660255

> <ChEBI ID of Ligand>


> <ChEMBL ID of Ligand>


> <DrugBank ID of Ligand>


> <IUPHAR_GRAC ID of Ligand>


> <KEGG ID of Ligand>


> <ZINC ID of Ligand>


> <Number of Protein Chains in Target (bigger than 1 implies a multichain complex)>
1

> <BindingDB Target Chain Sequence>
MAGEGDQQDAAHNMGNHLPLLPAESEEEDEMEVEDQDSKEAKKPNIINFDTSLPTSHTYLGADMEEFHGRTLHDDDSCQVIPVLPQVMMILIPGQTLPLQLFHPQEVSMVRNLIQKDRTFAVLAYSNVQEREAQFGTTAEIYAYREEQDFGIEIVKVKAIGRQRFKVLELRTQSDGIQQAKVQILPECVLPSTMSAVQLESLNKCQIFPSKPVSREDQCSYKWWQKYQKRKFHCANLTSWPRWLYSLYDAETLMDRIKKQLREWDENLKDDSLPSNPIDFSYRVAACLPIDDVLRIQLLKIGSAIQRLRCELDIMNKCTSLCCKQCQETEITTKNEIFSLSLCGPMAAYVNPHGYVHETLTVYKACNLNLIGRPSTEHSWFPGYAWTVAQCKICASHIGWKFTATKKDMSPQKFWGLTRSALLPTIPDTEDEISPDKVILCL

> <PDB ID(s) of Target Chain>
9DUR,8TNR,8TNQ,8TNP,9DWW,9DWV,9NGT,9NFR,9NFQ,8D81,8D80,8D7Z,8D7Y,8D7X,8D7W,8D7V,8D7U,8CVP,9Q2D,9Q03,9DQD,8UH6,9SAI,9SAF,9H59,9E2U,6BOY,6BNB,6BN9,6BN8,6BN7,9OUL,9Y7D,6XK9,6UML,5V3O,5HXB,9HNE,9D0X,9D0W,7U8F,9FJX,8OJH,8OIZ,7LPS,9SFM,9OTY,4TZ4,9DJX,9DJT,8U17,8U16,8U15,8TZX,8DEY,9CUO,4M91

> <UniProt (SwissProt) Recommended Name of Target Chain>
Protein cereblon

> <UniProt (SwissProt) Entry Name of Target Chain>
CRBN_HUMAN

> <UniProt (SwissProt) Primary ID of Target Chain>
Q96SW2

> <UniProt (SwissProt) Secondary ID(s) of Target Chain>
B2R6H4 C9IZA9 C9JAH6 Q6AI62 Q6NVZ0 Q9UHW4

> <UniProt (SwissProt) Alternative ID(s) of Target Chain>


> <UniProt (TrEMBL) Submitted Name of Target Chain>


> <UniProt (TrEMBL) Entry Name of Target Chain>


> <UniProt (TrEMBL) Primary ID of Target Chain>


> <UniProt (TrEMBL) Secondary ID(s) of Target Chain>


> <UniProt (TrEMBL) Alternative ID(s) of Target Chain>


$$$$
 
     RDKit          2D

 54 61  0  0  0  0  0  0  0  0999 V2000
   10.7339  -16.2570    0.0000 C   0  0  0  0  0  0  0  0  0  0  0  0
   11.8815  -15.0974    0.0000 C   0  0  0  0  0  0  0  0  0  0  0  0
   11.0866  -14.8905    0.0000 C   0  0  0  0  0  0  0  0  0  0  0  0
   10.5148  -15.4714    0.0000 C   0  0  0  0  0  0  0  0  0  0  0  0
   12.0960  -15.8868    0.0000 C   0  0  0  0  0  0  0  0  0  0  0  0
   11.5211  -16.4637    0.0000 C   0  0  0  0  0  0  0  0  0  0  0  0
   11.8920  -17.1889    0.0000 C   0  0  0  0  0  0  0  0  0  0  0  0
   12.6964  -17.0601    0.0000 N   0  0  0  0  0  0  0  0  0  0  0  0
   12.8223  -16.2554    0.0000 C   0  0  0  0  0  0  0  0  0  0  0  0
   13.5498  -15.8832    0.0000 O   0  0  0  0  0  0  0  0  0  0  0  0
   13.2734  -17.6350    0.0000 C   0  0  0  0  0  0  0  0  0  0  0  0
   13.0611  -18.4251    0.0000 C   0  0  0  0  0  0  0  0  0  0  0  0
   13.6361  -19.0008    0.0000 C   0  0  0  0  0  0  0  0  0  0  0  0
   14.4265  -18.7920    0.0000 C   0  0  0  0  0  0  0  0  0  0  0  0
   14.6388  -18.0018    0.0000 N   0  0  0  0  0  0  0  0  0  0  0  0
   14.0606  -17.4206    0.0000 C   0  0  0  0  0  0  0  0  0  0  0  0
   14.2716  -16.6311    0.0000 O   0  0  0  0  0  0  0  0  0  0  0  0
   15.0031  -19.3710    0.0000 O   0  0  0  0  0  0  0  0  0  0  0  0
    7.0039  -19.8437    0.0000 C   0  0  0  0  0  0  0  0  0  0  0  0
    7.2144  -20.6320    0.0000 C   0  0  0  0  0  0  0  0  0  0  0  0
    7.9980  -20.8427    0.0000 C   0  0  0  0  0  0  0  0  0  0  0  0
    8.5766  -20.2683    0.0000 C   0  0  0  0  0  0  0  0  0  0  0  0
    8.3661  -19.4800    0.0000 C   0  0  0  0  0  0  0  0  0  0  0  0
    7.5770  -19.2661    0.0000 C   0  0  0  0  0  0  0  0  0  0  0  0
    6.2158  -20.0613    0.0000 C   0  0  0  0  0  0  0  0  0  0  0  0
    7.0437  -19.0306    0.0000 N   0  0  0  0  0  0  0  0  0  0  0  0
    6.2797  -18.7409    0.0000 C   0  0  0  0  0  0  0  0  0  0  0  0
    5.7682  -19.3779    0.0000 C   0  0  0  0  0  0  0  0  0  0  0  0
    4.0226  -20.3224    0.0000 C   0  0  0  0  0  0  0  0  0  0  0  0
    4.0215  -21.1420    0.0000 C   0  0  0  0  0  0  0  0  0  0  0  0
    4.7295  -21.5509    0.0000 C   0  0  0  0  0  0  0  0  0  0  0  0
    4.7277  -19.9136    0.0000 C   0  0  0  0  0  0  0  0  0  0  0  0
    5.4364  -20.3188    0.0000 C   0  0  0  0  0  0  0  0  0  0  0  0
    5.4412  -21.1374    0.0000 C   0  0  0  0  0  0  0  0  0  0  0  0
    6.2212  -21.3859    0.0000 N   0  0  0  0  0  0  0  0  0  0  0  0
    6.6985  -20.7208    0.0000 C   0  0  0  0  0  0  0  0  0  0  0  0
    3.3135  -21.5500    0.0000 Cl  0  0  0  0  0  0  0  0  0  0  0  0
    7.4042  -21.1273    0.0000 O   0  0  0  0  0  0  0  0  0  0  0  0
    6.0650  -17.9524    0.0000 C   0  0  0  0  0  0  0  0  0  0  0  0
    6.6405  -17.3722    0.0000 N   0  0  0  0  0  0  0  0  0  0  0  0
    5.2748  -17.7441    0.0000 O   0  0  0  0  0  0  0  0  0  0  0  0
    4.9733  -19.1627    0.0000 C   0  0  0  0  0  0  0  0  0  0  0  0
    4.7646  -18.3650    0.0000 C   0  0  0  0  0  0  0  0  0  0  0  0
    3.9706  -18.1497    0.0000 C   0  0  0  0  0  0  0  0  0  0  0  0
    3.3859  -18.7308    0.0000 C   0  0  0  0  0  0  0  0  0  0  0  0
    3.6006  -19.5302    0.0000 C   0  0  0  0  0  0  0  0  0  0  0  0
    4.3943  -19.7418    0.0000 C   0  0  0  0  0  0  0  0  0  0  0  0
    4.7587  -17.5448    0.0000 F   0  0  0  0  0  0  0  0  0  0  0  0
    3.7615  -17.3597    0.0000 Cl  0  0  0  0  0  0  0  0  0  0  0  0
    7.4307  -17.5805    0.0000 C   0  0  0  0  0  0  0  0  0  0  0  0
    8.0062  -17.0003    0.0000 C   0  0  0  0  0  0  0  0  0  0  0  0
    8.7964  -17.2086    0.0000 C   0  0  0  0  0  0  0  0  0  0  0  0
    9.3719  -16.6285    0.0000 C   0  0  0  0  0  0  0  0  0  0  0  0
   10.1621  -16.8368    0.0000 C   0  0  0  0  0  0  0  0  0  0  0  0
  1  6  2  0
  5  2  2  0
  2  3  1  0
  3  4  2  0
  4  1  1  0
  5  6  1  0
  6  7  1  0
  7  8  1  0
  8  9  1  0
  9  5  1  0
  9 10  2  0
 11 12  1  0
 11 16  1  0
 12 13  1  0
 13 14  1  0
 14 15  1  0
 15 16  1  0
  8 11  1  0
 16 17  2  0
 14 18  2  0
 19 20  1  0
 19 24  1  0
 20 21  1  0
 21 22  1  0
 22 23  1  0
 23 24  1  0
 25 19  1  0
 19 26  1  0
 26 27  1  0
 27 28  1  0
 28 25  1  0
 29 30  2  0
 30 31  1  0
 31 34  2  0
 33 32  2  0
 32 29  1  0
 33 34  1  0
 34 35  1  0
 35 36  1  0
 25 36  1  1
 25 33  1  0
 30 37  1  0
 36 38  2  0
 27 39  1  6
 39 40  1  0
 39 41  2  0
 28 42  1  1
 42 43  2  0
 43 44  1  0
 44 45  2  0
 45 46  1  0
 46 47  2  0
 47 42  1  0
 43 48  1  0
 44 49  1  0
 40 50  1  0
 50 51  1  0
 51 52  1  0
 52 53  1  0
 53 54  1  0
 54  1  1  0
M  END
> <From>
www.bindingDB.org

> <BindingDB Reactant_set_id>
51235015

> <Ligand InChI>
InChI=1S/C41H42Cl2FN5O5/c42-24-14-15-28-30(21-24)46-39(54)41(28)33(26-12-8-13-29(43)34(26)44)35(48-40(41)18-4-2-5-19-40)37(52)45-20-6-1-3-9-23-10-7-11-25-27(23)22-49(38(25)53)31-16-17-32(50)47-36(31)51/h7-8,10-15,21,31,33,35,48H,1-6,9,16-20,22H2,(H,45,52)(H,46,54)(H,47,50,51)/t31?,33-,35+,41+/m0/s1

> <Ligand InChI Key>
BANRYGZZIMCKNA-OYGJEQPESA-N

> <BindingDB MonomerID>
50505628

> <BindingDB Ligand Name>
CHEMBL4449512

> <Target Name>
Protein cereblon

> <Target Source Organism According to Curator or DataSource>
Human

> <Ki (nM)>


> <IC50 (nM)>
 3.1

> <Kd (nM)>


> <EC50 (nM)>


> <kon (M-1-s-1)>


> <koff (s-1)>


> <pH>


> <Temp C>


> <Curation/DataSource>
ChEMBL

> <Article DOI>
10.1021/acs.jmedchem.9b00846

> <BindingDB Entry DOI>
10.7270/Q20C5026

> <PMID>
31560543

> <PubChem AID>


> <Patent Number>


> <Authors>
Yang, J; Li, Y; Aguilar, A; Liu, Z; Yang, CY; Wang, S

> <Date of publication>
11/14/2019

> <Date in BindingDB>
2/18/2021

> <Institution>
TBA

> <Link to Ligand in BindingDB>
http://www.bindingdb.org/bind/chemsearch/marvin/MolStructure.jsp?monomerid=50505628

> <Link to Ligand-Target Pair in BindingDB>
http://www.bindingdb.org/jsp/dbsearch/PrimarySearch_ki.jsp?energyterm=kJ/mole&tag=pol&polymerid=50007050&target=Protein+cereblon&column=ki&startPg=0&Increment=50&submit=Search

> <Link to Ligand-Target Pair in BindingDB>
http://www.bindingdb.org/jsp/dbsearch/PrimarySearch_ki.jsp?energyterm=kJ/mole&tag=r21&monomerid=50505628&enzyme=Protein+cereblon&column=ki&startPg=0&Increment=50&submit=Search

> <Ligand HET ID in PDB>


> <PDB ID(s) for Ligand-Target Complex>


> <PubChem CID of Ligand>
139600332

> <PubChem SID of Ligand>
440714213

> <ChEBI ID of Ligand>


> <ChEMBL ID of Ligand>


> <DrugBank ID of Ligand>


> <IUPHAR_GRAC ID of Ligand>


> <KEGG ID of Ligand>


> <ZINC ID of Ligand>


> <Number of Protein Chains in Target (bigger than 1 implies a multichain complex)>
1

> <BindingDB Target Chain Sequence>
MAGEGDQQDAAHNMGNHLPLLPAESEEEDEMEVEDQDSKEAKKPNIINFDTSLPTSHTYLGADMEEFHGRTLHDDDSCQVIPVLPQVMMILIPGQTLPLQLFHPQEVSMVRNLIQKDRTFAVLAYSNVQEREAQFGTTAEIYAYREEQDFGIEIVKVKAIGRQRFKVLELRTQSDGIQQAKVQILPECVLPSTMSAVQLESLNKCQIFPSKPVSREDQCSYKWWQKYQKRKFHCANLTSWPRWLYSLYDAETLMDRIKKQLREWDENLKDDSLPSNPIDFSYRVAACLPIDDVLRIQLLKIGSAIQRLRCELDIMNKCTSLCCKQCQETEITTKNEIFSLSLCGPMAAYVNPHGYVHETLTVYKACNLNLIGRPSTEHSWFPGYAWTVAQCKICASHIGWKFTATKKDMSPQKFWGLTRSALLPTIPDTEDEISPDKVILCL

> <PDB ID(s) of Target Chain>
4TZ4,5HXB,5V3O,6UML,6XK9,7LPS,7U8F,8CVP,8D7U,8D7V,8D7W,8D7X,8D7Y,8D7Z,8D80,8D81,8DEY,8OIZ,8OJH

> <UniProt (SwissProt) Recommended Name of Target Chain>
Protein cereblon

> <UniProt (SwissProt) Entry Name of Target Chain>
CRBN_HUMAN

> <UniProt (SwissProt) Primary ID of Target Chain>
Q96SW2

> <UniProt (SwissProt) Secondary ID(s) of Target Chain>
B2R6H4 C9IZA9 C9JAH6 Q6AI62 Q6NVZ0 Q9UHW4

> <UniProt (SwissProt) Alternative ID(s) of Target Chain>


> <UniProt (TrEMBL) Submitted Name of Target Chain>


> <UniProt (TrEMBL) Entry Name of Target Chain>


> <UniProt (TrEMBL) Primary ID of Target Chain>


> <UniProt (TrEMBL) Secondary ID(s) of Target Chain>


> <UniProt (TrEMBL) Alternative ID(s) of Target Chain>


$$$$
 
     RDKit          2D

 60 67  0  0  0  0  0  0  0  0999 V2000
   42.6838   -1.0442    0.0000 O   0  0  0  0  0  0  0  0  0  0  0  0
   43.2657   -1.6261    0.0000 S   0  0  0  0  0  0  0  0  0  0  0  0
   43.4787   -0.8312    0.0000 O   0  0  0  0  0  0  0  0  0  0  0  0
   40.5280   -6.3724    0.0000 N   0  0  0  0  0  0  0  0  0  0  0  0
   40.5268   -7.1919    0.0000 C   0  0  0  0  0  0  0  0  0  0  0  0
   41.2349   -7.6009    0.0000 N   0  0  0  0  0  0  0  0  0  0  0  0
   41.2331   -5.9635    0.0000 C   0  0  0  0  0  0  0  0  0  0  0  0
   41.9417   -6.3688    0.0000 C   0  0  0  0  0  0  0  0  0  0  0  0
   41.9465   -7.1874    0.0000 C   0  0  0  0  0  0  0  0  0  0  0  0
   42.7265   -7.4359    0.0000 N   0  0  0  0  0  0  0  0  0  0  0  0
   43.2039   -6.7707    0.0000 C   0  0  0  0  0  0  0  0  0  0  0  0
   42.7188   -6.1114    0.0000 C   0  0  0  0  0  0  0  0  0  0  0  0
   41.2275   -5.1491    0.0000 C   0  0  0  0  0  0  0  0  0  0  0  0
   41.8871   -4.6668    0.0000 C   0  0  0  0  0  0  0  0  0  0  0  0
   41.6323   -3.8903    0.0000 N   0  0  0  0  0  0  0  0  0  0  0  0
   40.8151   -3.8928    0.0000 N   0  0  0  0  0  0  0  0  0  0  0  0
   40.5650   -4.6707    0.0000 C   0  0  0  0  0  0  0  0  0  0  0  0
   39.8188   -7.6000    0.0000 N   0  0  0  0  0  0  0  0  0  0  0  0
   39.1114   -7.1908    0.0000 C   0  0  0  0  0  0  0  0  0  0  0  0
   39.1166   -6.3738    0.0000 C   0  0  0  0  0  0  0  0  0  0  0  0
   38.4100   -5.9647    0.0000 C   0  0  0  0  0  0  0  0  0  0  0  0
   37.7010   -6.3728    0.0000 C   0  0  0  0  0  0  0  0  0  0  0  0
   37.7030   -7.1942    0.0000 C   0  0  0  0  0  0  0  0  0  0  0  0
   38.4101   -7.5996    0.0000 C   0  0  0  0  0  0  0  0  0  0  0  0
   36.9931   -5.9645    0.0000 C   0  0  0  0  0  0  0  0  0  0  0  0
   36.9927   -5.1474    0.0000 O   0  0  0  0  0  0  0  0  0  0  0  0
   36.2856   -6.3735    0.0000 N   0  0  0  0  0  0  0  0  0  0  0  0
   35.5777   -5.9653    0.0000 C   0  0  0  0  0  0  0  0  0  0  0  0
   42.1107   -3.2278    0.0000 C   0  0  0  0  0  0  0  0  0  0  0  0
   42.9216   -3.0975    0.0000 C   0  0  0  0  0  0  0  0  0  0  0  0
   42.7914   -2.2908    0.0000 N   0  0  0  0  0  0  0  0  0  0  0  0
   41.9846   -2.4210    0.0000 C   0  0  0  0  0  0  0  0  0  0  0  0
   44.0827   -1.7112    0.0000 C   0  0  0  0  0  0  0  0  0  0  0  0
   44.5624   -1.0496    0.0000 C   0  0  0  0  0  0  0  0  0  0  0  0
   42.6879   -3.8053    0.0000 C   0  0  0  0  0  0  0  0  0  0  0  0
   43.4773   -3.5940    0.0000 C   0  0  0  0  0  0  0  0  0  0  0  0
   44.2658   -3.3838    0.0000 N   0  0  0  0  0  0  0  0  0  0  0  0
   34.8702   -6.3743    0.0000 C   0  0  0  0  0  0  0  0  0  0  0  0
   34.1623   -5.9661    0.0000 C   0  0  0  0  0  0  0  0  0  0  0  0
   33.4548   -6.3750    0.0000 C   0  0  0  0  0  0  0  0  0  0  0  0
   32.7469   -5.9668    0.0000 O   0  0  0  0  0  0  0  0  0  0  0  0
   32.0394   -6.3758    0.0000 C   0  0  0  0  0  0  0  0  0  0  0  0
   30.6276   -7.1930    0.0000 C   0  0  0  0  0  0  0  0  0  0  0  0
   31.3405   -7.6010    0.0000 C   0  0  0  0  0  0  0  0  0  0  0  0
   32.0446   -7.1904    0.0000 C   0  0  0  0  0  0  0  0  0  0  0  0
   30.6276   -6.3749    0.0000 C   0  0  0  0  0  0  0  0  0  0  0  0
   31.3363   -5.9621    0.0000 C   0  0  0  0  0  0  0  0  0  0  0  0
   31.1628   -5.1605    0.0000 C   0  0  0  0  0  0  0  0  0  0  0  0
   30.3467   -5.0779    0.0000 N   0  0  0  0  0  0  0  0  0  0  0  0
   30.0161   -5.8284    0.0000 C   0  0  0  0  0  0  0  0  0  0  0  0
   29.9337   -4.3669    0.0000 C   0  0  0  0  0  0  0  0  0  0  0  0
   30.3418   -3.6578    0.0000 C   0  0  0  0  0  0  0  0  0  0  0  0
   29.9339   -2.9538    0.0000 N   0  0  0  0  0  0  0  0  0  0  0  0
   29.1164   -2.9527    0.0000 C   0  0  0  0  0  0  0  0  0  0  0  0
   28.7084   -3.6619    0.0000 C   0  0  0  0  0  0  0  0  0  0  0  0
   29.1179   -4.3720    0.0000 C   0  0  0  0  0  0  0  0  0  0  0  0
   31.7073   -4.5512    0.0000 O   0  0  0  0  0  0  0  0  0  0  0  0
   29.2174   -6.0014    0.0000 O   0  0  0  0  0  0  0  0  0  0  0  0
   31.1590   -3.6566    0.0000 O   0  0  0  0  0  0  0  0  0  0  0  0
   28.7077   -2.2450    0.0000 O   0  0  0  0  0  0  0  0  0  0  0  0
  2  1  2  0
  3  2  2  0
  4  5  2  0
  5  6  1  0
  6  9  2  0
  8  7  2  0
  7  4  1  0
  8  9  1  0
  9 10  1  0
 10 11  1  0
 11 12  2  0
 12  8  1  0
 13 14  2  0
 14 15  1  0
 15 16  1  0
 16 17  2  0
 17 13  1  0
  7 13  1  0
  5 18  1  0
 18 19  1  0
 19 20  2  0
 20 21  1  0
 21 22  2  0
 22 23  1  0
 23 24  2  0
 24 19  1  0
 22 25  1  0
 25 26  2  0
 25 27  1  0
 27 28  1  0
 15 29  1  0
 29 30  1  0
 30 31  1  0
 31 32  1  0
 32 29  1  0
 31  2  1  0
  2 33  1  0
 33 34  1  0
 29 35  1  0
 35 36  1  0
 36 37  3  0
 28 38  1  0
 38 39  1  0
 39 40  1  0
 40 41  1  0
 41 42  1  0
 42 47  2  0
 46 43  2  0
 43 44  1  0
 44 45  2  0
 45 42  1  0
 46 47  1  0
 47 48  1  0
 48 49  1  0
 49 50  1  0
 50 46  1  0
 51 52  1  0
 51 56  1  0
 52 53  1  0
 53 54  1  0
 54 55  1  0
 55 56  1  0
 49 51  1  0
 48 57  2  0
 50 58  2  0
 52 59  2  0
 54 60  2  0
M  END
> <From>
www.bindingDB.org

> <BindingDB Reactant_set_id>
51451982

> <Ligand InChI>


> <Ligand InChI Key>


> <BindingDB MonomerID>
50586177

> <BindingDB Ligand Name>
CHEMBL5090604

> <Target Name>
Protein cereblon

> <Target Source Organism According to Curator or DataSource>
Human

> <Ki (nM)>


> <IC50 (nM)>
 3.8

> <Kd (nM)>


> <EC50 (nM)>


> <kon (M-1-s-1)>


> <koff (s-1)>


> <pH>


> <Temp C>


> <Curation/DataSource>
ChEMBL

> <Article DOI>
10.1021/acsmedchemlett.1c00650

> <BindingDB Entry DOI>
10.7270/Q2D79GBF

> <PMID>
35300081

> <PubChem AID>


> <Patent Number>


> <Authors>
Alcock, LJ; Chang, Y; Jarusiewicz, JA; Actis, M; Nithianantham, S; Mayasundari, A; Min, J; Maxwell, D; Hunt, J; Smart, B; Yang, JJ; Nishiguchi, G; Fischer, M; Mullighan, CG; Rankovic, Z

> <Date of publication>
3/10/2022

> <Date in BindingDB>
3/7/2023

> <Institution>
St. Jude Children's Research Hospital

> <Link to Ligand in BindingDB>
http://www.bindingdb.org/bind/chemsearch/marvin/MolStructure.jsp?monomerid=50586177

> <Link to Ligand-Target Pair in BindingDB>
http://www.bindingdb.org/jsp/dbsearch/PrimarySearch_ki.jsp?energyterm=kJ/mole&tag=pol&polymerid=50007050&target=Protein+cereblon&column=ki&startPg=0&Increment=50&submit=Search

> <Link to Ligand-Target Pair in BindingDB>
http://www.bindingdb.org/jsp/dbsearch/PrimarySearch_ki.jsp?energyterm=kJ/mole&tag=r21&monomerid=50586177&enzyme=Protein+cereblon&column=ki&startPg=0&Increment=50&submit=Search

> <Ligand HET ID in PDB>


> <PDB ID(s) for Ligand-Target Complex>


> <PubChem CID of Ligand>
166633323

> <PubChem SID of Ligand>
476022264

> <ChEBI ID of Ligand>


> <ChEMBL ID of Ligand>


> <DrugBank ID of Ligand>


> <IUPHAR_GRAC ID of Ligand>


> <KEGG ID of Ligand>


> <ZINC ID of Ligand>


> <Number of Protein Chains in Target (bigger than 1 implies a multichain complex)>
1

> <BindingDB Target Chain Sequence>
MAGEGDQQDAAHNMGNHLPLLPAESEEEDEMEVEDQDSKEAKKPNIINFDTSLPTSHTYLGADMEEFHGRTLHDDDSCQVIPVLPQVMMILIPGQTLPLQLFHPQEVSMVRNLIQKDRTFAVLAYSNVQEREAQFGTTAEIYAYREEQDFGIEIVKVKAIGRQRFKVLELRTQSDGIQQAKVQILPECVLPSTMSAVQLESLNKCQIFPSKPVSREDQCSYKWWQKYQKRKFHCANLTSWPRWLYSLYDAETLMDRIKKQLREWDENLKDDSLPSNPIDFSYRVAACLPIDDVLRIQLLKIGSAIQRLRCELDIMNKCTSLCCKQCQETEITTKNEIFSLSLCGPMAAYVNPHGYVHETLTVYKACNLNLIGRPSTEHSWFPGYAWTVAQCKICASHIGWKFTATKKDMSPQKFWGLTRSALLPTIPDTEDEISPDKVILCL

> <PDB ID(s) of Target Chain>
4TZ4,5HXB,5V3O,6UML,6XK9,7LPS,7U8F,8CVP,8D7U,8D7V,8D7W,8D7X,8D7Y,8D7Z,8D80,8D81,8DEY,8OIZ,8OJH

> <UniProt (SwissProt) Recommended Name of Target Chain>
Protein cereblon

> <UniProt (SwissProt) Entry Name of Target Chain>
CRBN_HUMAN

> <UniProt (SwissProt) Primary ID of Target Chain>
Q96SW2

> <UniProt (SwissProt) Secondary ID(s) of Target Chain>
B2R6H4 C9IZA9 C9JAH6 Q6AI62 Q6NVZ0 Q9UHW4

> <UniProt (SwissProt) Alternative ID(s) of Target Chain>


> <UniProt (TrEMBL) Submitted Name of Target Chain>


> <UniProt (TrEMBL) Entry Name of Target Chain>


> <UniProt (TrEMBL) Primary ID of Target Chain>


> <UniProt (TrEMBL) Secondary ID(s) of Target Chain>


> <UniProt (TrEMBL) Alternative ID(s) of Target Chain>


$$$$

     RDKit          2D

 64 72  0  0  0  0  0  0  0  0999 V2000
    4.1791    8.6583    0.0000 C   0  0  0  0  0  0  0  0  0  0  0  0
    3.7156    7.2317    0.0000 N   0  0  0  0  0  0  0  0  0  0  0  0
    2.2484    6.9199    0.0000 C   0  0  0  0  0  0  0  0  0  0  0  0
    1.7849    5.4933    0.0000 C   0  0  0  0  0  0  0  0  0  0  0  0
    0.3177    5.1814    0.0000 C   0  0  0  0  0  0  0  0  0  0  0  0
   -0.1459    3.7548    0.0000 C   0  0  0  0  0  0  0  0  0  0  0  0
    0.8578    2.6401    0.0000 C   0  0  0  0  0  0  0  0  0  0  0  0
    0.3943    1.2135    0.0000 N   0  0  0  0  0  0  0  0  0  0  0  0
    1.2760    0.0000    0.0000 C   0  0  0  0  0  0  0  0  0  0  0  0
    0.3943   -1.2135    0.0000 C   0  0  0  0  0  0  0  0  0  0  0  0
    0.7062   -2.6807    0.0000 C   0  0  0  0  0  0  0  0  0  0  0  0
   -0.4086   -3.6844    0.0000 C   0  0  0  0  0  0  0  0  0  0  0  0
   -0.0967   -5.1517    0.0000 N   0  0  0  0  0  0  0  0  0  0  0  0
    1.3299   -5.6152    0.0000 C   0  0  0  0  0  0  0  0  0  0  0  0
    2.4446   -4.6115    0.0000 O   0  0  0  0  0  0  0  0  0  0  0  0
    1.6418   -7.0824    0.0000 C   0  0  0  0  0  0  0  0  0  0  0  0
    0.5271   -8.0861    0.0000 C   0  0  0  0  0  0  0  0  0  0  0  0
    0.8389   -9.5533    0.0000 C   0  0  0  0  0  0  0  0  0  0  0  0
    2.2655  -10.0169    0.0000 C   0  0  0  0  0  0  0  0  0  0  0  0
    3.3802   -9.0132    0.0000 C   0  0  0  0  0  0  0  0  0  0  0  0
    4.8068   -9.4767    0.0000 C   0  0  0  0  0  0  0  0  0  0  0  0
    6.2334   -9.9402    0.0000 F   0  0  0  0  0  0  0  0  0  0  0  0
    4.3433  -10.9033    0.0000 F   0  0  0  0  0  0  0  0  0  0  0  0
    5.2703   -8.0501    0.0000 F   0  0  0  0  0  0  0  0  0  0  0  0
    3.0684   -7.5459    0.0000 N   0  0  0  0  0  0  0  0  0  0  0  0
   -1.8351   -3.2209    0.0000 C   0  0  0  0  0  0  0  0  0  0  0  0
   -2.9499   -4.2246    0.0000 C   0  0  0  0  0  0  0  0  0  0  0  0
   -1.9462   -5.3393    0.0000 C   0  0  0  0  0  0  0  0  0  0  0  0
   -3.9535   -3.1099    0.0000 C   0  0  0  0  0  0  0  0  0  0  0  0
   -4.0646   -5.2283    0.0000 O   0  0  0  0  0  0  0  0  0  0  0  0
   -2.1470   -1.7537    0.0000 C   0  0  0  0  0  0  0  0  0  0  0  0
   -1.0323   -0.7500    0.0000 C   0  0  0  0  0  0  0  0  0  0  0  0
   -1.0323    0.7500    0.0000 N   0  0  0  0  0  0  0  0  0  0  0  0
    2.3250    2.9520    0.0000 C   0  0  0  0  0  0  0  0  0  0  0  0
    2.7886    4.3786    0.0000 C   0  0  0  0  0  0  0  0  0  0  0  0
    4.7193    6.1170    0.0000 C   0  0  0  0  0  0  0  0  0  0  0  0
    4.2558    4.6904    0.0000 C   0  0  0  0  0  0  0  0  0  0  0  0
    5.2595    3.5757    0.0000 C   0  0  0  0  0  0  0  0  0  0  0  0
    6.7267    3.8876    0.0000 C   0  0  0  0  0  0  0  0  0  0  0  0
    7.1902    5.3142    0.0000 C   0  0  0  0  0  0  0  0  0  0  0  0
    6.1865    6.4289    0.0000 C   0  0  0  0  0  0  0  0  0  0  0  0
    6.6482    2.3896    0.0000 C   0  0  0  0  0  0  0  0  0  0  0  0
    8.1461    2.3111    0.0000 C   0  0  0  0  0  0  0  0  0  0  0  0
    9.1498    1.1964    0.0000 N   0  0  0  0  0  0  0  0  0  0  0  0
    8.6863   -0.2302    0.0000 C   0  0  0  0  0  0  0  0  0  0  0  0
    7.2191   -0.5420    0.0000 C   0  0  0  0  0  0  0  0  0  0  0  0
    6.7556   -1.9686    0.0000 C   0  0  0  0  0  0  0  0  0  0  0  0
    7.7593   -3.0833    0.0000 C   0  0  0  0  0  0  0  0  0  0  0  0
    9.2265   -2.7715    0.0000 C   0  0  0  0  0  0  0  0  0  0  0  0
    9.6900   -1.3449    0.0000 C   0  0  0  0  0  0  0  0  0  0  0  0
   11.1900   -1.3449    0.0000 C   0  0  0  0  0  0  0  0  0  0  0  0
   12.0717   -0.1314    0.0000 O   0  0  0  0  0  0  0  0  0  0  0  0
   11.6535   -2.7715    0.0000 N   0  0  0  0  0  0  0  0  0  0  0  0
   13.0801   -3.2350    0.0000 C   0  0  0  0  0  0  0  0  0  0  0  0
   13.3920   -4.7022    0.0000 C   0  0  0  0  0  0  0  0  0  0  0  0
   14.8186   -5.1657    0.0000 C   0  0  0  0  0  0  0  0  0  0  0  0
   15.9333   -4.1620    0.0000 C   0  0  0  0  0  0  0  0  0  0  0  0
   17.3599   -4.6256    0.0000 O   0  0  0  0  0  0  0  0  0  0  0  0
   15.6214   -2.6948    0.0000 N   0  0  0  0  0  0  0  0  0  0  0  0
   14.1948   -2.2313    0.0000 C   0  0  0  0  0  0  0  0  0  0  0  0
   13.8830   -0.7641    0.0000 O   0  0  0  0  0  0  0  0  0  0  0  0
   10.4400   -3.6531    0.0000 C   0  0  0  0  0  0  0  0  0  0  0  0
   10.4400   -5.1531    0.0000 O   0  0  0  0  0  0  0  0  0  0  0  0
    8.2247    3.8091    0.0000 C   0  0  0  0  0  0  0  0  0  0  0  0
  1  2  1  0
  2  3  1  0
  4  3  1  6
  4  5  1  0
  5  6  1  0
  6  7  1  0
  7  8  1  1
  8  9  1  0
  9 10  2  0
 10 11  1  0
 11 12  2  0
 12 13  1  0
 13 14  1  0
 14 15  2  0
 14 16  1  0
 16 17  2  0
 17 18  1  0
 18 19  2  0
 19 20  1  0
 20 21  1  0
 21 22  1  0
 21 23  1  0
 21 24  1  0
 20 25  2  0
 12 26  1  0
 26 27  1  0
 27 28  1  0
 27 29  1  0
 27 30  1  0
 26 31  2  0
 31 32  1  0
 32 33  2  0
  7 34  1  0
 34 35  1  0
 36  2  1  6
 36 37  1  0
 37 38  1  0
 38 39  1  0
 39 40  1  0
 40 41  1  0
 39 42  1  0
 42 43  1  0
 43 44  1  1
 44 45  1  0
 45 46  2  0
 46 47  1  0
 47 48  2  0
 48 49  1  0
 49 50  2  0
 50 51  1  0
 51 52  2  0
 51 53  1  0
 53 54  1  0
 54 55  1  0
 55 56  1  0
 56 57  1  0
 57 58  2  0
 57 59  1  0
 59 60  1  0
 60 61  2  0
 53 62  1  0
 62 63  2  0
 43 64  1  0
 35  4  1  0
 41 36  1  0
 50 45  1  0
 60 54  1  0
 33  8  1  0
 64 39  1  0
 32 10  1  0
 62 49  1  0
 25 16  1  0
M  END
> <From>
www.bindingDB.org

> <BindingDB Reactant_set_id>
51589163

> <Ligand InChI>
InChI=1S/C47H53F3N8O6/c1-45(2,64)32-21-35-27(20-36(32)53-41(60)34-8-5-9-38(52-34)47(48,49)50)25-57(55-35)30-12-10-26(11-13-30)24-56(3)29-16-18-46(19-17-29)22-28(23-46)51-33-7-4-6-31-40(33)44(63)58(43(31)62)37-14-15-39(59)54-42(37)61/h4-9,20-21,25-26,28-30,37,51,64H,10-19,22-24H2,1-3H3,(H,53,60)(H,54,59,61)

> <Ligand InChI Key>
PRYXVIJFTJCBPJ-UHFFFAOYSA-N

> <BindingDB MonomerID>
50639846

> <BindingDB Ligand Name>
CHEMBL5563605

> <Target Name>
Protein cereblon

> <Target Source Organism According to Curator or DataSource>
Human

> <Ki (nM)>


> <IC50 (nM)>
 5.0

> <Kd (nM)>


> <EC50 (nM)>


> <kon (M-1-s-1)>


> <koff (s-1)>


> <pH>


> <Temp C>


> <Curation/DataSource>
ChEMBL

> <Article DOI>


> <BindingDB Entry DOI>
10.7270/Q23F4V8G

> <PMID>
38920289

> <PubChem AID>


> <Patent Number>


> <Authors>
Weiss, MM; Zheng, X; Ji, N; Browne, CM; Campbell, V; Chen, D; Enerson, B; Fei, X; Huang, X; Klaus, CR; Li, H; Mayo, M; McDonald, AA; Paul, A; Rong, H; Sharma, K; Shi, Y; Slavin, A; Walther, DM; Yuan, K; Zhang, Y; Zhu, X; Kelleher, J; Walker, D; Mainolfi, N

> <Date of publication>
//0

> <Date in BindingDB>
10/11/2025

> <Institution>
Kymera Therapeutics

> <Link to Ligand in BindingDB>
http://www.bindingdb.org/bind/chemsearch/marvin/MolStructure.jsp?monomerid=50639846

> <Link to Ligand-Target Pair in BindingDB>
http://www.bindingdb.org/rwd/jsp/dbsearch/PrimarySearch_ki.jsp?energyterm=kJ/mole&tag=pol&polymerid=50007050&target=Protein+cereblon&column=ki&startPg=0&Increment=50&submit=Search

> <Link to Ligand-Target Pair in BindingDB>
http://www.bindingdb.org/rwd/jsp/dbsearch/PrimarySearch_ki.jsp?energyterm=kJ/mole&tag=r21&monomerid=50639846&enzyme=Protein+cereblon&column=ki&startPg=0&Increment=50&submit=Search

> <Ligand HET ID in PDB>


> <PDB ID(s) for Ligand-Target Complex>


> <PubChem CID of Ligand>
155449080

> <PubChem SID of Ligand>
519660249

> <ChEBI ID of Ligand>


> <ChEMBL ID of Ligand>


> <DrugBank ID of Ligand>


> <IUPHAR_GRAC ID of Ligand>


> <KEGG ID of Ligand>


> <ZINC ID of Ligand>


> <Number of Protein Chains in Target (bigger than 1 implies a multichain complex)>
1

> <BindingDB Target Chain Sequence>
MAGEGDQQDAAHNMGNHLPLLPAESEEEDEMEVEDQDSKEAKKPNIINFDTSLPTSHTYLGADMEEFHGRTLHDDDSCQVIPVLPQVMMILIPGQTLPLQLFHPQEVSMVRNLIQKDRTFAVLAYSNVQEREAQFGTTAEIYAYREEQDFGIEIVKVKAIGRQRFKVLELRTQSDGIQQAKVQILPECVLPSTMSAVQLESLNKCQIFPSKPVSREDQCSYKWWQKYQKRKFHCANLTSWPRWLYSLYDAETLMDRIKKQLREWDENLKDDSLPSNPIDFSYRVAACLPIDDVLRIQLLKIGSAIQRLRCELDIMNKCTSLCCKQCQETEITTKNEIFSLSLCGPMAAYVNPHGYVHETLTVYKACNLNLIGRPSTEHSWFPGYAWTVAQCKICASHIGWKFTATKKDMSPQKFWGLTRSALLPTIPDTEDEISPDKVILCL

> <PDB ID(s) of Target Chain>
9DUR,8TNR,8TNQ,8TNP,9DWW,9DWV,9NGT,9NFR,9NFQ,8D81,8D80,8D7Z,8D7Y,8D7X,8D7W,8D7V,8D7U,8CVP,9Q2D,9Q03,9DQD,8UH6,9SAI,9SAF,9H59,9E2U,6BOY,6BNB,6BN9,6BN8,6BN7,9OUL,9Y7D,6XK9,6UML,5V3O,5HXB,9HNE,9D0X,9D0W,7U8F,9FJX,8OJH,8OIZ,7LPS,9SFM,9OTY,4TZ4,9DJX,9DJT,8U17,8U16,8U15,8TZX,8DEY,9CUO,4M91

> <UniProt (SwissProt) Recommended Name of Target Chain>
Protein cereblon

> <UniProt (SwissProt) Entry Name of Target Chain>
CRBN_HUMAN

> <UniProt (SwissProt) Primary ID of Target Chain>
Q96SW2

> <UniProt (SwissProt) Secondary ID(s) of Target Chain>
B2R6H4 C9IZA9 C9JAH6 Q6AI62 Q6NVZ0 Q9UHW4

> <UniProt (SwissProt) Alternative ID(s) of Target Chain>


> <UniProt (TrEMBL) Submitted Name of Target Chain>


> <UniProt (TrEMBL) Entry Name of Target Chain>


> <UniProt (TrEMBL) Primary ID of Target Chain>


> <UniProt (TrEMBL) Secondary ID(s) of Target Chain>


> <UniProt (TrEMBL) Alternative ID(s) of Target Chain>


$$$$
 
     RDKit          2D

 63 71  0  0  0  0  0  0  0  0999 V2000
   16.4429  -20.4091    0.0000 C   0  0  0  0  0  0  0  0  0  0  0  0
   16.6534  -21.1974    0.0000 C   0  0  0  0  0  0  0  0  0  0  0  0
   17.4369  -21.4081    0.0000 C   0  0  0  0  0  0  0  0  0  0  0  0
   18.0156  -20.8337    0.0000 C   0  0  0  0  0  0  0  0  0  0  0  0
   17.8051  -20.0454    0.0000 C   0  0  0  0  0  0  0  0  0  0  0  0
   17.0160  -19.8315    0.0000 C   0  0  0  0  0  0  0  0  0  0  0  0
   15.6548  -20.6267    0.0000 C   0  0  0  0  0  0  0  0  0  0  0  0
   16.4826  -19.5961    0.0000 N   0  0  0  0  0  0  0  0  0  0  0  0
   15.7187  -19.3063    0.0000 C   0  0  0  0  0  0  0  0  0  0  0  0
   15.2072  -19.9433    0.0000 C   0  0  0  0  0  0  0  0  0  0  0  0
   13.4616  -20.8879    0.0000 C   0  0  0  0  0  0  0  0  0  0  0  0
   13.4605  -21.7074    0.0000 C   0  0  0  0  0  0  0  0  0  0  0  0
   14.1685  -22.1164    0.0000 C   0  0  0  0  0  0  0  0  0  0  0  0
   14.1667  -20.4790    0.0000 C   0  0  0  0  0  0  0  0  0  0  0  0
   14.8753  -20.8843    0.0000 C   0  0  0  0  0  0  0  0  0  0  0  0
   14.8801  -21.7029    0.0000 C   0  0  0  0  0  0  0  0  0  0  0  0
   15.6602  -21.9513    0.0000 N   0  0  0  0  0  0  0  0  0  0  0  0
   16.1375  -21.2862    0.0000 C   0  0  0  0  0  0  0  0  0  0  0  0
   12.7524  -22.1154    0.0000 Cl  0  0  0  0  0  0  0  0  0  0  0  0
   16.8432  -21.6927    0.0000 O   0  0  0  0  0  0  0  0  0  0  0  0
   15.5040  -18.5178    0.0000 C   0  0  0  0  0  0  0  0  0  0  0  0
   16.0795  -17.9376    0.0000 N   0  0  0  0  0  0  0  0  0  0  0  0
   14.7138  -18.3095    0.0000 O   0  0  0  0  0  0  0  0  0  0  0  0
   14.4123  -19.7282    0.0000 C   0  0  0  0  0  0  0  0  0  0  0  0
   14.2036  -18.9304    0.0000 C   0  0  0  0  0  0  0  0  0  0  0  0
   13.4095  -18.7151    0.0000 C   0  0  0  0  0  0  0  0  0  0  0  0
   12.8248  -19.2962    0.0000 C   0  0  0  0  0  0  0  0  0  0  0  0
   13.0396  -20.0956    0.0000 C   0  0  0  0  0  0  0  0  0  0  0  0
   13.8332  -20.3072    0.0000 C   0  0  0  0  0  0  0  0  0  0  0  0
   14.1977  -18.1103    0.0000 F   0  0  0  0  0  0  0  0  0  0  0  0
   13.2004  -17.9252    0.0000 Cl  0  0  0  0  0  0  0  0  0  0  0  0
   15.8648  -17.1491    0.0000 C   0  0  0  0  0  0  0  0  0  0  0  0
   16.4424  -16.5703    0.0000 C   0  0  0  0  0  0  0  0  0  0  0  0
   16.2282  -15.7825    0.0000 C   0  0  0  0  0  0  0  0  0  0  0  0
   15.4373  -15.5735    0.0000 C   0  0  0  0  0  0  0  0  0  0  0  0
   14.8607  -16.1585    0.0000 C   0  0  0  0  0  0  0  0  0  0  0  0
   15.0779  -16.9442    0.0000 C   0  0  0  0  0  0  0  0  0  0  0  0
   15.2216  -14.7853    0.0000 C   0  0  0  0  0  0  0  0  0  0  0  0
   15.7963  -14.2044    0.0000 N   0  0  0  0  0  0  0  0  0  0  0  0
   14.4311  -14.5781    0.0000 O   0  0  0  0  0  0  0  0  0  0  0  0
   16.5868  -14.4116    0.0000 C   0  0  0  0  0  0  0  0  0  0  0  0
   17.1615  -13.8307    0.0000 C   0  0  0  0  0  0  0  0  0  0  0  0
   17.9520  -14.0379    0.0000 C   0  0  0  0  0  0  0  0  0  0  0  0
   18.5267  -13.4570    0.0000 C   0  0  0  0  0  0  0  0  0  0  0  0
   19.3172  -13.6643    0.0000 C   0  0  0  0  0  0  0  0  0  0  0  0
   19.8919  -13.0833    0.0000 C   0  0  0  0  0  0  0  0  0  0  0  0
   21.0419  -11.9229    0.0000 C   0  0  0  0  0  0  0  0  0  0  0  0
   20.2467  -11.7171    0.0000 C   0  0  0  0  0  0  0  0  0  0  0  0
   19.6757  -12.2988    0.0000 C   0  0  0  0  0  0  0  0  0  0  0  0
   21.2575  -12.7120    0.0000 C   0  0  0  0  0  0  0  0  0  0  0  0
   20.6862  -13.2929    0.0000 C   0  0  0  0  0  0  0  0  0  0  0  0
   21.0620  -14.0158    0.0000 C   0  0  0  0  0  0  0  0  0  0  0  0
   21.8657  -13.8817    0.0000 N   0  0  0  0  0  0  0  0  0  0  0  0
   21.9864  -13.0760    0.0000 C   0  0  0  0  0  0  0  0  0  0  0  0
   22.7114  -12.6989    0.0000 O   0  0  0  0  0  0  0  0  0  0  0  0
   22.4484  -14.4547    0.0000 C   0  0  0  0  0  0  0  0  0  0  0  0
   22.2412  -15.2449    0.0000 C   0  0  0  0  0  0  0  0  0  0  0  0
   22.8200  -15.8168    0.0000 C   0  0  0  0  0  0  0  0  0  0  0  0
   23.6090  -15.6027    0.0000 C   0  0  0  0  0  0  0  0  0  0  0  0
   23.8160  -14.8112    0.0000 N   0  0  0  0  0  0  0  0  0  0  0  0
   23.2341  -14.2338    0.0000 C   0  0  0  0  0  0  0  0  0  0  0  0
   23.4392  -13.4427    0.0000 O   0  0  0  0  0  0  0  0  0  0  0  0
   24.1894  -16.1779    0.0000 O   0  0  0  0  0  0  0  0  0  0  0  0
  1  2  1  0
  1  6  1  0
  2  3  1  0
  3  4  1  0
  4  5  1  0
  5  6  1  0
  7  1  1  0
  1  8  1  0
  8  9  1  0
  9 10  1  0
 10  7  1  0
 11 12  2  0
 12 13  1  0
 13 16  2  0
 15 14  2  0
 14 11  1  0
 15 16  1  0
 16 17  1  0
 17 18  1  0
  7 18  1  1
  7 15  1  0
 12 19  1  0
 18 20  2  0
  9 21  1  6
 21 22  1  0
 21 23  2  0
 10 24  1  1
 24 25  2  0
 25 26  1  0
 26 27  2  0
 27 28  1  0
 28 29  2  0
 29 24  1  0
 25 30  1  0
 26 31  1  0
 22 32  1  0
 32 33  2  0
 33 34  1  0
 34 35  2  0
 35 36  1  0
 36 37  2  0
 37 32  1  0
 35 38  1  0
 38 39  1  0
 38 40  2  0
 39 41  1  0
 41 42  1  0
 42 43  1  0
 43 44  1  0
 44 45  1  0
 45 46  1  0
 46 51  2  0
 50 47  2  0
 47 48  1  0
 48 49  2  0
 49 46  1  0
 50 51  1  0
 51 52  1  0
 52 53  1  0
 53 54  1  0
 54 50  1  0
 54 55  2  0
 53 56  1  0
 56 57  1  0
 56 61  1  0
 57 58  1  0
 58 59  1  0
 59 60  1  0
 60 61  1  0
 61 62  2  0
 59 63  2  0
M  END
> <From>
www.bindingDB.org

> <BindingDB Reactant_set_id>
51235019

> <Ligand InChI>
InChI=1S/C48H47Cl2FN6O6/c49-29-16-19-34-36(25-29)54-46(63)48(34)39(32-12-8-13-35(50)40(32)51)41(56-47(48)22-4-2-5-23-47)44(61)53-30-17-14-28(15-18-30)42(59)52-24-6-1-3-9-27-10-7-11-31-33(27)26-57(45(31)62)37-20-21-38(58)55-43(37)60/h7-8,10-19,25,37,39,41,56H,1-6,9,20-24,26H2,(H,52,59)(H,53,61)(H,54,63)(H,55,58,60)/t37?,39-,41+,48+/m0/s1

> <Ligand InChI Key>
RRSNDVCODIMOFX-MPKOGUQCSA-N

> <BindingDB MonomerID>
50505629

> <BindingDB Ligand Name>
CHEMBL4436772

> <Target Name>
Protein cereblon

> <Target Source Organism According to Curator or DataSource>
Human

> <Ki (nM)>


> <IC50 (nM)>
 5.5

> <Kd (nM)>


> <EC50 (nM)>


> <kon (M-1-s-1)>


> <koff (s-1)>


> <pH>


> <Temp C>


> <Curation/DataSource>
ChEMBL

> <Article DOI>
10.1021/acs.jmedchem.9b00846

> <BindingDB Entry DOI>
10.7270/Q20C5026

> <PMID>
31560543

> <PubChem AID>


> <Patent Number>


> <Authors>
Yang, J; Li, Y; Aguilar, A; Liu, Z; Yang, CY; Wang, S

> <Date of publication>
11/14/2019

> <Date in BindingDB>
2/18/2021

> <Institution>
TBA

> <Link to Ligand in BindingDB>
http://www.bindingdb.org/bind/chemsearch/marvin/MolStructure.jsp?monomerid=50505629

> <Link to Ligand-Target Pair in BindingDB>
http://www.bindingdb.org/jsp/dbsearch/PrimarySearch_ki.jsp?energyterm=kJ/mole&tag=pol&polymerid=50007050&target=Protein+cereblon&column=ki&startPg=0&Increment=50&submit=Search

> <Link to Ligand-Target Pair in BindingDB>
http://www.bindingdb.org/jsp/dbsearch/PrimarySearch_ki.jsp?energyterm=kJ/mole&tag=r21&monomerid=50505629&enzyme=Protein+cereblon&column=ki&startPg=0&Increment=50&submit=Search

> <Ligand HET ID in PDB>


> <PDB ID(s) for Ligand-Target Complex>


> <PubChem CID of Ligand>
131988640

> <PubChem SID of Ligand>
440714214

> <ChEBI ID of Ligand>


> <ChEMBL ID of Ligand>


> <DrugBank ID of Ligand>


> <IUPHAR_GRAC ID of Ligand>


> <KEGG ID of Ligand>


> <ZINC ID of Ligand>


> <Number of Protein Chains in Target (bigger than 1 implies a multichain complex)>
1

> <BindingDB Target Chain Sequence>
MAGEGDQQDAAHNMGNHLPLLPAESEEEDEMEVEDQDSKEAKKPNIINFDTSLPTSHTYLGADMEEFHGRTLHDDDSCQVIPVLPQVMMILIPGQTLPLQLFHPQEVSMVRNLIQKDRTFAVLAYSNVQEREAQFGTTAEIYAYREEQDFGIEIVKVKAIGRQRFKVLELRTQSDGIQQAKVQILPECVLPSTMSAVQLESLNKCQIFPSKPVSREDQCSYKWWQKYQKRKFHCANLTSWPRWLYSLYDAETLMDRIKKQLREWDENLKDDSLPSNPIDFSYRVAACLPIDDVLRIQLLKIGSAIQRLRCELDIMNKCTSLCCKQCQETEITTKNEIFSLSLCGPMAAYVNPHGYVHETLTVYKACNLNLIGRPSTEHSWFPGYAWTVAQCKICASHIGWKFTATKKDMSPQKFWGLTRSALLPTIPDTEDEISPDKVILCL

> <PDB ID(s) of Target Chain>
4TZ4,5HXB,5V3O,6UML,6XK9,7LPS,7U8F,8CVP,8D7U,8D7V,8D7W,8D7X,8D7Y,8D7Z,8D80,8D81,8DEY,8OIZ,8OJH

> <UniProt (SwissProt) Recommended Name of Target Chain>
Protein cereblon

> <UniProt (SwissProt) Entry Name of Target Chain>
CRBN_HUMAN

> <UniProt (SwissProt) Primary ID of Target Chain>
Q96SW2

> <UniProt (SwissProt) Secondary ID(s) of Target Chain>
B2R6H4 C9IZA9 C9JAH6 Q6AI62 Q6NVZ0 Q9UHW4

> <UniProt (SwissProt) Alternative ID(s) of Target Chain>


> <UniProt (TrEMBL) Submitted Name of Target Chain>


> <UniProt (TrEMBL) Entry Name of Target Chain>


> <UniProt (TrEMBL) Primary ID of Target Chain>


> <UniProt (TrEMBL) Secondary ID(s) of Target Chain>


> <UniProt (TrEMBL) Alternative ID(s) of Target Chain>


$$$$

     RDKit          2D

 64 72  0  0  0  0  0  0  0  0999 V2000
    4.1791    8.6583    0.0000 C   0  0  0  0  0  0  0  0  0  0  0  0
    3.7156    7.2317    0.0000 N   0  0  0  0  0  0  0  0  0  0  0  0
    2.2484    6.9199    0.0000 C   0  0  0  0  0  0  0  0  0  0  0  0
    1.7849    5.4933    0.0000 C   0  0  0  0  0  0  0  0  0  0  0  0
    0.3177    5.1814    0.0000 C   0  0  0  0  0  0  0  0  0  0  0  0
   -0.1459    3.7548    0.0000 C   0  0  0  0  0  0  0  0  0  0  0  0
    0.8578    2.6401    0.0000 C   0  0  0  0  0  0  0  0  0  0  0  0
    0.3943    1.2135    0.0000 N   0  0  0  0  0  0  0  0  0  0  0  0
    1.2760    0.0000    0.0000 C   0  0  0  0  0  0  0  0  0  0  0  0
    0.3943   -1.2135    0.0000 C   0  0  0  0  0  0  0  0  0  0  0  0
    0.7062   -2.6807    0.0000 C   0  0  0  0  0  0  0  0  0  0  0  0
   -0.4086   -3.6844    0.0000 C   0  0  0  0  0  0  0  0  0  0  0  0
   -0.0967   -5.1517    0.0000 N   0  0  0  0  0  0  0  0  0  0  0  0
    1.3299   -5.6152    0.0000 C   0  0  0  0  0  0  0  0  0  0  0  0
    2.4446   -4.6115    0.0000 O   0  0  0  0  0  0  0  0  0  0  0  0
    1.6418   -7.0824    0.0000 C   0  0  0  0  0  0  0  0  0  0  0  0
    0.5271   -8.0861    0.0000 C   0  0  0  0  0  0  0  0  0  0  0  0
    0.8389   -9.5533    0.0000 C   0  0  0  0  0  0  0  0  0  0  0  0
    2.2655  -10.0169    0.0000 C   0  0  0  0  0  0  0  0  0  0  0  0
    3.3802   -9.0132    0.0000 C   0  0  0  0  0  0  0  0  0  0  0  0
    4.8068   -9.4767    0.0000 C   0  0  0  0  0  0  0  0  0  0  0  0
    6.2334   -9.9402    0.0000 F   0  0  0  0  0  0  0  0  0  0  0  0
    4.3433  -10.9033    0.0000 F   0  0  0  0  0  0  0  0  0  0  0  0
    5.2703   -8.0501    0.0000 F   0  0  0  0  0  0  0  0  0  0  0  0
    3.0684   -7.5459    0.0000 N   0  0  0  0  0  0  0  0  0  0  0  0
   -1.8351   -3.2209    0.0000 C   0  0  0  0  0  0  0  0  0  0  0  0
   -2.9499   -4.2246    0.0000 C   0  0  0  0  0  0  0  0  0  0  0  0
   -1.9462   -5.3393    0.0000 C   0  0  0  0  0  0  0  0  0  0  0  0
   -3.9535   -3.1099    0.0000 C   0  0  0  0  0  0  0  0  0  0  0  0
   -4.0646   -5.2283    0.0000 O   0  0  0  0  0  0  0  0  0  0  0  0
   -2.1470   -1.7537    0.0000 C   0  0  0  0  0  0  0  0  0  0  0  0
   -1.0323   -0.7500    0.0000 C   0  0  0  0  0  0  0  0  0  0  0  0
   -1.0323    0.7500    0.0000 N   0  0  0  0  0  0  0  0  0  0  0  0
    2.3250    2.9520    0.0000 C   0  0  0  0  0  0  0  0  0  0  0  0
    2.7886    4.3786    0.0000 C   0  0  0  0  0  0  0  0  0  0  0  0
    4.7193    6.1170    0.0000 C   0  0  0  0  0  0  0  0  0  0  0  0
    4.2558    4.6904    0.0000 C   0  0  0  0  0  0  0  0  0  0  0  0
    5.2595    3.5757    0.0000 C   0  0  0  0  0  0  0  0  0  0  0  0
    6.7267    3.8876    0.0000 C   0  0  0  0  0  0  0  0  0  0  0  0
    7.1902    5.3142    0.0000 C   0  0  0  0  0  0  0  0  0  0  0  0
    6.1865    6.4289    0.0000 C   0  0  0  0  0  0  0  0  0  0  0  0
    6.6482    2.3896    0.0000 C   0  0  0  0  0  0  0  0  0  0  0  0
    8.1461    2.3111    0.0000 C   0  0  0  0  0  0  0  0  0  0  0  0
    9.1498    1.1964    0.0000 N   0  0  0  0  0  0  0  0  0  0  0  0
    8.6863   -0.2302    0.0000 C   0  0  0  0  0  0  0  0  0  0  0  0
    7.2191   -0.5420    0.0000 C   0  0  0  0  0  0  0  0  0  0  0  0
    6.7556   -1.9686    0.0000 C   0  0  0  0  0  0  0  0  0  0  0  0
    7.7593   -3.0833    0.0000 C   0  0  0  0  0  0  0  0  0  0  0  0
    9.2265   -2.7715    0.0000 C   0  0  0  0  0  0  0  0  0  0  0  0
    9.6900   -1.3449    0.0000 C   0  0  0  0  0  0  0  0  0  0  0  0
   11.1900   -1.3449    0.0000 C   0  0  0  0  0  0  0  0  0  0  0  0
   12.0717   -0.1314    0.0000 O   0  0  0  0  0  0  0  0  0  0  0  0
   11.6535   -2.7715    0.0000 N   0  0  0  0  0  0  0  0  0  0  0  0
   13.0801   -3.2350    0.0000 C   0  0  0  0  0  0  0  0  0  0  0  0
   13.3920   -4.7022    0.0000 C   0  0  0  0  0  0  0  0  0  0  0  0
   14.8186   -5.1657    0.0000 C   0  0  0  0  0  0  0  0  0  0  0  0
   15.9333   -4.1620    0.0000 C   0  0  0  0  0  0  0  0  0  0  0  0
   17.3599   -4.6256    0.0000 O   0  0  0  0  0  0  0  0  0  0  0  0
   15.6214   -2.6948    0.0000 N   0  0  0  0  0  0  0  0  0  0  0  0
   14.1948   -2.2313    0.0000 C   0  0  0  0  0  0  0  0  0  0  0  0
   13.8830   -0.7641    0.0000 O   0  0  0  0  0  0  0  0  0  0  0  0
   10.4400   -3.6531    0.0000 C   0  0  0  0  0  0  0  0  0  0  0  0
   10.4400   -5.1531    0.0000 O   0  0  0  0  0  0  0  0  0  0  0  0
    8.2247    3.8091    0.0000 C   0  0  0  0  0  0  0  0  0  0  0  0
  1  2  1  0
  2  3  1  0
  4  3  1  6
  4  5  1  0
  5  6  1  0
  6  7  1  0
  7  8  1  1
  8  9  1  0
  9 10  2  0
 10 11  1  0
 11 12  2  0
 12 13  1  0
 13 14  1  0
 14 15  2  0
 14 16  1  0
 16 17  2  0
 17 18  1  0
 18 19  2  0
 19 20  1  0
 20 21  1  0
 21 22  1  0
 21 23  1  0
 21 24  1  0
 20 25  2  0
 12 26  1  0
 26 27  1  0
 27 28  1  0
 27 29  1  0
 27 30  1  0
 26 31  2  0
 31 32  1  0
 32 33  2  0
  7 34  1  0
 34 35  1  0
 36  2  1  6
 36 37  1  0
 37 38  1  0
 38 39  1  0
 39 40  1  0
 40 41  1  0
 39 42  1  0
 42 43  1  0
 43 44  1  1
 44 45  1  0
 45 46  2  0
 46 47  1  0
 47 48  2  0
 48 49  1  0
 49 50  2  0
 50 51  1  0
 51 52  2  0
 51 53  1  0
 53 54  1  0
 54 55  1  0
 55 56  1  0
 56 57  1  0
 57 58  2  0
 57 59  1  0
 59 60  1  0
 60 61  2  0
 53 62  1  0
 62 63  2  0
 43 64  1  0
 35  4  1  0
 41 36  1  0
 50 45  1  0
 60 54  1  0
 33  8  1  0
 64 39  1  0
 32 10  1  0
 62 49  1  0
 25 16  1  0
M  END
> <From>
www.bindingDB.org

> <BindingDB Reactant_set_id>
51589162

> <Ligand InChI>
InChI=1S/C47H53F3N8O6/c1-45(2,64)32-21-35-27(20-36(32)53-41(60)34-8-5-9-38(52-34)47(48,49)50)25-57(55-35)30-12-10-26(11-13-30)24-56(3)29-16-18-46(19-17-29)22-28(23-46)51-33-7-4-6-31-40(33)44(63)58(43(31)62)37-14-15-39(59)54-42(37)61/h4-9,20-21,25-26,28-30,37,51,64H,10-19,22-24H2,1-3H3,(H,53,60)(H,54,59,61)

> <Ligand InChI Key>
PRYXVIJFTJCBPJ-UHFFFAOYSA-N

> <BindingDB MonomerID>
50639846

> <BindingDB Ligand Name>
CHEMBL5563605

> <Target Name>
Protein cereblon

> <Target Source Organism According to Curator or DataSource>
Human

> <Ki (nM)>


> <IC50 (nM)>
 8.0

> <Kd (nM)>


> <EC50 (nM)>


> <kon (M-1-s-1)>


> <koff (s-1)>


> <pH>


> <Temp C>


> <Curation/DataSource>
ChEMBL

> <Article DOI>


> <BindingDB Entry DOI>
10.7270/Q23F4V8G

> <PMID>
38920289

> <PubChem AID>


> <Patent Number>


> <Authors>
Weiss, MM; Zheng, X; Ji, N; Browne, CM; Campbell, V; Chen, D; Enerson, B; Fei, X; Huang, X; Klaus, CR; Li, H; Mayo, M; McDonald, AA; Paul, A; Rong, H; Sharma, K; Shi, Y; Slavin, A; Walther, DM; Yuan, K; Zhang, Y; Zhu, X; Kelleher, J; Walker, D; Mainolfi, N

> <Date of publication>
//0

> <Date in BindingDB>
10/11/2025

> <Institution>
Kymera Therapeutics

> <Link to Ligand in BindingDB>
http://www.bindingdb.org/bind/chemsearch/marvin/MolStructure.jsp?monomerid=50639846

> <Link to Ligand-Target Pair in BindingDB>
http://www.bindingdb.org/rwd/jsp/dbsearch/PrimarySearch_ki.jsp?energyterm=kJ/mole&tag=pol&polymerid=50007050&target=Protein+cereblon&column=ki&startPg=0&Increment=50&submit=Search

> <Link to Ligand-Target Pair in BindingDB>
http://www.bindingdb.org/rwd/jsp/dbsearch/PrimarySearch_ki.jsp?energyterm=kJ/mole&tag=r21&monomerid=50639846&enzyme=Protein+cereblon&column=ki&startPg=0&Increment=50&submit=Search

> <Ligand HET ID in PDB>


> <PDB ID(s) for Ligand-Target Complex>


> <PubChem CID of Ligand>
155449080

> <PubChem SID of Ligand>
519660249

> <ChEBI ID of Ligand>


> <ChEMBL ID of Ligand>


> <DrugBank ID of Ligand>


> <IUPHAR_GRAC ID of Ligand>


> <KEGG ID of Ligand>


> <ZINC ID of Ligand>


> <Number of Protein Chains in Target (bigger than 1 implies a multichain complex)>
1

> <BindingDB Target Chain Sequence>
MAGEGDQQDAAHNMGNHLPLLPAESEEEDEMEVEDQDSKEAKKPNIINFDTSLPTSHTYLGADMEEFHGRTLHDDDSCQVIPVLPQVMMILIPGQTLPLQLFHPQEVSMVRNLIQKDRTFAVLAYSNVQEREAQFGTTAEIYAYREEQDFGIEIVKVKAIGRQRFKVLELRTQSDGIQQAKVQILPECVLPSTMSAVQLESLNKCQIFPSKPVSREDQCSYKWWQKYQKRKFHCANLTSWPRWLYSLYDAETLMDRIKKQLREWDENLKDDSLPSNPIDFSYRVAACLPIDDVLRIQLLKIGSAIQRLRCELDIMNKCTSLCCKQCQETEITTKNEIFSLSLCGPMAAYVNPHGYVHETLTVYKACNLNLIGRPSTEHSWFPGYAWTVAQCKICASHIGWKFTATKKDMSPQKFWGLTRSALLPTIPDTEDEISPDKVILCL

> <PDB ID(s) of Target Chain>
9DUR,8TNR,8TNQ,8TNP,9DWW,9DWV,9NGT,9NFR,9NFQ,8D81,8D80,8D7Z,8D7Y,8D7X,8D7W,8D7V,8D7U,8CVP,9Q2D,9Q03,9DQD,8UH6,9SAI,9SAF,9H59,9E2U,6BOY,6BNB,6BN9,6BN8,6BN7,9OUL,9Y7D,6XK9,6UML,5V3O,5HXB,9HNE,9D0X,9D0W,7U8F,9FJX,8OJH,8OIZ,7LPS,9SFM,9OTY,4TZ4,9DJX,9DJT,8U17,8U16,8U15,8TZX,8DEY,9CUO,4M91

> <UniProt (SwissProt) Recommended Name of Target Chain>
Protein cereblon

> <UniProt (SwissProt) Entry Name of Target Chain>
CRBN_HUMAN

> <UniProt (SwissProt) Primary ID of Target Chain>
Q96SW2

> <UniProt (SwissProt) Secondary ID(s) of Target Chain>
B2R6H4 C9IZA9 C9JAH6 Q6AI62 Q6NVZ0 Q9UHW4

> <UniProt (SwissProt) Alternative ID(s) of Target Chain>


> <UniProt (TrEMBL) Submitted Name of Target Chain>


> <UniProt (TrEMBL) Entry Name of Target Chain>


> <UniProt (TrEMBL) Primary ID of Target Chain>


> <UniProt (TrEMBL) Secondary ID(s) of Target Chain>


> <UniProt (TrEMBL) Alternative ID(s) of Target Chain>


$$$$
 
     RDKit          2D

 52 59  0  0  0  0  0  0  0  0999 V2000
   -2.7411    1.4984    0.0000 C   0  0  0  0  0  0  0  0  0  0  0  0
   -2.0283    1.9138    0.0000 N   0  0  0  0  0  0  0  0  0  0  0  0
   -3.4573    1.9080    0.0000 C   0  0  0  0  0  0  0  0  0  0  0  0
   -4.1701    1.4925    0.0000 C   0  0  0  0  0  0  0  0  0  0  0  0
   -4.1051    0.6701    0.0000 N   0  0  0  0  0  0  0  0  0  0  0  0
   -4.7076    0.1064    0.0000 C   0  0  0  0  0  0  0  0  0  0  0  0
   -4.4611   -0.6808    0.0000 C   0  0  0  0  0  0  0  0  0  0  0  0
   -5.0199   -1.2879    0.0000 C   0  0  0  0  0  0  0  0  0  0  0  0
   -4.7735   -2.0752    0.0000 C   0  0  0  0  0  0  0  0  0  0  0  0
   -3.9684   -2.2556    0.0000 C   0  0  0  0  0  0  0  0  0  0  0  0
   -3.7220   -3.0430    0.0000 Cl  0  0  0  0  0  0  0  0  0  0  0  0
   -3.4097   -1.6485    0.0000 C   0  0  0  0  0  0  0  0  0  0  0  0
   -3.6561   -0.8610    0.0000 C   0  0  0  0  0  0  0  0  0  0  0  0
   -5.5237    0.2261    0.0000 C   0  0  0  0  0  0  0  0  0  0  0  0
   -6.0735   -0.3892    0.0000 C   0  0  0  0  0  0  0  0  0  0  0  0
   -5.8986   -1.1954    0.0000 C   0  0  0  0  0  0  0  0  0  0  0  0
   -6.8285   -0.0567    0.0000 C   0  0  0  0  0  0  0  0  0  0  0  0
   -7.5414   -0.4721    0.0000 C   0  0  0  0  0  0  0  0  0  0  0  0
   -6.7456    0.7641    0.0000 S   0  0  0  0  0  0  0  0  0  0  0  0
   -5.9394    0.9389    0.0000 C   0  0  0  0  0  0  0  0  0  0  0  0
   -5.6410    1.7081    0.0000 N   0  0  0  0  0  0  0  0  0  0  0  0
   -6.1186    2.3809    0.0000 C   0  0  0  0  0  0  0  0  0  0  0  0
   -6.9437    2.3898    0.0000 C   0  0  0  0  0  0  0  0  0  0  0  0
   -5.6266    3.0430    0.0000 N   0  0  0  0  0  0  0  0  0  0  0  0
   -4.8446    2.7795    0.0000 N   0  0  0  0  0  0  0  0  0  0  0  0
   -4.8536    1.9545    0.0000 C   0  0  0  0  0  0  0  0  0  0  0  0
   -2.7376    0.6734    0.0000 O   0  0  0  0  0  0  0  0  0  0  0  0
   -1.3119    1.5041    0.0000 C   0  0  0  0  0  0  0  0  0  0  0  0
   -0.5987    1.9195    0.0000 C   0  0  0  0  0  0  0  0  0  0  0  0
    0.1150    1.5103    0.0000 C   0  0  0  0  0  0  0  0  0  0  0  0
    0.1184    0.6848    0.0000 C   0  0  0  0  0  0  0  0  0  0  0  0
   -0.5901    0.2700    0.0000 C   0  0  0  0  0  0  0  0  0  0  0  0
   -1.3085    0.6753    0.0000 C   0  0  0  0  0  0  0  0  0  0  0  0
    0.8330    0.2722    0.0000 C   0  0  0  0  0  0  0  0  0  0  0  0
    1.5479    0.6848    0.0000 C   0  0  0  0  0  0  0  0  0  0  0  0
    1.5481    1.5102    0.0000 C   0  0  0  0  0  0  0  0  0  0  0  0
    2.2611    1.9209    0.0000 C   0  0  0  0  0  0  0  0  0  0  0  0
    2.9759    1.5082    0.0000 C   0  0  0  0  0  0  0  0  0  0  0  0
    2.9775    0.6870    0.0000 C   0  0  0  0  0  0  0  0  0  0  0  0
    2.2656    0.2705    0.0000 C   0  0  0  0  0  0  0  0  0  0  0  0
    3.7589    0.4347    0.0000 C   0  0  0  0  0  0  0  0  0  0  0  0
    3.7564    1.7634    0.0000 C   0  0  0  0  0  0  0  0  0  0  0  0
    4.2403    1.1000    0.0000 N   0  0  0  0  0  0  0  0  0  0  0  0
    3.9700    2.5605    0.0000 O   0  0  0  0  0  0  0  0  0  0  0  0
    5.0656    1.1000    0.0000 C   0  0  0  0  0  0  0  0  0  0  0  0
    5.4782    1.8146    0.0000 C   0  0  0  0  0  0  0  0  0  0  0  0
    6.3034    1.8146    0.0000 C   0  0  0  0  0  0  0  0  0  0  0  0
    6.7161    1.0999    0.0000 C   0  0  0  0  0  0  0  0  0  0  0  0
    6.3034    0.3852    0.0000 N   0  0  0  0  0  0  0  0  0  0  0  0
    5.4782    0.3852    0.0000 C   0  0  0  0  0  0  0  0  0  0  0  0
    5.0656   -0.3294    0.0000 O   0  0  0  0  0  0  0  0  0  0  0  0
    7.5414    1.0999    0.0000 O   0  0  0  0  0  0  0  0  0  0  0  0
  1  2  1  0
  1  3  1  0
  4  3  1  6
  4  5  1  0
  5  6  2  0
  6  7  1  0
  7  8  1  0
  8  9  2  0
  9 10  1  0
 10 11  1  0
 10 12  2  0
 12 13  1  0
 13  7  2  0
  6 14  1  0
 14 15  1  0
 15 16  1  0
 15 17  2  0
 17 18  1  0
 17 19  1  0
 20 19  1  0
 14 20  2  0
 21 20  1  0
 21 22  1  0
 22 23  1  0
 22 24  2  0
 24 25  1  0
 26 25  2  0
 26 21  1  0
 26  4  1  0
  1 27  2  0
  2 28  1  0
 29 28  2  0
 30 29  1  0
 31 30  2  0
 32 31  1  0
 33 32  2  0
 28 33  1  0
 31 34  1  0
 34 35  1  0
 36 35  2  0
 37 36  1  0
 38 37  2  0
 39 38  1  0
 40 39  2  0
 35 40  1  0
 39 41  1  0
 38 42  1  0
 42 43  1  0
 43 41  1  0
 42 44  2  0
 43 45  1  0
 46 45  1  0
 47 46  1  0
 48 47  1  0
 49 48  1  0
 50 49  1  0
 45 50  1  0
 50 51  2  0
 48 52  2  0
M  END
> <From>
www.bindingDB.org

> <BindingDB Reactant_set_id>
51570524

> <Ligand InChI>
InChI=1S/C39H34ClN7O4S/c1-20-21(2)52-39-34(20)35(25-7-9-27(40)10-8-25)42-30(36-45-44-22(3)47(36)39)18-33(49)41-28-11-4-23(5-12-28)16-24-6-13-29-26(17-24)19-46(38(29)51)31-14-15-32(48)43-37(31)50/h4-13,17,30-31H,14-16,18-19H2,1-3H3,(H,41,49)(H,43,48,50)/t30-,31?/m0/s1

> <Ligand InChI Key>
NAJLKAMZDMZECA-FSRLHOSWSA-N

> <BindingDB MonomerID>
50631628

> <BindingDB Ligand Name>
CHEMBL5399086

> <Target Name>
Protein cereblon

> <Target Source Organism According to Curator or DataSource>
Homo sapiens

> <Ki (nM)>


> <IC50 (nM)>
 8.4

> <Kd (nM)>


> <EC50 (nM)>


> <kon (M-1-s-1)>


> <koff (s-1)>


> <pH>


> <Temp C>


> <Curation/DataSource>
ChEMBL

> <Article DOI>
10.1021/acs.jmedchem.3c01613

> <BindingDB Entry DOI>
10.7270/Q2T1583Z

> <PMID>
38096359

> <PubChem AID>


> <Patent Number>


> <Authors>
Arndt, CM; Bitai, J; Brunner, J; Opatz, T; Martinelli, P; Gollner, A; Sokol, KR; Krumb, M

> <Date of publication>
12/28/2023

> <Date in BindingDB>
12/21/2024

> <Institution>
Boehringer Ingelheim Rcv

> <Link to Ligand in BindingDB>
http://www.bindingdb.org/bind/chemsearch/marvin/MolStructure.jsp?monomerid=50631628

> <Link to Ligand-Target Pair in BindingDB>
http://www.bindingdb.org/jsp/dbsearch/PrimarySearch_ki.jsp?energyterm=kJ/mole&tag=pol&polymerid=50007050&target=Protein+cereblon&column=ki&startPg=0&Increment=50&submit=Search

> <Link to Ligand-Target Pair in BindingDB>
http://www.bindingdb.org/jsp/dbsearch/PrimarySearch_ki.jsp?energyterm=kJ/mole&tag=r21&monomerid=50631628&enzyme=Protein+cereblon&column=ki&startPg=0&Increment=50&submit=Search

> <Ligand HET ID in PDB>


> <PDB ID(s) for Ligand-Target Complex>


> <PubChem CID of Ligand>
172439530

> <PubChem SID of Ligand>
505035962

> <ChEBI ID of Ligand>


> <ChEMBL ID of Ligand>


> <DrugBank ID of Ligand>


> <IUPHAR_GRAC ID of Ligand>


> <KEGG ID of Ligand>


> <ZINC ID of Ligand>


> <Number of Protein Chains in Target (bigger than 1 implies a multichain complex)>
1

> <BindingDB Target Chain Sequence>
MAGEGDQQDAAHNMGNHLPLLPAESEEEDEMEVEDQDSKEAKKPNIINFDTSLPTSHTYLGADMEEFHGRTLHDDDSCQVIPVLPQVMMILIPGQTLPLQLFHPQEVSMVRNLIQKDRTFAVLAYSNVQEREAQFGTTAEIYAYREEQDFGIEIVKVKAIGRQRFKVLELRTQSDGIQQAKVQILPECVLPSTMSAVQLESLNKCQIFPSKPVSREDQCSYKWWQKYQKRKFHCANLTSWPRWLYSLYDAETLMDRIKKQLREWDENLKDDSLPSNPIDFSYRVAACLPIDDVLRIQLLKIGSAIQRLRCELDIMNKCTSLCCKQCQETEITTKNEIFSLSLCGPMAAYVNPHGYVHETLTVYKACNLNLIGRPSTEHSWFPGYAWTVAQCKICASHIGWKFTATKKDMSPQKFWGLTRSALLPTIPDTEDEISPDKVILCL

> <PDB ID(s) of Target Chain>
8TNR,8TNQ,8TNP,8D81,8D80,8D7Z,8D7Y,8D7X,8D7W,8D7V,8D7U,8CVP,9DQD,8UH6,6BOY,6BNB,6BN9,6BN8,6BN7,6XK9,6UML,5V3O,5HXB,7U8F,8OJH,8OIZ,7LPS,4TZ4,9DJX,9DJT,8U17,8U16,8U15,8TZX,8DEY,9CUO,4M91

> <UniProt (SwissProt) Recommended Name of Target Chain>
Protein cereblon

> <UniProt (SwissProt) Entry Name of Target Chain>
CRBN_HUMAN

> <UniProt (SwissProt) Primary ID of Target Chain>
Q96SW2

> <UniProt (SwissProt) Secondary ID(s) of Target Chain>
B2R6H4 C9IZA9 C9JAH6 Q6AI62 Q6NVZ0 Q9UHW4

> <UniProt (SwissProt) Alternative ID(s) of Target Chain>


> <UniProt (TrEMBL) Submitted Name of Target Chain>


> <UniProt (TrEMBL) Entry Name of Target Chain>


> <UniProt (TrEMBL) Primary ID of Target Chain>


> <UniProt (TrEMBL) Secondary ID(s) of Target Chain>


> <UniProt (TrEMBL) Alternative ID(s) of Target Chain>


$$$$
 
     RDKit          2D

 57 64  0  0  0  0  0  0  0  0999 V2000
    6.0084    1.2296    0.0000 C   0  0  0  0  0  0  0  0  0  0  0  0
    6.0298    0.4049    0.0000 C   0  0  0  0  0  0  0  0  0  0  0  0
    5.3262   -0.0259    0.0000 C   0  0  0  0  0  0  0  0  0  0  0  0
    5.5185   -0.8281    0.0000 C   0  0  0  0  0  0  0  0  0  0  0  0
    6.3410   -0.8931    0.0000 N   0  0  0  0  0  0  0  0  0  0  0  0
    6.6570   -0.1310    0.0000 C   0  0  0  0  0  0  0  0  0  0  0  0
    7.4593    0.0613    0.0000 O   0  0  0  0  0  0  0  0  0  0  0  0
    6.7719   -1.5966    0.0000 C   0  0  0  0  0  0  0  0  0  0  0  0
    7.5967   -1.5753    0.0000 C   0  0  0  0  0  0  0  0  0  0  0  0
    8.0275   -2.2789    0.0000 C   0  0  0  0  0  0  0  0  0  0  0  0
    7.6336   -3.0038    0.0000 C   0  0  0  0  0  0  0  0  0  0  0  0
    8.0645   -3.7074    0.0000 O   0  0  0  0  0  0  0  0  0  0  0  0
    6.8090   -3.0251    0.0000 N   0  0  0  0  0  0  0  0  0  0  0  0
    6.3781   -2.3216    0.0000 C   0  0  0  0  0  0  0  0  0  0  0  0
    5.5533   -2.3429    0.0000 O   0  0  0  0  0  0  0  0  0  0  0  0
    4.6013    0.3679    0.0000 C   0  0  0  0  0  0  0  0  0  0  0  0
    4.5800    1.1926    0.0000 C   0  0  0  0  0  0  0  0  0  0  0  0
    3.8551    1.5865    0.0000 C   0  0  0  0  0  0  0  0  0  0  0  0
    3.1515    1.1556    0.0000 C   0  0  0  0  0  0  0  0  0  0  0  0
    2.4266    1.5495    0.0000 C   0  0  0  0  0  0  0  0  0  0  0  0
    2.4051    2.3742    0.0000 N   0  0  0  0  0  0  0  0  0  0  0  0
    1.6803    2.7681    0.0000 C   0  0  0  0  0  0  0  0  0  0  0  0
    0.9767    2.3372    0.0000 C   0  0  0  0  0  0  0  0  0  0  0  0
    0.2518    2.7311    0.0000 C   0  0  0  0  0  0  0  0  0  0  0  0
   -0.4516    2.3001    0.0000 C   0  0  0  0  0  0  0  0  0  0  0  0
   -1.1766    2.6940    0.0000 C   0  0  0  0  0  0  0  0  0  0  0  0
   -1.8801    2.2632    0.0000 C   0  0  0  0  0  0  0  0  0  0  0  0
   -2.6050    2.6570    0.0000 N   0  0  0  0  0  0  0  0  0  0  0  0
   -3.3086    2.2262    0.0000 C   0  0  0  0  0  0  0  0  0  0  0  0
   -4.0335    2.6199    0.0000 C   0  0  0  0  0  0  0  0  0  0  0  0
   -4.7371    2.1892    0.0000 C   0  0  0  0  0  0  0  0  0  0  0  0
   -4.6541    1.3684    0.0000 N   0  0  0  0  0  0  0  0  0  0  0  0
   -5.2442    0.7917    0.0000 C   0  0  0  0  0  0  0  0  0  0  0  0
   -4.9806    0.0099    0.0000 C   0  0  0  0  0  0  0  0  0  0  0  0
   -5.5260   -0.6091    0.0000 C   0  0  0  0  0  0  0  0  0  0  0  0
   -5.2624   -1.3909    0.0000 C   0  0  0  0  0  0  0  0  0  0  0  0
   -4.4536   -1.5535    0.0000 C   0  0  0  0  0  0  0  0  0  0  0  0
   -4.1901   -2.3354    0.0000 Cl  0  0  0  0  0  0  0  0  0  0  0  0
   -3.9083   -0.9344    0.0000 C   0  0  0  0  0  0  0  0  0  0  0  0
   -4.1718   -0.1527    0.0000 C   0  0  0  0  0  0  0  0  0  0  0  0
   -6.0629    0.8935    0.0000 C   0  0  0  0  0  0  0  0  0  0  0  0
   -6.5989    0.2663    0.0000 C   0  0  0  0  0  0  0  0  0  0  0  0
   -6.4064   -0.5358    0.0000 C   0  0  0  0  0  0  0  0  0  0  0  0
   -7.3609    0.5823    0.0000 C   0  0  0  0  0  0  0  0  0  0  0  0
   -8.0645    0.1514    0.0000 C   0  0  0  0  0  0  0  0  0  0  0  0
   -7.2960    1.4046    0.0000 S   0  0  0  0  0  0  0  0  0  0  0  0
   -6.4936    1.5970    0.0000 C   0  0  0  0  0  0  0  0  0  0  0  0
   -6.2123    2.3726    0.0000 N   0  0  0  0  0  0  0  0  0  0  0  0
   -6.7045    3.0347    0.0000 C   0  0  0  0  0  0  0  0  0  0  0  0
   -7.5294    3.0256    0.0000 C   0  0  0  0  0  0  0  0  0  0  0  0
   -6.2269    3.7074    0.0000 N   0  0  0  0  0  0  0  0  0  0  0  0
   -5.4395    3.4611    0.0000 N   0  0  0  0  0  0  0  0  0  0  0  0
   -5.4305    2.6361    0.0000 C   0  0  0  0  0  0  0  0  0  0  0  0
   -3.2872    1.4015    0.0000 O   0  0  0  0  0  0  0  0  0  0  0  0
    3.1088    2.8050    0.0000 C   0  0  0  0  0  0  0  0  0  0  0  0
    3.8337    2.4110    0.0000 C   0  0  0  0  0  0  0  0  0  0  0  0
    5.2835    1.6234    0.0000 C   0  0  0  0  0  0  0  0  0  0  0  0
  2  1  2  0
  3  2  1  0
  3  4  1  0
  5  4  1  0
  2  6  1  0
  6  5  1  0
  6  7  2  0
  5  8  1  0
  9  8  1  0
 10  9  1  0
 11 10  1  0
 11 12  2  0
 13 11  1  0
 14 13  1  0
  8 14  1  0
 14 15  2  0
 16  3  2  0
 17 16  1  0
 18 17  1  0
 18 19  1  0
 20 19  1  0
 20 21  1  0
 22 21  1  0
 23 22  1  0
 24 23  1  0
 25 24  1  0
 26 25  1  0
 27 26  1  0
 28 27  1  0
 29 28  1  0
 29 30  1  0
 31 30  1  6
 31 32  1  0
 32 33  2  0
 33 34  1  0
 34 35  1  0
 35 36  2  0
 36 37  1  0
 37 38  1  0
 37 39  2  0
 39 40  1  0
 40 34  2  0
 33 41  1  0
 41 42  1  0
 42 43  1  0
 42 44  2  0
 44 45  1  0
 44 46  1  0
 47 46  1  0
 41 47  2  0
 48 47  1  0
 48 49  1  0
 49 50  1  0
 49 51  2  0
 51 52  1  0
 53 52  2  0
 53 48  1  0
 53 31  1  0
 29 54  2  0
 55 21  1  0
 56 55  1  0
 18 56  1  0
 57 17  2  0
  1 57  1  0
M  END
> <From>
www.bindingDB.org

> <BindingDB Reactant_set_id>
51570538

> <Ligand InChI>
InChI=1S/C43H49ClN8O4S/c1-25-26(2)57-43-38(25)39(29-8-11-32(44)12-9-29)46-34(40-49-48-27(3)52(40)43)23-37(54)45-18-6-4-5-7-19-50-20-16-28(17-21-50)30-10-13-33-31(22-30)24-51(42(33)56)35-14-15-36(53)47-41(35)55/h8-13,22,28,34-35H,4-7,14-21,23-24H2,1-3H3,(H,45,54)(H,47,53,55)/t34-,35?/m0/s1

> <Ligand InChI Key>
OKISKGIPUPRZPL-SFCXHYMASA-N

> <BindingDB MonomerID>
50631627

> <BindingDB Ligand Name>
CHEMBL5422157

> <Target Name>
Protein cereblon

> <Target Source Organism According to Curator or DataSource>
Homo sapiens

> <Ki (nM)>


> <IC50 (nM)>
 8.9

> <Kd (nM)>


> <EC50 (nM)>


> <kon (M-1-s-1)>


> <koff (s-1)>


> <pH>


> <Temp C>


> <Curation/DataSource>
ChEMBL

> <Article DOI>
10.1021/acs.jmedchem.3c01613

> <BindingDB Entry DOI>
10.7270/Q2T1583Z

> <PMID>
38096359

> <PubChem AID>


> <Patent Number>


> <Authors>
Arndt, CM; Bitai, J; Brunner, J; Opatz, T; Martinelli, P; Gollner, A; Sokol, KR; Krumb, M

> <Date of publication>
12/28/2023

> <Date in BindingDB>
12/21/2024

> <Institution>
Boehringer Ingelheim Rcv

> <Link to Ligand in BindingDB>
http://www.bindingdb.org/bind/chemsearch/marvin/MolStructure.jsp?monomerid=50631627

> <Link to Ligand-Target Pair in BindingDB>
http://www.bindingdb.org/jsp/dbsearch/PrimarySearch_ki.jsp?energyterm=kJ/mole&tag=pol&polymerid=50007050&target=Protein+cereblon&column=ki&startPg=0&Increment=50&submit=Search

> <Link to Ligand-Target Pair in BindingDB>
http://www.bindingdb.org/jsp/dbsearch/PrimarySearch_ki.jsp?energyterm=kJ/mole&tag=r21&monomerid=50631627&enzyme=Protein+cereblon&column=ki&startPg=0&Increment=50&submit=Search

> <Ligand HET ID in PDB>


> <PDB ID(s) for Ligand-Target Complex>


> <PubChem CID of Ligand>
172460102

> <PubChem SID of Ligand>
505035961

> <ChEBI ID of Ligand>


> <ChEMBL ID of Ligand>


> <DrugBank ID of Ligand>


> <IUPHAR_GRAC ID of Ligand>


> <KEGG ID of Ligand>


> <ZINC ID of Ligand>


> <Number of Protein Chains in Target (bigger than 1 implies a multichain complex)>
1

> <BindingDB Target Chain Sequence>
MAGEGDQQDAAHNMGNHLPLLPAESEEEDEMEVEDQDSKEAKKPNIINFDTSLPTSHTYLGADMEEFHGRTLHDDDSCQVIPVLPQVMMILIPGQTLPLQLFHPQEVSMVRNLIQKDRTFAVLAYSNVQEREAQFGTTAEIYAYREEQDFGIEIVKVKAIGRQRFKVLELRTQSDGIQQAKVQILPECVLPSTMSAVQLESLNKCQIFPSKPVSREDQCSYKWWQKYQKRKFHCANLTSWPRWLYSLYDAETLMDRIKKQLREWDENLKDDSLPSNPIDFSYRVAACLPIDDVLRIQLLKIGSAIQRLRCELDIMNKCTSLCCKQCQETEITTKNEIFSLSLCGPMAAYVNPHGYVHETLTVYKACNLNLIGRPSTEHSWFPGYAWTVAQCKICASHIGWKFTATKKDMSPQKFWGLTRSALLPTIPDTEDEISPDKVILCL

> <PDB ID(s) of Target Chain>
8TNR,8TNQ,8TNP,8D81,8D80,8D7Z,8D7Y,8D7X,8D7W,8D7V,8D7U,8CVP,9DQD,8UH6,6BOY,6BNB,6BN9,6BN8,6BN7,6XK9,6UML,5V3O,5HXB,7U8F,8OJH,8OIZ,7LPS,4TZ4,9DJX,9DJT,8U17,8U16,8U15,8TZX,8DEY,9CUO,4M91

> <UniProt (SwissProt) Recommended Name of Target Chain>
Protein cereblon

> <UniProt (SwissProt) Entry Name of Target Chain>
CRBN_HUMAN

> <UniProt (SwissProt) Primary ID of Target Chain>
Q96SW2

> <UniProt (SwissProt) Secondary ID(s) of Target Chain>
B2R6H4 C9IZA9 C9JAH6 Q6AI62 Q6NVZ0 Q9UHW4

> <UniProt (SwissProt) Alternative ID(s) of Target Chain>


> <UniProt (TrEMBL) Submitted Name of Target Chain>


> <UniProt (TrEMBL) Entry Name of Target Chain>


> <UniProt (TrEMBL) Primary ID of Target Chain>


> <UniProt (TrEMBL) Secondary ID(s) of Target Chain>


> <UniProt (TrEMBL) Alternative ID(s) of Target Chain>


$$$$
 
     RDKit          2D

 63 71  0  0  0  0  0  0  0  0999 V2000
   16.4429  -20.4091    0.0000 C   0  0  0  0  0  0  0  0  0  0  0  0
   16.6534  -21.1974    0.0000 C   0  0  0  0  0  0  0  0  0  0  0  0
   17.4369  -21.4081    0.0000 C   0  0  0  0  0  0  0  0  0  0  0  0
   18.0156  -20.8337    0.0000 C   0  0  0  0  0  0  0  0  0  0  0  0
   17.8051  -20.0454    0.0000 C   0  0  0  0  0  0  0  0  0  0  0  0
   17.0160  -19.8315    0.0000 C   0  0  0  0  0  0  0  0  0  0  0  0
   15.6548  -20.6267    0.0000 C   0  0  0  0  0  0  0  0  0  0  0  0
   16.4826  -19.5961    0.0000 N   0  0  0  0  0  0  0  0  0  0  0  0
   15.7187  -19.3063    0.0000 C   0  0  0  0  0  0  0  0  0  0  0  0
   15.2072  -19.9433    0.0000 C   0  0  0  0  0  0  0  0  0  0  0  0
   13.4616  -20.8879    0.0000 C   0  0  0  0  0  0  0  0  0  0  0  0
   13.4605  -21.7074    0.0000 C   0  0  0  0  0  0  0  0  0  0  0  0
   14.1685  -22.1164    0.0000 C   0  0  0  0  0  0  0  0  0  0  0  0
   14.1667  -20.4790    0.0000 C   0  0  0  0  0  0  0  0  0  0  0  0
   14.8753  -20.8843    0.0000 C   0  0  0  0  0  0  0  0  0  0  0  0
   14.8801  -21.7029    0.0000 C   0  0  0  0  0  0  0  0  0  0  0  0
   15.6602  -21.9513    0.0000 N   0  0  0  0  0  0  0  0  0  0  0  0
   16.1375  -21.2862    0.0000 C   0  0  0  0  0  0  0  0  0  0  0  0
   12.7524  -22.1154    0.0000 Cl  0  0  0  0  0  0  0  0  0  0  0  0
   16.8432  -21.6927    0.0000 O   0  0  0  0  0  0  0  0  0  0  0  0
   15.5040  -18.5178    0.0000 C   0  0  0  0  0  0  0  0  0  0  0  0
   16.0795  -17.9376    0.0000 N   0  0  0  0  0  0  0  0  0  0  0  0
   14.7138  -18.3095    0.0000 O   0  0  0  0  0  0  0  0  0  0  0  0
   14.4123  -19.7282    0.0000 C   0  0  0  0  0  0  0  0  0  0  0  0
   14.2036  -18.9304    0.0000 C   0  0  0  0  0  0  0  0  0  0  0  0
   13.4095  -18.7151    0.0000 C   0  0  0  0  0  0  0  0  0  0  0  0
   12.8248  -19.2962    0.0000 C   0  0  0  0  0  0  0  0  0  0  0  0
   13.0396  -20.0956    0.0000 C   0  0  0  0  0  0  0  0  0  0  0  0
   13.8332  -20.3072    0.0000 C   0  0  0  0  0  0  0  0  0  0  0  0
   14.1977  -18.1103    0.0000 F   0  0  0  0  0  0  0  0  0  0  0  0
   13.2004  -17.9252    0.0000 Cl  0  0  0  0  0  0  0  0  0  0  0  0
   15.8648  -17.1491    0.0000 C   0  0  0  0  0  0  0  0  0  0  0  0
   16.4424  -16.5703    0.0000 C   0  0  0  0  0  0  0  0  0  0  0  0
   16.2282  -15.7825    0.0000 C   0  0  0  0  0  0  0  0  0  0  0  0
   15.4373  -15.5735    0.0000 C   0  0  0  0  0  0  0  0  0  0  0  0
   14.8607  -16.1585    0.0000 C   0  0  0  0  0  0  0  0  0  0  0  0
   15.0779  -16.9442    0.0000 C   0  0  0  0  0  0  0  0  0  0  0  0
   15.2216  -14.7853    0.0000 C   0  0  0  0  0  0  0  0  0  0  0  0
   15.7963  -14.2044    0.0000 N   0  0  0  0  0  0  0  0  0  0  0  0
   14.4311  -14.5781    0.0000 O   0  0  0  0  0  0  0  0  0  0  0  0
   16.5868  -14.4116    0.0000 C   0  0  0  0  0  0  0  0  0  0  0  0
   17.1615  -13.8307    0.0000 C   0  0  0  0  0  0  0  0  0  0  0  0
   17.9520  -14.0379    0.0000 C   0  0  0  0  0  0  0  0  0  0  0  0
   18.5267  -13.4570    0.0000 C   0  0  0  0  0  0  0  0  0  0  0  0
   19.3172  -13.6643    0.0000 C   0  0  0  0  0  0  0  0  0  0  0  0
   19.8919  -13.0833    0.0000 C   0  0  0  0  0  0  0  0  0  0  0  0
   21.0419  -11.9229    0.0000 C   0  0  0  0  0  0  0  0  0  0  0  0
   20.2467  -11.7171    0.0000 C   0  0  0  0  0  0  0  0  0  0  0  0
   19.6757  -12.2988    0.0000 C   0  0  0  0  0  0  0  0  0  0  0  0
   21.2575  -12.7120    0.0000 C   0  0  0  0  0  0  0  0  0  0  0  0
   20.6862  -13.2929    0.0000 C   0  0  0  0  0  0  0  0  0  0  0  0
   21.0620  -14.0158    0.0000 C   0  0  0  0  0  0  0  0  0  0  0  0
   21.8657  -13.8817    0.0000 N   0  0  0  0  0  0  0  0  0  0  0  0
   21.9864  -13.0760    0.0000 C   0  0  0  0  0  0  0  0  0  0  0  0
   22.7114  -12.6989    0.0000 O   0  0  0  0  0  0  0  0  0  0  0  0
   22.4484  -14.4547    0.0000 C   0  0  0  0  0  0  0  0  0  0  0  0
   22.2412  -15.2449    0.0000 C   0  0  0  0  0  0  0  0  0  0  0  0
   22.8200  -15.8168    0.0000 C   0  0  0  0  0  0  0  0  0  0  0  0
   23.6090  -15.6027    0.0000 C   0  0  0  0  0  0  0  0  0  0  0  0
   23.8160  -14.8112    0.0000 N   0  0  0  0  0  0  0  0  0  0  0  0
   23.2341  -14.2338    0.0000 C   0  0  0  0  0  0  0  0  0  0  0  0
   23.4392  -13.4427    0.0000 O   0  0  0  0  0  0  0  0  0  0  0  0
   24.1894  -16.1779    0.0000 O   0  0  0  0  0  0  0  0  0  0  0  0
  1  2  1  0
  1  6  1  0
  2  3  1  0
  3  4  1  0
  4  5  1  0
  5  6  1  0
  7  1  1  0
  1  8  1  0
  8  9  1  0
  9 10  1  0
 10  7  1  0
 11 12  2  0
 12 13  1  0
 13 16  2  0
 15 14  2  0
 14 11  1  0
 15 16  1  0
 16 17  1  0
 17 18  1  0
  7 18  1  1
  7 15  1  0
 12 19  1  0
 18 20  2  0
  9 21  1  6
 21 22  1  0
 21 23  2  0
 10 24  1  1
 24 25  2  0
 25 26  1  0
 26 27  2  0
 27 28  1  0
 28 29  2  0
 29 24  1  0
 25 30  1  0
 26 31  1  0
 22 32  1  0
 32 33  2  0
 33 34  1  0
 34 35  2  0
 35 36  1  0
 36 37  2  0
 37 32  1  0
 35 38  1  0
 38 39  1  0
 38 40  2  0
 39 41  1  0
 41 42  1  0
 42 43  1  0
 43 44  1  0
 44 45  1  0
 45 46  1  0
 46 51  2  0
 50 47  2  0
 47 48  1  0
 48 49  2  0
 49 46  1  0
 50 51  1  0
 51 52  1  0
 52 53  1  0
 53 54  1  0
 54 50  1  0
 54 55  2  0
 53 56  1  0
 56 57  1  0
 56 61  1  0
 57 58  1  0
 58 59  1  0
 59 60  1  0
 60 61  1  0
 61 62  2  0
 59 63  2  0
M  END
> <From>
www.bindingDB.org

> <BindingDB Reactant_set_id>
51235020

> <Ligand InChI>
InChI=1S/C48H47Cl2FN6O6/c49-29-16-19-34-36(25-29)54-46(63)48(34)39(32-12-8-13-35(50)40(32)51)41(56-47(48)22-4-2-5-23-47)44(61)53-30-17-14-28(15-18-30)42(59)52-24-6-1-3-9-27-10-7-11-31-33(27)26-57(45(31)62)37-20-21-38(58)55-43(37)60/h7-8,10-19,25,37,39,41,56H,1-6,9,20-24,26H2,(H,52,59)(H,53,61)(H,54,63)(H,55,58,60)/t37?,39-,41+,48+/m0/s1

> <Ligand InChI Key>
RRSNDVCODIMOFX-MPKOGUQCSA-N

> <BindingDB MonomerID>
50505629

> <BindingDB Ligand Name>
CHEMBL4436772

> <Target Name>
Protein cereblon

> <Target Source Organism According to Curator or DataSource>
Human

> <Ki (nM)>


> <IC50 (nM)>
>10.0

> <Kd (nM)>


> <EC50 (nM)>


> <kon (M-1-s-1)>


> <koff (s-1)>


> <pH>


> <Temp C>


> <Curation/DataSource>
ChEMBL

> <Article DOI>
10.1021/acs.jmedchem.9b00846

> <BindingDB Entry DOI>
10.7270/Q20C5026

> <PMID>
31560543

> <PubChem AID>


> <Patent Number>


> <Authors>
Yang, J; Li, Y; Aguilar, A; Liu, Z; Yang, CY; Wang, S

> <Date of publication>
11/14/2019

> <Date in BindingDB>
2/18/2021

> <Institution>
TBA

> <Link to Ligand in BindingDB>
http://www.bindingdb.org/bind/chemsearch/marvin/MolStructure.jsp?monomerid=50505629

> <Link to Ligand-Target Pair in BindingDB>
http://www.bindingdb.org/jsp/dbsearch/PrimarySearch_ki.jsp?energyterm=kJ/mole&tag=pol&polymerid=50007050&target=Protein+cereblon&column=ki&startPg=0&Increment=50&submit=Search

> <Link to Ligand-Target Pair in BindingDB>
http://www.bindingdb.org/jsp/dbsearch/PrimarySearch_ki.jsp?energyterm=kJ/mole&tag=r21&monomerid=50505629&enzyme=Protein+cereblon&column=ki&startPg=0&Increment=50&submit=Search

> <Ligand HET ID in PDB>


> <PDB ID(s) for Ligand-Target Complex>


> <PubChem CID of Ligand>
131988640

> <PubChem SID of Ligand>
440714214

> <ChEBI ID of Ligand>


> <ChEMBL ID of Ligand>


> <DrugBank ID of Ligand>


> <IUPHAR_GRAC ID of Ligand>


> <KEGG ID of Ligand>


> <ZINC ID of Ligand>


> <Number of Protein Chains in Target (bigger than 1 implies a multichain complex)>
1

> <BindingDB Target Chain Sequence>
MAGEGDQQDAAHNMGNHLPLLPAESEEEDEMEVEDQDSKEAKKPNIINFDTSLPTSHTYLGADMEEFHGRTLHDDDSCQVIPVLPQVMMILIPGQTLPLQLFHPQEVSMVRNLIQKDRTFAVLAYSNVQEREAQFGTTAEIYAYREEQDFGIEIVKVKAIGRQRFKVLELRTQSDGIQQAKVQILPECVLPSTMSAVQLESLNKCQIFPSKPVSREDQCSYKWWQKYQKRKFHCANLTSWPRWLYSLYDAETLMDRIKKQLREWDENLKDDSLPSNPIDFSYRVAACLPIDDVLRIQLLKIGSAIQRLRCELDIMNKCTSLCCKQCQETEITTKNEIFSLSLCGPMAAYVNPHGYVHETLTVYKACNLNLIGRPSTEHSWFPGYAWTVAQCKICASHIGWKFTATKKDMSPQKFWGLTRSALLPTIPDTEDEISPDKVILCL

> <PDB ID(s) of Target Chain>
4TZ4,5HXB,5V3O,6UML,6XK9,7LPS,7U8F,8CVP,8D7U,8D7V,8D7W,8D7X,8D7Y,8D7Z,8D80,8D81,8DEY,8OIZ,8OJH

> <UniProt (SwissProt) Recommended Name of Target Chain>
Protein cereblon

> <UniProt (SwissProt) Entry Name of Target Chain>
CRBN_HUMAN

> <UniProt (SwissProt) Primary ID of Target Chain>
Q96SW2

> <UniProt (SwissProt) Secondary ID(s) of Target Chain>
B2R6H4 C9IZA9 C9JAH6 Q6AI62 Q6NVZ0 Q9UHW4

> <UniProt (SwissProt) Alternative ID(s) of Target Chain>


> <UniProt (TrEMBL) Submitted Name of Target Chain>


> <UniProt (TrEMBL) Entry Name of Target Chain>


> <UniProt (TrEMBL) Primary ID of Target Chain>


> <UniProt (TrEMBL) Secondary ID(s) of Target Chain>


> <UniProt (TrEMBL) Alternative ID(s) of Target Chain>


$$$$
00144001.cdx
  Mrv0541 11201412292D          

 32 36  0  0  0  0            999 V2000
   -2.0457   -1.0939    0.0000 C   0  0  0  0  0  0  0  0  0  0  0  0
   -2.0457   -1.9189    0.0000 C   0  0  0  0  0  0  0  0  0  0  0  0
   -1.3312   -2.3314    0.0000 C   0  0  0  0  0  0  0  0  0  0  0  0
   -0.6168   -1.9189    0.0000 C   0  0  0  0  0  0  0  0  0  0  0  0
   -0.6168   -1.0939    0.0000 C   0  0  0  0  0  0  0  0  0  0  0  0
   -1.3312   -0.6814    0.0000 C   0  0  0  0  0  0  0  0  0  0  0  0
    0.1679   -2.1738    0.0000 N   0  0  0  0  0  0  0  0  0  0  0  0
    0.6528   -1.5064    0.0000 C   0  0  0  0  0  0  0  0  0  0  0  0
   -2.7602   -2.3314    0.0000 Cl  0  0  0  0  0  0  0  0  0  0  0  0
    1.4778   -1.5064    0.0000 O   0  0  0  0  0  0  0  0  0  0  0  0
    0.9525    0.2410    0.0000 N   0  0  0  0  0  0  0  0  0  0  0  0
    0.1679    0.4960    0.0000 C   0  0  2  0  0  0  0  0  0  0  0  0
    0.1679   -0.8389    0.0000 C   0  0  2  0  0  0  0  0  0  0  0  0
   -0.9004    0.4119    0.0000 C   0  0  0  0  0  0  0  0  0  0  0  0
   -0.6869    1.2088    0.0000 C   0  0  0  0  0  0  0  0  0  0  0  0
   -1.2703    1.7921    0.0000 C   0  0  0  0  0  0  0  0  0  0  0  0
   -2.0671    1.5786    0.0000 C   0  0  0  0  0  0  0  0  0  0  0  0
   -2.2807    0.7817    0.0000 C   0  0  0  0  0  0  0  0  0  0  0  0
   -1.6973    0.1984    0.0000 C   0  0  0  0  0  0  0  0  0  0  0  0
   -3.0776    0.5682    0.0000 Cl  0  0  0  0  0  0  0  0  0  0  0  0
   -1.9108   -0.5985    0.0000 F   0  0  0  0  0  0  0  0  0  0  0  0
   -0.3171   -0.1715    0.0000 C   0  0  1  0  0  0  0  0  0  0  0  0
    1.5358   -0.0006    0.0000 C   0  0  0  0  0  0  0  0  0  0  0  0
    0.9525   -0.5840    0.0000 C   0  0  0  0  0  0  0  0  0  0  0  0
    1.7774   -0.5840    0.0000 C   0  0  0  0  0  0  0  0  0  0  0  0
    2.4941   -0.9926    0.0000 C   0  0  0  0  0  0  0  0  0  0  0  0
    3.0776   -0.4093    0.0000 C   0  0  0  0  0  0  0  0  0  0  0  0
    2.2526   -0.4093    0.0000 C   0  0  0  0  0  0  0  0  0  0  0  0
    0.1679    1.3210    0.0000 C   0  0  0  0  0  0  0  0  0  0  0  0
   -0.5466    1.7335    0.0000 O   0  0  0  0  0  0  0  0  0  0  0  0
    0.9648    1.5345    0.0000 N   0  0  0  0  0  0  0  0  0  0  0  0
    1.1783    2.3314    0.0000 C   0  0  0  0  0  0  0  0  0  0  0  0
  1  2  2  0  0  0  0
  2  3  1  0  0  0  0
  3  4  2  0  0  0  0
  4  5  1  0  0  0  0
  5  6  2  0  0  0  0
  6  1  1  0  0  0  0
  4  7  1  0  0  0  0
  7  8  1  0  0  0  0
 13  8  1  1  0  0  0
 13  5  1  0  0  0  0
  2  9  1  0  0  0  0
  8 10  2  0  0  0  0
 24 11  1  0  0  0  0
 12 11  1  0  0  0  0
 22 12  1  0  0  0  0
 13 22  1  0  0  0  0
 13 24  1  0  0  0  0
 14 15  2  0  0  0  0
 15 16  1  0  0  0  0
 16 17  2  0  0  0  0
 17 18  1  0  0  0  0
 18 19  2  0  0  0  0
 19 14  1  0  0  0  0
 18 20  1  0  0  0  0
 19 21  1  0  0  0  0
 22 14  1  1  0  0  0
 23 24  1  0  0  0  0
 24 25  1  0  0  0  0
 25 26  1  0  0  0  0
 26 27  1  0  0  0  0
 27 28  1  0  0  0  0
 28 23  1  0  0  0  0
 12 29  1  6  0  0  0
 29 30  2  0  0  0  0
 29 31  1  0  0  0  0
 31 32  1  0  0  0  0
M  END
> <From>
www.bindingDB.org

> <BindingDB Reactant_set_id>
51235021

> <Ligand InChI>
InChI=1S/C24H24Cl2FN3O2/c1-28-21(31)20-18(14-6-5-7-16(26)19(14)27)24(23(30-20)10-3-2-4-11-23)15-9-8-13(25)12-17(15)29-22(24)32/h5-9,12,18,20,30H,2-4,10-11H2,1H3,(H,28,31)(H,29,32)/t18-,20+,24+/m0/s1

> <Ligand InChI Key>
LHBZDASUSDFFIL-MFSJNOQSSA-N

> <BindingDB MonomerID>
112754

> <BindingDB Ligand Name>
US8629141, 21

> <Target Name>
Protein cereblon

> <Target Source Organism According to Curator or DataSource>
Human

> <Ki (nM)>


> <IC50 (nM)>
>10.0

> <Kd (nM)>


> <EC50 (nM)>


> <kon (M-1-s-1)>


> <koff (s-1)>


> <pH>


> <Temp C>


> <Curation/DataSource>
ChEMBL

> <Article DOI>
10.1021/acs.jmedchem.9b00846

> <BindingDB Entry DOI>
10.7270/Q20C5026

> <PMID>
31560543

> <PubChem AID>


> <Patent Number>


> <Authors>
Yang, J; Li, Y; Aguilar, A; Liu, Z; Yang, CY; Wang, S

> <Date of publication>
11/14/2019

> <Date in BindingDB>
2/18/2021

> <Institution>
TBA

> <Link to Ligand in BindingDB>
http://www.bindingdb.org/bind/chemsearch/marvin/MolStructure.jsp?monomerid=112754

> <Link to Ligand-Target Pair in BindingDB>
http://www.bindingdb.org/jsp/dbsearch/PrimarySearch_ki.jsp?energyterm=kJ/mole&tag=pol&polymerid=50007050&target=Protein+cereblon&column=ki&startPg=0&Increment=50&submit=Search

> <Link to Ligand-Target Pair in BindingDB>
http://www.bindingdb.org/jsp/dbsearch/PrimarySearch_ki.jsp?energyterm=kJ/mole&tag=r21&monomerid=112754&enzyme=Protein+cereblon&column=ki&startPg=0&Increment=50&submit=Search

> <Ligand HET ID in PDB>


> <PDB ID(s) for Ligand-Target Complex>


> <PubChem CID of Ligand>
71020635

> <PubChem SID of Ligand>
194690495

> <ChEBI ID of Ligand>


> <ChEMBL ID of Ligand>


> <DrugBank ID of Ligand>


> <IUPHAR_GRAC ID of Ligand>


> <KEGG ID of Ligand>


> <ZINC ID of Ligand>


> <Number of Protein Chains in Target (bigger than 1 implies a multichain complex)>
1

> <BindingDB Target Chain Sequence>
MAGEGDQQDAAHNMGNHLPLLPAESEEEDEMEVEDQDSKEAKKPNIINFDTSLPTSHTYLGADMEEFHGRTLHDDDSCQVIPVLPQVMMILIPGQTLPLQLFHPQEVSMVRNLIQKDRTFAVLAYSNVQEREAQFGTTAEIYAYREEQDFGIEIVKVKAIGRQRFKVLELRTQSDGIQQAKVQILPECVLPSTMSAVQLESLNKCQIFPSKPVSREDQCSYKWWQKYQKRKFHCANLTSWPRWLYSLYDAETLMDRIKKQLREWDENLKDDSLPSNPIDFSYRVAACLPIDDVLRIQLLKIGSAIQRLRCELDIMNKCTSLCCKQCQETEITTKNEIFSLSLCGPMAAYVNPHGYVHETLTVYKACNLNLIGRPSTEHSWFPGYAWTVAQCKICASHIGWKFTATKKDMSPQKFWGLTRSALLPTIPDTEDEISPDKVILCL

> <PDB ID(s) of Target Chain>
4TZ4,5HXB,5V3O,6UML,6XK9,7LPS,7U8F,8CVP,8D7U,8D7V,8D7W,8D7X,8D7Y,8D7Z,8D80,8D81,8DEY,8OIZ,8OJH

> <UniProt (SwissProt) Recommended Name of Target Chain>
Protein cereblon

> <UniProt (SwissProt) Entry Name of Target Chain>
CRBN_HUMAN

> <UniProt (SwissProt) Primary ID of Target Chain>
Q96SW2

> <UniProt (SwissProt) Secondary ID(s) of Target Chain>
B2R6H4 C9IZA9 C9JAH6 Q6AI62 Q6NVZ0 Q9UHW4

> <UniProt (SwissProt) Alternative ID(s) of Target Chain>


> <UniProt (TrEMBL) Submitted Name of Target Chain>


> <UniProt (TrEMBL) Entry Name of Target Chain>


> <UniProt (TrEMBL) Primary ID of Target Chain>


> <UniProt (TrEMBL) Secondary ID(s) of Target Chain>


> <UniProt (TrEMBL) Alternative ID(s) of Target Chain>


$$$$
 
     RDKit          2D

 63 71  0  0  0  0  0  0  0  0999 V2000
   16.4429  -20.4091    0.0000 C   0  0  0  0  0  0  0  0  0  0  0  0
   16.6534  -21.1974    0.0000 C   0  0  0  0  0  0  0  0  0  0  0  0
   17.4369  -21.4081    0.0000 C   0  0  0  0  0  0  0  0  0  0  0  0
   18.0156  -20.8337    0.0000 C   0  0  0  0  0  0  0  0  0  0  0  0
   17.8051  -20.0454    0.0000 C   0  0  0  0  0  0  0  0  0  0  0  0
   17.0160  -19.8315    0.0000 C   0  0  0  0  0  0  0  0  0  0  0  0
   15.6548  -20.6267    0.0000 C   0  0  0  0  0  0  0  0  0  0  0  0
   16.4826  -19.5961    0.0000 N   0  0  0  0  0  0  0  0  0  0  0  0
   15.7187  -19.3063    0.0000 C   0  0  0  0  0  0  0  0  0  0  0  0
   15.2072  -19.9433    0.0000 C   0  0  0  0  0  0  0  0  0  0  0  0
   13.4616  -20.8879    0.0000 C   0  0  0  0  0  0  0  0  0  0  0  0
   13.4605  -21.7074    0.0000 C   0  0  0  0  0  0  0  0  0  0  0  0
   14.1685  -22.1164    0.0000 C   0  0  0  0  0  0  0  0  0  0  0  0
   14.1667  -20.4790    0.0000 C   0  0  0  0  0  0  0  0  0  0  0  0
   14.8753  -20.8843    0.0000 C   0  0  0  0  0  0  0  0  0  0  0  0
   14.8801  -21.7029    0.0000 C   0  0  0  0  0  0  0  0  0  0  0  0
   15.6602  -21.9513    0.0000 N   0  0  0  0  0  0  0  0  0  0  0  0
   16.1375  -21.2862    0.0000 C   0  0  0  0  0  0  0  0  0  0  0  0
   12.7524  -22.1154    0.0000 Cl  0  0  0  0  0  0  0  0  0  0  0  0
   16.8432  -21.6927    0.0000 O   0  0  0  0  0  0  0  0  0  0  0  0
   15.5040  -18.5178    0.0000 C   0  0  0  0  0  0  0  0  0  0  0  0
   16.0795  -17.9376    0.0000 N   0  0  0  0  0  0  0  0  0  0  0  0
   14.7138  -18.3095    0.0000 O   0  0  0  0  0  0  0  0  0  0  0  0
   14.4123  -19.7282    0.0000 C   0  0  0  0  0  0  0  0  0  0  0  0
   14.2036  -18.9304    0.0000 C   0  0  0  0  0  0  0  0  0  0  0  0
   13.4095  -18.7151    0.0000 C   0  0  0  0  0  0  0  0  0  0  0  0
   12.8248  -19.2962    0.0000 C   0  0  0  0  0  0  0  0  0  0  0  0
   13.0396  -20.0956    0.0000 C   0  0  0  0  0  0  0  0  0  0  0  0
   13.8332  -20.3072    0.0000 C   0  0  0  0  0  0  0  0  0  0  0  0
   14.1977  -18.1103    0.0000 F   0  0  0  0  0  0  0  0  0  0  0  0
   13.2004  -17.9252    0.0000 Cl  0  0  0  0  0  0  0  0  0  0  0  0
   15.8648  -17.1491    0.0000 C   0  0  0  0  0  0  0  0  0  0  0  0
   16.4424  -16.5703    0.0000 C   0  0  0  0  0  0  0  0  0  0  0  0
   16.2282  -15.7825    0.0000 C   0  0  0  0  0  0  0  0  0  0  0  0
   15.4373  -15.5735    0.0000 C   0  0  0  0  0  0  0  0  0  0  0  0
   14.8607  -16.1585    0.0000 C   0  0  0  0  0  0  0  0  0  0  0  0
   15.0779  -16.9442    0.0000 C   0  0  0  0  0  0  0  0  0  0  0  0
   15.2216  -14.7853    0.0000 C   0  0  0  0  0  0  0  0  0  0  0  0
   15.7963  -14.2044    0.0000 N   0  0  0  0  0  0  0  0  0  0  0  0
   14.4311  -14.5781    0.0000 O   0  0  0  0  0  0  0  0  0  0  0  0
   16.5868  -14.4116    0.0000 C   0  0  0  0  0  0  0  0  0  0  0  0
   17.1615  -13.8307    0.0000 C   0  0  0  0  0  0  0  0  0  0  0  0
   17.9520  -14.0379    0.0000 C   0  0  0  0  0  0  0  0  0  0  0  0
   18.5267  -13.4570    0.0000 C   0  0  0  0  0  0  0  0  0  0  0  0
   19.3172  -13.6643    0.0000 C   0  0  0  0  0  0  0  0  0  0  0  0
   19.8919  -13.0833    0.0000 C   0  0  0  0  0  0  0  0  0  0  0  0
   21.0419  -11.9229    0.0000 C   0  0  0  0  0  0  0  0  0  0  0  0
   20.2467  -11.7171    0.0000 C   0  0  0  0  0  0  0  0  0  0  0  0
   19.6757  -12.2988    0.0000 C   0  0  0  0  0  0  0  0  0  0  0  0
   21.2575  -12.7120    0.0000 C   0  0  0  0  0  0  0  0  0  0  0  0
   20.6862  -13.2929    0.0000 C   0  0  0  0  0  0  0  0  0  0  0  0
   21.0620  -14.0158    0.0000 C   0  0  0  0  0  0  0  0  0  0  0  0
   21.8657  -13.8817    0.0000 N   0  0  0  0  0  0  0  0  0  0  0  0
   21.9864  -13.0760    0.0000 C   0  0  0  0  0  0  0  0  0  0  0  0
   22.7114  -12.6989    0.0000 O   0  0  0  0  0  0  0  0  0  0  0  0
   22.4484  -14.4547    0.0000 C   0  0  0  0  0  0  0  0  0  0  0  0
   22.2412  -15.2449    0.0000 C   0  0  0  0  0  0  0  0  0  0  0  0
   22.8200  -15.8168    0.0000 C   0  0  0  0  0  0  0  0  0  0  0  0
   23.6090  -15.6027    0.0000 C   0  0  0  0  0  0  0  0  0  0  0  0
   23.8160  -14.8112    0.0000 N   0  0  0  0  0  0  0  0  0  0  0  0
   23.2341  -14.2338    0.0000 C   0  0  0  0  0  0  0  0  0  0  0  0
   23.4392  -13.4427    0.0000 O   0  0  0  0  0  0  0  0  0  0  0  0
   24.1894  -16.1779    0.0000 O   0  0  0  0  0  0  0  0  0  0  0  0
  1  2  1  0
  1  6  1  0
  2  3  1  0
  3  4  1  0
  4  5  1  0
  5  6  1  0
  7  1  1  0
  1  8  1  0
  8  9  1  0
  9 10  1  0
 10  7  1  0
 11 12  2  0
 12 13  1  0
 13 16  2  0
 15 14  2  0
 14 11  1  0
 15 16  1  0
 16 17  1  0
 17 18  1  0
  7 18  1  1
  7 15  1  0
 12 19  1  0
 18 20  2  0
  9 21  1  6
 21 22  1  0
 21 23  2  0
 10 24  1  1
 24 25  2  0
 25 26  1  0
 26 27  2  0
 27 28  1  0
 28 29  2  0
 29 24  1  0
 25 30  1  0
 26 31  1  0
 22 32  1  0
 32 33  2  0
 33 34  1  0
 34 35  2  0
 35 36  1  0
 36 37  2  0
 37 32  1  0
 35 38  1  0
 38 39  1  0
 38 40  2  0
 39 41  1  0
 41 42  1  0
 42 43  1  0
 43 44  1  0
 44 45  1  0
 45 46  1  0
 46 51  2  0
 50 47  2  0
 47 48  1  0
 48 49  2  0
 49 46  1  0
 50 51  1  0
 51 52  1  0
 52 53  1  0
 53 54  1  0
 54 50  1  0
 54 55  2  0
 53 56  1  0
 56 57  1  0
 56 61  1  0
 57 58  1  0
 58 59  1  0
 59 60  1  0
 60 61  1  0
 61 62  2  0
 59 63  2  0
M  END
> <From>
www.bindingDB.org

> <BindingDB Reactant_set_id>
51235022

> <Ligand InChI>
InChI=1S/C48H47Cl2FN6O6/c49-29-16-19-34-36(25-29)54-46(63)48(34)39(32-12-8-13-35(50)40(32)51)41(56-47(48)22-4-2-5-23-47)44(61)53-30-17-14-28(15-18-30)42(59)52-24-6-1-3-9-27-10-7-11-31-33(27)26-57(45(31)62)37-20-21-38(58)55-43(37)60/h7-8,10-19,25,37,39,41,56H,1-6,9,20-24,26H2,(H,52,59)(H,53,61)(H,54,63)(H,55,58,60)/t37?,39-,41+,48+/m0/s1

> <Ligand InChI Key>
RRSNDVCODIMOFX-MPKOGUQCSA-N

> <BindingDB MonomerID>
50505629

> <BindingDB Ligand Name>
CHEMBL4436772

> <Target Name>
Protein cereblon

> <Target Source Organism According to Curator or DataSource>
Human

> <Ki (nM)>


> <IC50 (nM)>
>10.0

> <Kd (nM)>


> <EC50 (nM)>


> <kon (M-1-s-1)>


> <koff (s-1)>


> <pH>


> <Temp C>


> <Curation/DataSource>
ChEMBL

> <Article DOI>
10.1021/acs.jmedchem.9b00846

> <BindingDB Entry DOI>
10.7270/Q20C5026

> <PMID>
31560543

> <PubChem AID>


> <Patent Number>


> <Authors>
Yang, J; Li, Y; Aguilar, A; Liu, Z; Yang, CY; Wang, S

> <Date of publication>
11/14/2019

> <Date in BindingDB>
2/18/2021

> <Institution>
TBA

> <Link to Ligand in BindingDB>
http://www.bindingdb.org/bind/chemsearch/marvin/MolStructure.jsp?monomerid=50505629

> <Link to Ligand-Target Pair in BindingDB>
http://www.bindingdb.org/jsp/dbsearch/PrimarySearch_ki.jsp?energyterm=kJ/mole&tag=pol&polymerid=50007050&target=Protein+cereblon&column=ki&startPg=0&Increment=50&submit=Search

> <Link to Ligand-Target Pair in BindingDB>
http://www.bindingdb.org/jsp/dbsearch/PrimarySearch_ki.jsp?energyterm=kJ/mole&tag=r21&monomerid=50505629&enzyme=Protein+cereblon&column=ki&startPg=0&Increment=50&submit=Search

> <Ligand HET ID in PDB>


> <PDB ID(s) for Ligand-Target Complex>


> <PubChem CID of Ligand>
131988640

> <PubChem SID of Ligand>
440714214

> <ChEBI ID of Ligand>


> <ChEMBL ID of Ligand>


> <DrugBank ID of Ligand>


> <IUPHAR_GRAC ID of Ligand>


> <KEGG ID of Ligand>


> <ZINC ID of Ligand>


> <Number of Protein Chains in Target (bigger than 1 implies a multichain complex)>
1

> <BindingDB Target Chain Sequence>
MAGEGDQQDAAHNMGNHLPLLPAESEEEDEMEVEDQDSKEAKKPNIINFDTSLPTSHTYLGADMEEFHGRTLHDDDSCQVIPVLPQVMMILIPGQTLPLQLFHPQEVSMVRNLIQKDRTFAVLAYSNVQEREAQFGTTAEIYAYREEQDFGIEIVKVKAIGRQRFKVLELRTQSDGIQQAKVQILPECVLPSTMSAVQLESLNKCQIFPSKPVSREDQCSYKWWQKYQKRKFHCANLTSWPRWLYSLYDAETLMDRIKKQLREWDENLKDDSLPSNPIDFSYRVAACLPIDDVLRIQLLKIGSAIQRLRCELDIMNKCTSLCCKQCQETEITTKNEIFSLSLCGPMAAYVNPHGYVHETLTVYKACNLNLIGRPSTEHSWFPGYAWTVAQCKICASHIGWKFTATKKDMSPQKFWGLTRSALLPTIPDTEDEISPDKVILCL

> <PDB ID(s) of Target Chain>
4TZ4,5HXB,5V3O,6UML,6XK9,7LPS,7U8F,8CVP,8D7U,8D7V,8D7W,8D7X,8D7Y,8D7Z,8D80,8D81,8DEY,8OIZ,8OJH

> <UniProt (SwissProt) Recommended Name of Target Chain>
Protein cereblon

> <UniProt (SwissProt) Entry Name of Target Chain>
CRBN_HUMAN

> <UniProt (SwissProt) Primary ID of Target Chain>
Q96SW2

> <UniProt (SwissProt) Secondary ID(s) of Target Chain>
B2R6H4 C9IZA9 C9JAH6 Q6AI62 Q6NVZ0 Q9UHW4

> <UniProt (SwissProt) Alternative ID(s) of Target Chain>


> <UniProt (TrEMBL) Submitted Name of Target Chain>


> <UniProt (TrEMBL) Entry Name of Target Chain>


> <UniProt (TrEMBL) Primary ID of Target Chain>


> <UniProt (TrEMBL) Secondary ID(s) of Target Chain>


> <UniProt (TrEMBL) Alternative ID(s) of Target Chain>


$$$$
00144001.cdx
  Mrv0541 11201412292D          

 32 36  0  0  0  0            999 V2000
   -2.0457   -1.0939    0.0000 C   0  0  0  0  0  0  0  0  0  0  0  0
   -2.0457   -1.9189    0.0000 C   0  0  0  0  0  0  0  0  0  0  0  0
   -1.3312   -2.3314    0.0000 C   0  0  0  0  0  0  0  0  0  0  0  0
   -0.6168   -1.9189    0.0000 C   0  0  0  0  0  0  0  0  0  0  0  0
   -0.6168   -1.0939    0.0000 C   0  0  0  0  0  0  0  0  0  0  0  0
   -1.3312   -0.6814    0.0000 C   0  0  0  0  0  0  0  0  0  0  0  0
    0.1679   -2.1738    0.0000 N   0  0  0  0  0  0  0  0  0  0  0  0
    0.6528   -1.5064    0.0000 C   0  0  0  0  0  0  0  0  0  0  0  0
   -2.7602   -2.3314    0.0000 Cl  0  0  0  0  0  0  0  0  0  0  0  0
    1.4778   -1.5064    0.0000 O   0  0  0  0  0  0  0  0  0  0  0  0
    0.9525    0.2410    0.0000 N   0  0  0  0  0  0  0  0  0  0  0  0
    0.1679    0.4960    0.0000 C   0  0  2  0  0  0  0  0  0  0  0  0
    0.1679   -0.8389    0.0000 C   0  0  2  0  0  0  0  0  0  0  0  0
   -0.9004    0.4119    0.0000 C   0  0  0  0  0  0  0  0  0  0  0  0
   -0.6869    1.2088    0.0000 C   0  0  0  0  0  0  0  0  0  0  0  0
   -1.2703    1.7921    0.0000 C   0  0  0  0  0  0  0  0  0  0  0  0
   -2.0671    1.5786    0.0000 C   0  0  0  0  0  0  0  0  0  0  0  0
   -2.2807    0.7817    0.0000 C   0  0  0  0  0  0  0  0  0  0  0  0
   -1.6973    0.1984    0.0000 C   0  0  0  0  0  0  0  0  0  0  0  0
   -3.0776    0.5682    0.0000 Cl  0  0  0  0  0  0  0  0  0  0  0  0
   -1.9108   -0.5985    0.0000 F   0  0  0  0  0  0  0  0  0  0  0  0
   -0.3171   -0.1715    0.0000 C   0  0  1  0  0  0  0  0  0  0  0  0
    1.5358   -0.0006    0.0000 C   0  0  0  0  0  0  0  0  0  0  0  0
    0.9525   -0.5840    0.0000 C   0  0  0  0  0  0  0  0  0  0  0  0
    1.7774   -0.5840    0.0000 C   0  0  0  0  0  0  0  0  0  0  0  0
    2.4941   -0.9926    0.0000 C   0  0  0  0  0  0  0  0  0  0  0  0
    3.0776   -0.4093    0.0000 C   0  0  0  0  0  0  0  0  0  0  0  0
    2.2526   -0.4093    0.0000 C   0  0  0  0  0  0  0  0  0  0  0  0
    0.1679    1.3210    0.0000 C   0  0  0  0  0  0  0  0  0  0  0  0
   -0.5466    1.7335    0.0000 O   0  0  0  0  0  0  0  0  0  0  0  0
    0.9648    1.5345    0.0000 N   0  0  0  0  0  0  0  0  0  0  0  0
    1.1783    2.3314    0.0000 C   0  0  0  0  0  0  0  0  0  0  0  0
  1  2  2  0  0  0  0
  2  3  1  0  0  0  0
  3  4  2  0  0  0  0
  4  5  1  0  0  0  0
  5  6  2  0  0  0  0
  6  1  1  0  0  0  0
  4  7  1  0  0  0  0
  7  8  1  0  0  0  0
 13  8  1  1  0  0  0
 13  5  1  0  0  0  0
  2  9  1  0  0  0  0
  8 10  2  0  0  0  0
 24 11  1  0  0  0  0
 12 11  1  0  0  0  0
 22 12  1  0  0  0  0
 13 22  1  0  0  0  0
 13 24  1  0  0  0  0
 14 15  2  0  0  0  0
 15 16  1  0  0  0  0
 16 17  2  0  0  0  0
 17 18  1  0  0  0  0
 18 19  2  0  0  0  0
 19 14  1  0  0  0  0
 18 20  1  0  0  0  0
 19 21  1  0  0  0  0
 22 14  1  1  0  0  0
 23 24  1  0  0  0  0
 24 25  1  0  0  0  0
 25 26  1  0  0  0  0
 26 27  1  0  0  0  0
 27 28  1  0  0  0  0
 28 23  1  0  0  0  0
 12 29  1  6  0  0  0
 29 30  2  0  0  0  0
 29 31  1  0  0  0  0
 31 32  1  0  0  0  0
M  END
> <From>
www.bindingDB.org

> <BindingDB Reactant_set_id>
51235023

> <Ligand InChI>
InChI=1S/C24H24Cl2FN3O2/c1-28-21(31)20-18(14-6-5-7-16(26)19(14)27)24(23(30-20)10-3-2-4-11-23)15-9-8-13(25)12-17(15)29-22(24)32/h5-9,12,18,20,30H,2-4,10-11H2,1H3,(H,28,31)(H,29,32)/t18-,20+,24+/m0/s1

> <Ligand InChI Key>
LHBZDASUSDFFIL-MFSJNOQSSA-N

> <BindingDB MonomerID>
112754

> <BindingDB Ligand Name>
US8629141, 21

> <Target Name>
Protein cereblon

> <Target Source Organism According to Curator or DataSource>
Human

> <Ki (nM)>


> <IC50 (nM)>
>10.0

> <Kd (nM)>


> <EC50 (nM)>


> <kon (M-1-s-1)>


> <koff (s-1)>


> <pH>


> <Temp C>


> <Curation/DataSource>
ChEMBL

> <Article DOI>
10.1021/acs.jmedchem.9b00846

> <BindingDB Entry DOI>
10.7270/Q20C5026

> <PMID>
31560543

> <PubChem AID>


> <Patent Number>


> <Authors>
Yang, J; Li, Y; Aguilar, A; Liu, Z; Yang, CY; Wang, S

> <Date of publication>
11/14/2019

> <Date in BindingDB>
2/18/2021

> <Institution>
TBA

> <Link to Ligand in BindingDB>
http://www.bindingdb.org/bind/chemsearch/marvin/MolStructure.jsp?monomerid=112754

> <Link to Ligand-Target Pair in BindingDB>
http://www.bindingdb.org/jsp/dbsearch/PrimarySearch_ki.jsp?energyterm=kJ/mole&tag=pol&polymerid=50007050&target=Protein+cereblon&column=ki&startPg=0&Increment=50&submit=Search

> <Link to Ligand-Target Pair in BindingDB>
http://www.bindingdb.org/jsp/dbsearch/PrimarySearch_ki.jsp?energyterm=kJ/mole&tag=r21&monomerid=112754&enzyme=Protein+cereblon&column=ki&startPg=0&Increment=50&submit=Search

> <Ligand HET ID in PDB>


> <PDB ID(s) for Ligand-Target Complex>


> <PubChem CID of Ligand>
71020635

> <PubChem SID of Ligand>
194690495

> <ChEBI ID of Ligand>


> <ChEMBL ID of Ligand>


> <DrugBank ID of Ligand>


> <IUPHAR_GRAC ID of Ligand>


> <KEGG ID of Ligand>


> <ZINC ID of Ligand>


> <Number of Protein Chains in Target (bigger than 1 implies a multichain complex)>
1

> <BindingDB Target Chain Sequence>
MAGEGDQQDAAHNMGNHLPLLPAESEEEDEMEVEDQDSKEAKKPNIINFDTSLPTSHTYLGADMEEFHGRTLHDDDSCQVIPVLPQVMMILIPGQTLPLQLFHPQEVSMVRNLIQKDRTFAVLAYSNVQEREAQFGTTAEIYAYREEQDFGIEIVKVKAIGRQRFKVLELRTQSDGIQQAKVQILPECVLPSTMSAVQLESLNKCQIFPSKPVSREDQCSYKWWQKYQKRKFHCANLTSWPRWLYSLYDAETLMDRIKKQLREWDENLKDDSLPSNPIDFSYRVAACLPIDDVLRIQLLKIGSAIQRLRCELDIMNKCTSLCCKQCQETEITTKNEIFSLSLCGPMAAYVNPHGYVHETLTVYKACNLNLIGRPSTEHSWFPGYAWTVAQCKICASHIGWKFTATKKDMSPQKFWGLTRSALLPTIPDTEDEISPDKVILCL

> <PDB ID(s) of Target Chain>
4TZ4,5HXB,5V3O,6UML,6XK9,7LPS,7U8F,8CVP,8D7U,8D7V,8D7W,8D7X,8D7Y,8D7Z,8D80,8D81,8DEY,8OIZ,8OJH

> <UniProt (SwissProt) Recommended Name of Target Chain>
Protein cereblon

> <UniProt (SwissProt) Entry Name of Target Chain>
CRBN_HUMAN

> <UniProt (SwissProt) Primary ID of Target Chain>
Q96SW2

> <UniProt (SwissProt) Secondary ID(s) of Target Chain>
B2R6H4 C9IZA9 C9JAH6 Q6AI62 Q6NVZ0 Q9UHW4

> <UniProt (SwissProt) Alternative ID(s) of Target Chain>


> <UniProt (TrEMBL) Submitted Name of Target Chain>


> <UniProt (TrEMBL) Entry Name of Target Chain>


> <UniProt (TrEMBL) Primary ID of Target Chain>


> <UniProt (TrEMBL) Secondary ID(s) of Target Chain>


> <UniProt (TrEMBL) Alternative ID(s) of Target Chain>


$$$$
 
     RDKit          2D

 63 71  0  0  0  0  0  0  0  0999 V2000
   16.4429  -20.4091    0.0000 C   0  0  0  0  0  0  0  0  0  0  0  0
   16.6534  -21.1974    0.0000 C   0  0  0  0  0  0  0  0  0  0  0  0
   17.4369  -21.4081    0.0000 C   0  0  0  0  0  0  0  0  0  0  0  0
   18.0156  -20.8337    0.0000 C   0  0  0  0  0  0  0  0  0  0  0  0
   17.8051  -20.0454    0.0000 C   0  0  0  0  0  0  0  0  0  0  0  0
   17.0160  -19.8315    0.0000 C   0  0  0  0  0  0  0  0  0  0  0  0
   15.6548  -20.6267    0.0000 C   0  0  0  0  0  0  0  0  0  0  0  0
   16.4826  -19.5961    0.0000 N   0  0  0  0  0  0  0  0  0  0  0  0
   15.7187  -19.3063    0.0000 C   0  0  0  0  0  0  0  0  0  0  0  0
   15.2072  -19.9433    0.0000 C   0  0  0  0  0  0  0  0  0  0  0  0
   13.4616  -20.8879    0.0000 C   0  0  0  0  0  0  0  0  0  0  0  0
   13.4605  -21.7074    0.0000 C   0  0  0  0  0  0  0  0  0  0  0  0
   14.1685  -22.1164    0.0000 C   0  0  0  0  0  0  0  0  0  0  0  0
   14.1667  -20.4790    0.0000 C   0  0  0  0  0  0  0  0  0  0  0  0
   14.8753  -20.8843    0.0000 C   0  0  0  0  0  0  0  0  0  0  0  0
   14.8801  -21.7029    0.0000 C   0  0  0  0  0  0  0  0  0  0  0  0
   15.6602  -21.9513    0.0000 N   0  0  0  0  0  0  0  0  0  0  0  0
   16.1375  -21.2862    0.0000 C   0  0  0  0  0  0  0  0  0  0  0  0
   12.7524  -22.1154    0.0000 Cl  0  0  0  0  0  0  0  0  0  0  0  0
   16.8432  -21.6927    0.0000 O   0  0  0  0  0  0  0  0  0  0  0  0
   15.5040  -18.5178    0.0000 C   0  0  0  0  0  0  0  0  0  0  0  0
   16.0795  -17.9376    0.0000 N   0  0  0  0  0  0  0  0  0  0  0  0
   14.7138  -18.3095    0.0000 O   0  0  0  0  0  0  0  0  0  0  0  0
   14.4123  -19.7282    0.0000 C   0  0  0  0  0  0  0  0  0  0  0  0
   14.2036  -18.9304    0.0000 C   0  0  0  0  0  0  0  0  0  0  0  0
   13.4095  -18.7151    0.0000 C   0  0  0  0  0  0  0  0  0  0  0  0
   12.8248  -19.2962    0.0000 C   0  0  0  0  0  0  0  0  0  0  0  0
   13.0396  -20.0956    0.0000 C   0  0  0  0  0  0  0  0  0  0  0  0
   13.8332  -20.3072    0.0000 C   0  0  0  0  0  0  0  0  0  0  0  0
   14.1977  -18.1103    0.0000 F   0  0  0  0  0  0  0  0  0  0  0  0
   13.2004  -17.9252    0.0000 Cl  0  0  0  0  0  0  0  0  0  0  0  0
   15.8648  -17.1491    0.0000 C   0  0  0  0  0  0  0  0  0  0  0  0
   16.4424  -16.5703    0.0000 C   0  0  0  0  0  0  0  0  0  0  0  0
   16.2282  -15.7825    0.0000 C   0  0  0  0  0  0  0  0  0  0  0  0
   15.4373  -15.5735    0.0000 C   0  0  0  0  0  0  0  0  0  0  0  0
   14.8607  -16.1585    0.0000 C   0  0  0  0  0  0  0  0  0  0  0  0
   15.0779  -16.9442    0.0000 C   0  0  0  0  0  0  0  0  0  0  0  0
   15.2216  -14.7853    0.0000 C   0  0  0  0  0  0  0  0  0  0  0  0
   15.7963  -14.2044    0.0000 N   0  0  0  0  0  0  0  0  0  0  0  0
   14.4311  -14.5781    0.0000 O   0  0  0  0  0  0  0  0  0  0  0  0
   16.5868  -14.4116    0.0000 C   0  0  0  0  0  0  0  0  0  0  0  0
   17.1615  -13.8307    0.0000 C   0  0  0  0  0  0  0  0  0  0  0  0
   17.9520  -14.0379    0.0000 C   0  0  0  0  0  0  0  0  0  0  0  0
   18.5267  -13.4570    0.0000 C   0  0  0  0  0  0  0  0  0  0  0  0
   19.3172  -13.6643    0.0000 C   0  0  0  0  0  0  0  0  0  0  0  0
   19.8919  -13.0833    0.0000 C   0  0  0  0  0  0  0  0  0  0  0  0
   21.0419  -11.9229    0.0000 C   0  0  0  0  0  0  0  0  0  0  0  0
   20.2467  -11.7171    0.0000 C   0  0  0  0  0  0  0  0  0  0  0  0
   19.6757  -12.2988    0.0000 C   0  0  0  0  0  0  0  0  0  0  0  0
   21.2575  -12.7120    0.0000 C   0  0  0  0  0  0  0  0  0  0  0  0
   20.6862  -13.2929    0.0000 C   0  0  0  0  0  0  0  0  0  0  0  0
   21.0620  -14.0158    0.0000 C   0  0  0  0  0  0  0  0  0  0  0  0
   21.8657  -13.8817    0.0000 N   0  0  0  0  0  0  0  0  0  0  0  0
   21.9864  -13.0760    0.0000 C   0  0  0  0  0  0  0  0  0  0  0  0
   22.7114  -12.6989    0.0000 O   0  0  0  0  0  0  0  0  0  0  0  0
   22.4484  -14.4547    0.0000 C   0  0  0  0  0  0  0  0  0  0  0  0
   22.2412  -15.2449    0.0000 C   0  0  0  0  0  0  0  0  0  0  0  0
   22.8200  -15.8168    0.0000 C   0  0  0  0  0  0  0  0  0  0  0  0
   23.6090  -15.6027    0.0000 C   0  0  0  0  0  0  0  0  0  0  0  0
   23.8160  -14.8112    0.0000 N   0  0  0  0  0  0  0  0  0  0  0  0
   23.2341  -14.2338    0.0000 C   0  0  0  0  0  0  0  0  0  0  0  0
   23.4392  -13.4427    0.0000 O   0  0  0  0  0  0  0  0  0  0  0  0
   24.1894  -16.1779    0.0000 O   0  0  0  0  0  0  0  0  0  0  0  0
  1  2  1  0
  1  6  1  0
  2  3  1  0
  3  4  1  0
  4  5  1  0
  5  6  1  0
  7  1  1  0
  1  8  1  0
  8  9  1  0
  9 10  1  0
 10  7  1  0
 11 12  2  0
 12 13  1  0
 13 16  2  0
 15 14  2  0
 14 11  1  0
 15 16  1  0
 16 17  1  0
 17 18  1  0
  7 18  1  1
  7 15  1  0
 12 19  1  0
 18 20  2  0
  9 21  1  6
 21 22  1  0
 21 23  2  0
 10 24  1  1
 24 25  2  0
 25 26  1  0
 26 27  2  0
 27 28  1  0
 28 29  2  0
 29 24  1  0
 25 30  1  0
 26 31  1  0
 22 32  1  0
 32 33  2  0
 33 34  1  0
 34 35  2  0
 35 36  1  0
 36 37  2  0
 37 32  1  0
 35 38  1  0
 38 39  1  0
 38 40  2  0
 39 41  1  0
 41 42  1  0
 42 43  1  0
 43 44  1  0
 44 45  1  0
 45 46  1  0
 46 51  2  0
 50 47  2  0
 47 48  1  0
 48 49  2  0
 49 46  1  0
 50 51  1  0
 51 52  1  0
 52 53  1  0
 53 54  1  0
 54 50  1  0
 54 55  2  0
 53 56  1  0
 56 57  1  0
 56 61  1  0
 57 58  1  0
 58 59  1  0
 59 60  1  0
 60 61  1  0
 61 62  2  0
 59 63  2  0
M  END
> <From>
www.bindingDB.org

> <BindingDB Reactant_set_id>
51235024

> <Ligand InChI>
InChI=1S/C48H47Cl2FN6O6/c49-29-16-19-34-36(25-29)54-46(63)48(34)39(32-12-8-13-35(50)40(32)51)41(56-47(48)22-4-2-5-23-47)44(61)53-30-17-14-28(15-18-30)42(59)52-24-6-1-3-9-27-10-7-11-31-33(27)26-57(45(31)62)37-20-21-38(58)55-43(37)60/h7-8,10-19,25,37,39,41,56H,1-6,9,20-24,26H2,(H,52,59)(H,53,61)(H,54,63)(H,55,58,60)/t37?,39-,41+,48+/m0/s1

> <Ligand InChI Key>
RRSNDVCODIMOFX-MPKOGUQCSA-N

> <BindingDB MonomerID>
50505629

> <BindingDB Ligand Name>
CHEMBL4436772

> <Target Name>
Protein cereblon

> <Target Source Organism According to Curator or DataSource>
Human

> <Ki (nM)>


> <IC50 (nM)>
>10.0

> <Kd (nM)>


> <EC50 (nM)>


> <kon (M-1-s-1)>


> <koff (s-1)>


> <pH>


> <Temp C>


> <Curation/DataSource>
ChEMBL

> <Article DOI>
10.1021/acs.jmedchem.9b00846

> <BindingDB Entry DOI>
10.7270/Q20C5026

> <PMID>
31560543

> <PubChem AID>


> <Patent Number>


> <Authors>
Yang, J; Li, Y; Aguilar, A; Liu, Z; Yang, CY; Wang, S

> <Date of publication>
11/14/2019

> <Date in BindingDB>
2/18/2021

> <Institution>
TBA

> <Link to Ligand in BindingDB>
http://www.bindingdb.org/bind/chemsearch/marvin/MolStructure.jsp?monomerid=50505629

> <Link to Ligand-Target Pair in BindingDB>
http://www.bindingdb.org/jsp/dbsearch/PrimarySearch_ki.jsp?energyterm=kJ/mole&tag=pol&polymerid=50007050&target=Protein+cereblon&column=ki&startPg=0&Increment=50&submit=Search

> <Link to Ligand-Target Pair in BindingDB>
http://www.bindingdb.org/jsp/dbsearch/PrimarySearch_ki.jsp?energyterm=kJ/mole&tag=r21&monomerid=50505629&enzyme=Protein+cereblon&column=ki&startPg=0&Increment=50&submit=Search

> <Ligand HET ID in PDB>


> <PDB ID(s) for Ligand-Target Complex>


> <PubChem CID of Ligand>
131988640

> <PubChem SID of Ligand>
440714214

> <ChEBI ID of Ligand>


> <ChEMBL ID of Ligand>


> <DrugBank ID of Ligand>


> <IUPHAR_GRAC ID of Ligand>


> <KEGG ID of Ligand>


> <ZINC ID of Ligand>


> <Number of Protein Chains in Target (bigger than 1 implies a multichain complex)>
1

> <BindingDB Target Chain Sequence>
MAGEGDQQDAAHNMGNHLPLLPAESEEEDEMEVEDQDSKEAKKPNIINFDTSLPTSHTYLGADMEEFHGRTLHDDDSCQVIPVLPQVMMILIPGQTLPLQLFHPQEVSMVRNLIQKDRTFAVLAYSNVQEREAQFGTTAEIYAYREEQDFGIEIVKVKAIGRQRFKVLELRTQSDGIQQAKVQILPECVLPSTMSAVQLESLNKCQIFPSKPVSREDQCSYKWWQKYQKRKFHCANLTSWPRWLYSLYDAETLMDRIKKQLREWDENLKDDSLPSNPIDFSYRVAACLPIDDVLRIQLLKIGSAIQRLRCELDIMNKCTSLCCKQCQETEITTKNEIFSLSLCGPMAAYVNPHGYVHETLTVYKACNLNLIGRPSTEHSWFPGYAWTVAQCKICASHIGWKFTATKKDMSPQKFWGLTRSALLPTIPDTEDEISPDKVILCL

> <PDB ID(s) of Target Chain>
4TZ4,5HXB,5V3O,6UML,6XK9,7LPS,7U8F,8CVP,8D7U,8D7V,8D7W,8D7X,8D7Y,8D7Z,8D80,8D81,8DEY,8OIZ,8OJH

> <UniProt (SwissProt) Recommended Name of Target Chain>
Protein cereblon

> <UniProt (SwissProt) Entry Name of Target Chain>
CRBN_HUMAN

> <UniProt (SwissProt) Primary ID of Target Chain>
Q96SW2

> <UniProt (SwissProt) Secondary ID(s) of Target Chain>
B2R6H4 C9IZA9 C9JAH6 Q6AI62 Q6NVZ0 Q9UHW4

> <UniProt (SwissProt) Alternative ID(s) of Target Chain>


> <UniProt (TrEMBL) Submitted Name of Target Chain>


> <UniProt (TrEMBL) Entry Name of Target Chain>


> <UniProt (TrEMBL) Primary ID of Target Chain>


> <UniProt (TrEMBL) Secondary ID(s) of Target Chain>


> <UniProt (TrEMBL) Alternative ID(s) of Target Chain>


$$$$
00144001.cdx
  Mrv0541 11201412292D          

 32 36  0  0  0  0            999 V2000
   -2.0457   -1.0939    0.0000 C   0  0  0  0  0  0  0  0  0  0  0  0
   -2.0457   -1.9189    0.0000 C   0  0  0  0  0  0  0  0  0  0  0  0
   -1.3312   -2.3314    0.0000 C   0  0  0  0  0  0  0  0  0  0  0  0
   -0.6168   -1.9189    0.0000 C   0  0  0  0  0  0  0  0  0  0  0  0
   -0.6168   -1.0939    0.0000 C   0  0  0  0  0  0  0  0  0  0  0  0
   -1.3312   -0.6814    0.0000 C   0  0  0  0  0  0  0  0  0  0  0  0
    0.1679   -2.1738    0.0000 N   0  0  0  0  0  0  0  0  0  0  0  0
    0.6528   -1.5064    0.0000 C   0  0  0  0  0  0  0  0  0  0  0  0
   -2.7602   -2.3314    0.0000 Cl  0  0  0  0  0  0  0  0  0  0  0  0
    1.4778   -1.5064    0.0000 O   0  0  0  0  0  0  0  0  0  0  0  0
    0.9525    0.2410    0.0000 N   0  0  0  0  0  0  0  0  0  0  0  0
    0.1679    0.4960    0.0000 C   0  0  2  0  0  0  0  0  0  0  0  0
    0.1679   -0.8389    0.0000 C   0  0  2  0  0  0  0  0  0  0  0  0
   -0.9004    0.4119    0.0000 C   0  0  0  0  0  0  0  0  0  0  0  0
   -0.6869    1.2088    0.0000 C   0  0  0  0  0  0  0  0  0  0  0  0
   -1.2703    1.7921    0.0000 C   0  0  0  0  0  0  0  0  0  0  0  0
   -2.0671    1.5786    0.0000 C   0  0  0  0  0  0  0  0  0  0  0  0
   -2.2807    0.7817    0.0000 C   0  0  0  0  0  0  0  0  0  0  0  0
   -1.6973    0.1984    0.0000 C   0  0  0  0  0  0  0  0  0  0  0  0
   -3.0776    0.5682    0.0000 Cl  0  0  0  0  0  0  0  0  0  0  0  0
   -1.9108   -0.5985    0.0000 F   0  0  0  0  0  0  0  0  0  0  0  0
   -0.3171   -0.1715    0.0000 C   0  0  1  0  0  0  0  0  0  0  0  0
    1.5358   -0.0006    0.0000 C   0  0  0  0  0  0  0  0  0  0  0  0
    0.9525   -0.5840    0.0000 C   0  0  0  0  0  0  0  0  0  0  0  0
    1.7774   -0.5840    0.0000 C   0  0  0  0  0  0  0  0  0  0  0  0
    2.4941   -0.9926    0.0000 C   0  0  0  0  0  0  0  0  0  0  0  0
    3.0776   -0.4093    0.0000 C   0  0  0  0  0  0  0  0  0  0  0  0
    2.2526   -0.4093    0.0000 C   0  0  0  0  0  0  0  0  0  0  0  0
    0.1679    1.3210    0.0000 C   0  0  0  0  0  0  0  0  0  0  0  0
   -0.5466    1.7335    0.0000 O   0  0  0  0  0  0  0  0  0  0  0  0
    0.9648    1.5345    0.0000 N   0  0  0  0  0  0  0  0  0  0  0  0
    1.1783    2.3314    0.0000 C   0  0  0  0  0  0  0  0  0  0  0  0
  1  2  2  0  0  0  0
  2  3  1  0  0  0  0
  3  4  2  0  0  0  0
  4  5  1  0  0  0  0
  5  6  2  0  0  0  0
  6  1  1  0  0  0  0
  4  7  1  0  0  0  0
  7  8  1  0  0  0  0
 13  8  1  1  0  0  0
 13  5  1  0  0  0  0
  2  9  1  0  0  0  0
  8 10  2  0  0  0  0
 24 11  1  0  0  0  0
 12 11  1  0  0  0  0
 22 12  1  0  0  0  0
 13 22  1  0  0  0  0
 13 24  1  0  0  0  0
 14 15  2  0  0  0  0
 15 16  1  0  0  0  0
 16 17  2  0  0  0  0
 17 18  1  0  0  0  0
 18 19  2  0  0  0  0
 19 14  1  0  0  0  0
 18 20  1  0  0  0  0
 19 21  1  0  0  0  0
 22 14  1  1  0  0  0
 23 24  1  0  0  0  0
 24 25  1  0  0  0  0
 25 26  1  0  0  0  0
 26 27  1  0  0  0  0
 27 28  1  0  0  0  0
 28 23  1  0  0  0  0
 12 29  1  6  0  0  0
 29 30  2  0  0  0  0
 29 31  1  0  0  0  0
 31 32  1  0  0  0  0
M  END
> <From>
www.bindingDB.org

> <BindingDB Reactant_set_id>
51235040

> <Ligand InChI>
InChI=1S/C24H24Cl2FN3O2/c1-28-21(31)20-18(14-6-5-7-16(26)19(14)27)24(23(30-20)10-3-2-4-11-23)15-9-8-13(25)12-17(15)29-22(24)32/h5-9,12,18,20,30H,2-4,10-11H2,1H3,(H,28,31)(H,29,32)/t18-,20+,24+/m0/s1

> <Ligand InChI Key>
LHBZDASUSDFFIL-MFSJNOQSSA-N

> <BindingDB MonomerID>
112754

> <BindingDB Ligand Name>
US8629141, 21

> <Target Name>
Protein cereblon

> <Target Source Organism According to Curator or DataSource>
Human

> <Ki (nM)>


> <IC50 (nM)>
>10.0

> <Kd (nM)>


> <EC50 (nM)>


> <kon (M-1-s-1)>


> <koff (s-1)>


> <pH>


> <Temp C>


> <Curation/DataSource>
ChEMBL

> <Article DOI>
10.1021/acs.jmedchem.9b00846

> <BindingDB Entry DOI>
10.7270/Q20C5026

> <PMID>
31560543

> <PubChem AID>


> <Patent Number>


> <Authors>
Yang, J; Li, Y; Aguilar, A; Liu, Z; Yang, CY; Wang, S

> <Date of publication>
11/14/2019

> <Date in BindingDB>
2/18/2021

> <Institution>
TBA

> <Link to Ligand in BindingDB>
http://www.bindingdb.org/bind/chemsearch/marvin/MolStructure.jsp?monomerid=112754

> <Link to Ligand-Target Pair in BindingDB>
http://www.bindingdb.org/jsp/dbsearch/PrimarySearch_ki.jsp?energyterm=kJ/mole&tag=pol&polymerid=50007050&target=Protein+cereblon&column=ki&startPg=0&Increment=50&submit=Search

> <Link to Ligand-Target Pair in BindingDB>
http://www.bindingdb.org/jsp/dbsearch/PrimarySearch_ki.jsp?energyterm=kJ/mole&tag=r21&monomerid=112754&enzyme=Protein+cereblon&column=ki&startPg=0&Increment=50&submit=Search

> <Ligand HET ID in PDB>


> <PDB ID(s) for Ligand-Target Complex>


> <PubChem CID of Ligand>
71020635

> <PubChem SID of Ligand>
194690495

> <ChEBI ID of Ligand>


> <ChEMBL ID of Ligand>


> <DrugBank ID of Ligand>


> <IUPHAR_GRAC ID of Ligand>


> <KEGG ID of Ligand>


> <ZINC ID of Ligand>


> <Number of Protein Chains in Target (bigger than 1 implies a multichain complex)>
1

> <BindingDB Target Chain Sequence>
MAGEGDQQDAAHNMGNHLPLLPAESEEEDEMEVEDQDSKEAKKPNIINFDTSLPTSHTYLGADMEEFHGRTLHDDDSCQVIPVLPQVMMILIPGQTLPLQLFHPQEVSMVRNLIQKDRTFAVLAYSNVQEREAQFGTTAEIYAYREEQDFGIEIVKVKAIGRQRFKVLELRTQSDGIQQAKVQILPECVLPSTMSAVQLESLNKCQIFPSKPVSREDQCSYKWWQKYQKRKFHCANLTSWPRWLYSLYDAETLMDRIKKQLREWDENLKDDSLPSNPIDFSYRVAACLPIDDVLRIQLLKIGSAIQRLRCELDIMNKCTSLCCKQCQETEITTKNEIFSLSLCGPMAAYVNPHGYVHETLTVYKACNLNLIGRPSTEHSWFPGYAWTVAQCKICASHIGWKFTATKKDMSPQKFWGLTRSALLPTIPDTEDEISPDKVILCL

> <PDB ID(s) of Target Chain>
4TZ4,5HXB,5V3O,6UML,6XK9,7LPS,7U8F,8CVP,8D7U,8D7V,8D7W,8D7X,8D7Y,8D7Z,8D80,8D81,8DEY,8OIZ,8OJH

> <UniProt (SwissProt) Recommended Name of Target Chain>
Protein cereblon

> <UniProt (SwissProt) Entry Name of Target Chain>
CRBN_HUMAN

> <UniProt (SwissProt) Primary ID of Target Chain>
Q96SW2

> <UniProt (SwissProt) Secondary ID(s) of Target Chain>
B2R6H4 C9IZA9 C9JAH6 Q6AI62 Q6NVZ0 Q9UHW4

> <UniProt (SwissProt) Alternative ID(s) of Target Chain>


> <UniProt (TrEMBL) Submitted Name of Target Chain>


> <UniProt (TrEMBL) Entry Name of Target Chain>


> <UniProt (TrEMBL) Primary ID of Target Chain>


> <UniProt (TrEMBL) Secondary ID(s) of Target Chain>


> <UniProt (TrEMBL) Alternative ID(s) of Target Chain>


$$$$
 
     RDKit          2D

 57 65  0  0  0  0  0  0  0  0999 V2000
    3.3747    1.0117    0.0000 C   0  0  0  0  0  0  0  0  0  0  0  0
    4.0891    0.5990    0.0000 C   0  0  0  0  0  0  0  0  0  0  0  0
    4.0891   -0.2256    0.0000 C   0  0  0  0  0  0  0  0  0  0  0  0
    4.8037   -0.6381    0.0000 C   0  0  0  0  0  0  0  0  0  0  0  0
    4.9752   -1.4453    0.0000 C   0  0  0  0  0  0  0  0  0  0  0  0
    5.7957   -1.5315    0.0000 N   0  0  0  0  0  0  0  0  0  0  0  0
    6.2082   -2.2458    0.0000 C   0  0  0  0  0  0  0  0  0  0  0  0
    5.7957   -2.9604    0.0000 C   0  0  0  0  0  0  0  0  0  0  0  0
    4.9707   -2.9604    0.0000 O   0  0  0  0  0  0  0  0  0  0  0  0
    6.2082   -3.6750    0.0000 N   0  0  0  0  0  0  0  0  0  0  0  0
    7.0332   -3.6750    0.0000 C   0  0  0  0  0  0  0  0  0  0  0  0
    7.4458   -4.3894    0.0000 O   0  0  0  0  0  0  0  0  0  0  0  0
    7.4458   -2.9604    0.0000 C   0  0  0  0  0  0  0  0  0  0  0  0
    7.0332   -2.2458    0.0000 C   0  0  0  0  0  0  0  0  0  0  0  0
    6.1313   -0.7776    0.0000 C   0  0  0  0  0  0  0  0  0  0  0  0
    6.9383   -0.6062    0.0000 O   0  0  0  0  0  0  0  0  0  0  0  0
    5.5182   -0.2256    0.0000 C   0  0  0  0  0  0  0  0  0  0  0  0
    5.5182    0.5990    0.0000 C   0  0  0  0  0  0  0  0  0  0  0  0
    4.8037    1.0117    0.0000 C   0  0  0  0  0  0  0  0  0  0  0  0
    1.9453    1.0117    0.0000 C   0  0  0  0  0  0  0  0  0  0  0  0
    2.6600    0.5990    0.0000 C   0  0  0  0  0  0  0  0  0  0  0  0
    3.3747    1.8369    0.0000 C   0  0  0  0  0  0  0  0  0  0  0  0
    2.6600    2.2495    0.0000 C   0  0  0  0  0  0  0  0  0  0  0  0
    1.9453    1.8369    0.0000 N   0  0  0  0  0  0  0  0  0  0  0  0
   -2.6375    2.0078    0.0000 O   0  0  0  0  0  0  0  0  0  0  0  0
   -4.7481    3.2979    0.0000 C   0  0  0  0  0  0  0  0  0  0  0  0
   -4.7359    4.1227    0.0000 N   0  0  0  0  0  0  0  0  0  0  0  0
   -5.5167    4.3894    0.0000 N   0  0  0  0  0  0  0  0  0  0  0  0
   -6.8365    3.7416    0.0000 C   0  0  0  0  0  0  0  0  0  0  0  0
   -6.0115    3.7293    0.0000 C   0  0  0  0  0  0  0  0  0  0  0  0
   -5.5367    3.0546    0.0000 N   0  0  0  0  0  0  0  0  0  0  0  0
   -5.8381    2.2867    0.0000 C   0  0  0  0  0  0  0  0  0  0  0  0
   -6.6451    2.1151    0.0000 S   0  0  0  0  0  0  0  0  0  0  0  0
   -7.4458    0.8820    0.0000 C   0  0  0  0  0  0  0  0  0  0  0  0
   -6.7313    1.2946    0.0000 C   0  0  0  0  0  0  0  0  0  0  0  0
   -5.8061    0.1521    0.0000 C   0  0  0  0  0  0  0  0  0  0  0  0
   -5.9774    0.9589    0.0000 C   0  0  0  0  0  0  0  0  0  0  0  0
   -5.4255    1.5720    0.0000 C   0  0  0  0  0  0  0  0  0  0  0  0
   -3.5620    0.4771    0.0000 C   0  0  0  0  0  0  0  0  0  0  0  0
   -3.3190   -0.3109    0.0000 C   0  0  0  0  0  0  0  0  0  0  0  0
   -3.6370   -1.7041    0.0000 Cl  0  0  0  0  0  0  0  0  0  0  0  0
   -3.8802   -0.9158    0.0000 C   0  0  0  0  0  0  0  0  0  0  0  0
   -4.6845   -0.7322    0.0000 C   0  0  0  0  0  0  0  0  0  0  0  0
   -4.9277    0.0561    0.0000 C   0  0  0  0  0  0  0  0  0  0  0  0
   -4.3666    0.6606    0.0000 C   0  0  0  0  0  0  0  0  0  0  0  0
   -4.6097    1.4492    0.0000 C   0  0  0  0  0  0  0  0  0  0  0  0
   -4.0050    2.0102    0.0000 N   0  0  0  0  0  0  0  0  0  0  0  0
   -4.0666    2.8330    0.0000 C   0  0  0  0  0  0  0  0  0  0  0  0
   -3.3521    3.2455    0.0000 C   0  0  0  0  0  0  0  0  0  0  0  0
   -2.6375    2.8330    0.0000 C   0  0  0  0  0  0  0  0  0  0  0  0
   -1.9230    3.2455    0.0000 N   0  0  0  0  0  0  0  0  0  0  0  0
   -1.2087    2.8330    0.0000 C   0  0  0  0  0  0  0  0  0  0  0  0
   -0.4941    3.2455    0.0000 C   0  0  0  0  0  0  0  0  0  0  0  0
    0.4337    2.0360    0.0000 C   0  0  0  0  0  0  0  0  0  0  0  0
    0.2202    2.8330    0.0000 N   0  0  0  0  0  0  0  0  0  0  0  0
    1.0170    3.0465    0.0000 C   0  0  0  0  0  0  0  0  0  0  0  0
    1.2306    2.2495    0.0000 C   0  0  0  0  0  0  0  0  0  0  0  0
  1  2  1  0
  2  3  1  0
  3  4  2  0
  4  5  1  0
  6  5  1  0
  6  7  1  0
  7  8  1  0
  8  9  2  0
  8 10  1  0
 10 11  1  0
 11 12  2  0
 11 13  1  0
 13 14  1  0
 14  7  1  0
 15  6  1  0
 15 16  2  0
 17 15  1  0
  4 17  1  0
 17 18  2  0
 18 19  1  0
 19  2  2  0
 20 21  1  0
 21  1  1  0
  1 22  1  0
 22 23  1  0
 23 24  1  0
 24 20  1  0
 26 27  2  0
 28 27  1  0
 30 29  1  0
 30 28  2  0
 31 30  1  0
 26 31  1  0
 31 32  1  0
 32 33  1  0
 35 34  1  0
 35 33  1  0
 37 36  1  0
 37 35  2  0
 38 37  1  0
 38 32  2  0
 40 39  1  0
 42 41  1  0
 42 40  2  0
 43 42  1  0
 44 43  2  0
 45 44  1  0
 39 45  2  0
 46 45  1  0
 46 38  1  0
 47 46  2  0
 48 47  1  0
 26 48  1  0
 48 49  1  6
 50 49  1  0
 50 25  2  0
 50 51  1  0
 51 52  1  0
 52 53  1  0
 55 54  1  0
 55 53  1  0
 55 56  1  0
 57 56  1  0
 54 57  1  0
 57 24  1  0
M  END
> <From>
www.bindingDB.org

> <BindingDB Reactant_set_id>
51570547

> <Ligand InChI>
InChI=1S/C42H46ClN9O4S/c1-23-24(2)57-42-37(23)38(27-4-7-30(43)8-5-27)45-33(39-48-47-25(3)52(39)42)19-36(54)44-14-17-49-21-31(22-49)50-15-12-26(13-16-50)28-6-9-32-29(18-28)20-51(41(32)56)34-10-11-35(53)46-40(34)55/h4-9,18,26,31,33-34H,10-17,19-22H2,1-3H3,(H,44,54)(H,46,53,55)/t33-,34?/m0/s1

> <Ligand InChI Key>
LHUVKOFLIPGEIS-CDRRMRQFSA-N

> <BindingDB MonomerID>
50631636

> <BindingDB Ligand Name>
CHEMBL5421315

> <Target Name>
Protein cereblon

> <Target Source Organism According to Curator or DataSource>
Homo sapiens

> <Ki (nM)>


> <IC50 (nM)>
 10

> <Kd (nM)>


> <EC50 (nM)>


> <kon (M-1-s-1)>


> <koff (s-1)>


> <pH>


> <Temp C>


> <Curation/DataSource>
ChEMBL

> <Article DOI>
10.1021/acs.jmedchem.3c01613

> <BindingDB Entry DOI>
10.7270/Q2T1583Z

> <PMID>
38096359

> <PubChem AID>


> <Patent Number>


> <Authors>
Arndt, CM; Bitai, J; Brunner, J; Opatz, T; Martinelli, P; Gollner, A; Sokol, KR; Krumb, M

> <Date of publication>
12/28/2023

> <Date in BindingDB>
12/21/2024

> <Institution>
Boehringer Ingelheim Rcv

> <Link to Ligand in BindingDB>
http://www.bindingdb.org/bind/chemsearch/marvin/MolStructure.jsp?monomerid=50631636

> <Link to Ligand-Target Pair in BindingDB>
http://www.bindingdb.org/jsp/dbsearch/PrimarySearch_ki.jsp?energyterm=kJ/mole&tag=pol&polymerid=50007050&target=Protein+cereblon&column=ki&startPg=0&Increment=50&submit=Search

> <Link to Ligand-Target Pair in BindingDB>
http://www.bindingdb.org/jsp/dbsearch/PrimarySearch_ki.jsp?energyterm=kJ/mole&tag=r21&monomerid=50631636&enzyme=Protein+cereblon&column=ki&startPg=0&Increment=50&submit=Search

> <Ligand HET ID in PDB>


> <PDB ID(s) for Ligand-Target Complex>


> <PubChem CID of Ligand>
172457373

> <PubChem SID of Ligand>
505035970

> <ChEBI ID of Ligand>


> <ChEMBL ID of Ligand>


> <DrugBank ID of Ligand>


> <IUPHAR_GRAC ID of Ligand>


> <KEGG ID of Ligand>


> <ZINC ID of Ligand>


> <Number of Protein Chains in Target (bigger than 1 implies a multichain complex)>
1

> <BindingDB Target Chain Sequence>
MAGEGDQQDAAHNMGNHLPLLPAESEEEDEMEVEDQDSKEAKKPNIINFDTSLPTSHTYLGADMEEFHGRTLHDDDSCQVIPVLPQVMMILIPGQTLPLQLFHPQEVSMVRNLIQKDRTFAVLAYSNVQEREAQFGTTAEIYAYREEQDFGIEIVKVKAIGRQRFKVLELRTQSDGIQQAKVQILPECVLPSTMSAVQLESLNKCQIFPSKPVSREDQCSYKWWQKYQKRKFHCANLTSWPRWLYSLYDAETLMDRIKKQLREWDENLKDDSLPSNPIDFSYRVAACLPIDDVLRIQLLKIGSAIQRLRCELDIMNKCTSLCCKQCQETEITTKNEIFSLSLCGPMAAYVNPHGYVHETLTVYKACNLNLIGRPSTEHSWFPGYAWTVAQCKICASHIGWKFTATKKDMSPQKFWGLTRSALLPTIPDTEDEISPDKVILCL

> <PDB ID(s) of Target Chain>
8TNR,8TNQ,8TNP,8D81,8D80,8D7Z,8D7Y,8D7X,8D7W,8D7V,8D7U,8CVP,9DQD,8UH6,6BOY,6BNB,6BN9,6BN8,6BN7,6XK9,6UML,5V3O,5HXB,7U8F,8OJH,8OIZ,7LPS,4TZ4,9DJX,9DJT,8U17,8U16,8U15,8TZX,8DEY,9CUO,4M91

> <UniProt (SwissProt) Recommended Name of Target Chain>
Protein cereblon

> <UniProt (SwissProt) Entry Name of Target Chain>
CRBN_HUMAN

> <UniProt (SwissProt) Primary ID of Target Chain>
Q96SW2

> <UniProt (SwissProt) Secondary ID(s) of Target Chain>
B2R6H4 C9IZA9 C9JAH6 Q6AI62 Q6NVZ0 Q9UHW4

> <UniProt (SwissProt) Alternative ID(s) of Target Chain>


> <UniProt (TrEMBL) Submitted Name of Target Chain>


> <UniProt (TrEMBL) Entry Name of Target Chain>


> <UniProt (TrEMBL) Primary ID of Target Chain>


> <UniProt (TrEMBL) Secondary ID(s) of Target Chain>


> <UniProt (TrEMBL) Alternative ID(s) of Target Chain>


$$$$

     RDKit          2D

 62 70  0  0  0  0  0  0  0  0999 V2000
   -1.5639    5.4635    0.0000 C   0  0  0  0  0  0  0  0  0  0  0  0
   -0.0967    5.1517    0.0000 C   0  0  0  0  0  0  0  0  0  0  0  0
    1.3705    4.8398    0.0000 C   0  0  0  0  0  0  0  0  0  0  0  0
    0.2152    6.6189    0.0000 O   0  0  0  0  0  0  0  0  0  0  0  0
   -0.4086    3.6844    0.0000 C   0  0  0  0  0  0  0  0  0  0  0  0
    0.7062    2.6807    0.0000 C   0  0  0  0  0  0  0  0  0  0  0  0
    0.3943    1.2135    0.0000 C   0  0  0  0  0  0  0  0  0  0  0  0
    1.2760    0.0000    0.0000 N   0  0  0  0  0  0  0  0  0  0  0  0
    0.3943   -1.2135    0.0000 N   0  0  0  0  0  0  0  0  0  0  0  0
    0.8578   -2.6401    0.0000 C   0  0  0  0  0  0  0  0  0  0  0  0
   -0.1459   -3.7548    0.0000 C   0  0  0  0  0  0  0  0  0  0  0  0
    0.3177   -5.1814    0.0000 C   0  0  0  0  0  0  0  0  0  0  0  0
    1.7849   -5.4933    0.0000 C   0  0  0  0  0  0  0  0  0  0  0  0
    2.2484   -6.9199    0.0000 C   0  0  0  0  0  0  0  0  0  0  0  0
    1.2447   -8.0346    0.0000 N   0  0  0  0  0  0  0  0  0  0  0  0
   -0.2225   -7.7227    0.0000 C   0  0  0  0  0  0  0  0  0  0  0  0
   -1.2262   -8.8374    0.0000 C   0  0  0  0  0  0  0  0  0  0  0  0
   -0.7627  -10.2640    0.0000 C   0  0  0  0  0  0  0  0  0  0  0  0
    0.7045  -10.5759    0.0000 C   0  0  0  0  0  0  0  0  0  0  0  0
    1.7082   -9.4612    0.0000 C   0  0  0  0  0  0  0  0  0  0  0  0
   -2.2606  -10.3425    0.0000 C   0  0  0  0  0  0  0  0  0  0  0  0
   -2.1821  -11.8405    0.0000 C   0  0  0  0  0  0  0  0  0  0  0  0
   -3.1858  -12.9552    0.0000 N   0  0  0  0  0  0  0  0  0  0  0  0
   -4.6530  -12.6433    0.0000 C   0  0  0  0  0  0  0  0  0  0  0  0
   -5.1166  -11.2167    0.0000 C   0  0  0  0  0  0  0  0  0  0  0  0
   -6.5838  -10.9049    0.0000 C   0  0  0  0  0  0  0  0  0  0  0  0
   -7.5875  -12.0196    0.0000 C   0  0  0  0  0  0  0  0  0  0  0  0
   -7.1240  -13.4462    0.0000 C   0  0  0  0  0  0  0  0  0  0  0  0
   -5.6567  -13.7580    0.0000 C   0  0  0  0  0  0  0  0  0  0  0  0
   -5.4999  -15.2498    0.0000 C   0  0  0  0  0  0  0  0  0  0  0  0
   -4.2009  -15.9998    0.0000 O   0  0  0  0  0  0  0  0  0  0  0  0
   -6.8703  -15.8599    0.0000 N   0  0  0  0  0  0  0  0  0  0  0  0
   -7.1821  -17.3271    0.0000 C   0  0  0  0  0  0  0  0  0  0  0  0
   -8.6087  -17.7907    0.0000 C   0  0  0  0  0  0  0  0  0  0  0  0
   -8.9206  -19.2579    0.0000 C   0  0  0  0  0  0  0  0  0  0  0  0
   -7.8059  -20.2616    0.0000 C   0  0  0  0  0  0  0  0  0  0  0  0
   -8.1177  -21.7288    0.0000 O   0  0  0  0  0  0  0  0  0  0  0  0
   -6.3793  -19.7981    0.0000 N   0  0  0  0  0  0  0  0  0  0  0  0
   -6.0674  -18.3308    0.0000 C   0  0  0  0  0  0  0  0  0  0  0  0
   -4.6408  -17.8673    0.0000 O   0  0  0  0  0  0  0  0  0  0  0  0
   -7.8740  -14.7452    0.0000 C   0  0  0  0  0  0  0  0  0  0  0  0
   -9.3657  -14.9020    0.0000 O   0  0  0  0  0  0  0  0  0  0  0  0
   -0.6842  -11.7620    0.0000 C   0  0  0  0  0  0  0  0  0  0  0  0
    2.7886   -4.3786    0.0000 C   0  0  0  0  0  0  0  0  0  0  0  0
    2.3250   -2.9520    0.0000 C   0  0  0  0  0  0  0  0  0  0  0  0
   -1.0323   -0.7500    0.0000 C   0  0  0  0  0  0  0  0  0  0  0  0
   -1.0323    0.7500    0.0000 C   0  0  0  0  0  0  0  0  0  0  0  0
   -2.1470    1.7537    0.0000 C   0  0  0  0  0  0  0  0  0  0  0  0
   -1.8351    3.2209    0.0000 C   0  0  0  0  0  0  0  0  0  0  0  0
   -2.9499    4.2246    0.0000 N   0  0  0  0  0  0  0  0  0  0  0  0
   -4.3764    3.7611    0.0000 C   0  0  0  0  0  0  0  0  0  0  0  0
   -4.6883    2.2939    0.0000 O   0  0  0  0  0  0  0  0  0  0  0  0
   -5.4912    4.7648    0.0000 C   0  0  0  0  0  0  0  0  0  0  0  0
   -5.1793    6.2320    0.0000 C   0  0  0  0  0  0  0  0  0  0  0  0
   -6.2940    7.2357    0.0000 C   0  0  0  0  0  0  0  0  0  0  0  0
   -7.7206    6.7722    0.0000 C   0  0  0  0  0  0  0  0  0  0  0  0
   -8.0325    5.3050    0.0000 C   0  0  0  0  0  0  0  0  0  0  0  0
   -9.4590    4.8414    0.0000 C   0  0  0  0  0  0  0  0  0  0  0  0
  -10.8856    4.3779    0.0000 F   0  0  0  0  0  0  0  0  0  0  0  0
   -9.9226    6.2680    0.0000 F   0  0  0  0  0  0  0  0  0  0  0  0
   -8.9955    3.4148    0.0000 F   0  0  0  0  0  0  0  0  0  0  0  0
   -6.9177    4.3013    0.0000 N   0  0  0  0  0  0  0  0  0  0  0  0
  1  2  1  0
  2  3  1  0
  2  4  1  0
  2  5  1  0
  5  6  2  0
  6  7  1  0
  7  8  2  0
  8  9  1  0
 10  9  1  6
 10 11  1  0
 11 12  1  0
 12 13  1  0
 13 14  1  1
 14 15  1  0
 15 16  1  0
 16 17  1  0
 17 18  1  0
 18 19  1  0
 19 20  1  0
 18 21  1  0
 21 22  1  0
 22 23  1  0
 23 24  1  0
 24 25  2  0
 25 26  1  0
 26 27  2  0
 27 28  1  0
 28 29  2  0
 29 30  1  0
 30 31  2  0
 30 32  1  0
 32 33  1  0
 33 34  1  0
 34 35  1  0
 35 36  1  0
 36 37  2  0
 36 38  1  0
 38 39  1  0
 39 40  2  0
 32 41  1  0
 41 42  2  0
 22 43  1  0
 13 44  1  0
 44 45  1  0
  9 46  1  0
 46 47  2  0
 47 48  1  0
 48 49  2  0
 49 50  1  0
 50 51  1  0
 51 52  2  0
 51 53  1  0
 53 54  2  0
 54 55  1  0
 55 56  2  0
 56 57  1  0
 57 58  1  0
 58 59  1  0
 58 60  1  0
 58 61  1  0
 57 62  2  0
 49  5  1  0
 62 53  1  0
 47  7  1  0
 45 10  1  0
 20 15  1  0
 29 24  1  0
 39 33  1  0
 43 18  1  0
 41 28  1  0
M  END
> <From>
www.bindingDB.org

> <BindingDB Reactant_set_id>
51589164

> <Ligand InChI>
InChI=1S/C45H49F3N8O6/c1-43(2,62)30-20-33-26(19-34(30)51-39(58)32-7-4-8-36(50-32)45(46,47)48)24-55(53-33)28-11-9-25(10-12-28)23-54-17-15-44(16-18-54)21-27(22-44)49-31-6-3-5-29-38(31)42(61)56(41(29)60)35-13-14-37(57)52-40(35)59/h3-8,19-20,24-25,27-28,35,49,62H,9-18,21-23H2,1-2H3,(H,51,58)(H,52,57,59)

> <Ligand InChI Key>
DLTLPZXACUDKBE-UHFFFAOYSA-N

> <BindingDB MonomerID>
50639847

> <BindingDB Ligand Name>
CHEMBL5564381

> <Target Name>
Protein cereblon

> <Target Source Organism According to Curator or DataSource>
Human

> <Ki (nM)>


> <IC50 (nM)>
 10.0

> <Kd (nM)>


> <EC50 (nM)>


> <kon (M-1-s-1)>


> <koff (s-1)>


> <pH>


> <Temp C>


> <Curation/DataSource>
ChEMBL

> <Article DOI>


> <BindingDB Entry DOI>
10.7270/Q23F4V8G

> <PMID>
38920289

> <PubChem AID>


> <Patent Number>


> <Authors>
Weiss, MM; Zheng, X; Ji, N; Browne, CM; Campbell, V; Chen, D; Enerson, B; Fei, X; Huang, X; Klaus, CR; Li, H; Mayo, M; McDonald, AA; Paul, A; Rong, H; Sharma, K; Shi, Y; Slavin, A; Walther, DM; Yuan, K; Zhang, Y; Zhu, X; Kelleher, J; Walker, D; Mainolfi, N

> <Date of publication>
//0

> <Date in BindingDB>
10/11/2025

> <Institution>
Kymera Therapeutics

> <Link to Ligand in BindingDB>
http://www.bindingdb.org/bind/chemsearch/marvin/MolStructure.jsp?monomerid=50639847

> <Link to Ligand-Target Pair in BindingDB>
http://www.bindingdb.org/rwd/jsp/dbsearch/PrimarySearch_ki.jsp?energyterm=kJ/mole&tag=pol&polymerid=50007050&target=Protein+cereblon&column=ki&startPg=0&Increment=50&submit=Search

> <Link to Ligand-Target Pair in BindingDB>
http://www.bindingdb.org/rwd/jsp/dbsearch/PrimarySearch_ki.jsp?energyterm=kJ/mole&tag=r21&monomerid=50639847&enzyme=Protein+cereblon&column=ki&startPg=0&Increment=50&submit=Search

> <Ligand HET ID in PDB>


> <PDB ID(s) for Ligand-Target Complex>


> <PubChem CID of Ligand>
155449220

> <PubChem SID of Ligand>
519660250

> <ChEBI ID of Ligand>


> <ChEMBL ID of Ligand>


> <DrugBank ID of Ligand>


> <IUPHAR_GRAC ID of Ligand>


> <KEGG ID of Ligand>


> <ZINC ID of Ligand>


> <Number of Protein Chains in Target (bigger than 1 implies a multichain complex)>
1

> <BindingDB Target Chain Sequence>
MAGEGDQQDAAHNMGNHLPLLPAESEEEDEMEVEDQDSKEAKKPNIINFDTSLPTSHTYLGADMEEFHGRTLHDDDSCQVIPVLPQVMMILIPGQTLPLQLFHPQEVSMVRNLIQKDRTFAVLAYSNVQEREAQFGTTAEIYAYREEQDFGIEIVKVKAIGRQRFKVLELRTQSDGIQQAKVQILPECVLPSTMSAVQLESLNKCQIFPSKPVSREDQCSYKWWQKYQKRKFHCANLTSWPRWLYSLYDAETLMDRIKKQLREWDENLKDDSLPSNPIDFSYRVAACLPIDDVLRIQLLKIGSAIQRLRCELDIMNKCTSLCCKQCQETEITTKNEIFSLSLCGPMAAYVNPHGYVHETLTVYKACNLNLIGRPSTEHSWFPGYAWTVAQCKICASHIGWKFTATKKDMSPQKFWGLTRSALLPTIPDTEDEISPDKVILCL

> <PDB ID(s) of Target Chain>
9DUR,8TNR,8TNQ,8TNP,9DWW,9DWV,9NGT,9NFR,9NFQ,8D81,8D80,8D7Z,8D7Y,8D7X,8D7W,8D7V,8D7U,8CVP,9Q2D,9Q03,9DQD,8UH6,9SAI,9SAF,9H59,9E2U,6BOY,6BNB,6BN9,6BN8,6BN7,9OUL,9Y7D,6XK9,6UML,5V3O,5HXB,9HNE,9D0X,9D0W,7U8F,9FJX,8OJH,8OIZ,7LPS,9SFM,9OTY,4TZ4,9DJX,9DJT,8U17,8U16,8U15,8TZX,8DEY,9CUO,4M91

> <UniProt (SwissProt) Recommended Name of Target Chain>
Protein cereblon

> <UniProt (SwissProt) Entry Name of Target Chain>
CRBN_HUMAN

> <UniProt (SwissProt) Primary ID of Target Chain>
Q96SW2

> <UniProt (SwissProt) Secondary ID(s) of Target Chain>
B2R6H4 C9IZA9 C9JAH6 Q6AI62 Q6NVZ0 Q9UHW4

> <UniProt (SwissProt) Alternative ID(s) of Target Chain>


> <UniProt (TrEMBL) Submitted Name of Target Chain>


> <UniProt (TrEMBL) Entry Name of Target Chain>


> <UniProt (TrEMBL) Primary ID of Target Chain>


> <UniProt (TrEMBL) Secondary ID(s) of Target Chain>


> <UniProt (TrEMBL) Alternative ID(s) of Target Chain>


$$$$
 
     RDKit          2D

 56 63  0  0  0  0  0  0  0  0999 V2000
    3.7200    3.3630    0.0000 C   0  0  0  0  0  0  0  0  0  0  0  0
    3.0015    2.9577    0.0000 C   0  0  0  0  0  0  0  0  0  0  0  0
    2.9931    2.1327    0.0000 C   0  0  0  0  0  0  0  0  0  0  0  0
    2.2745    1.7274    0.0000 C   0  0  0  0  0  0  0  0  0  0  0  0
    1.5641    2.1469    0.0000 C   0  0  0  0  0  0  0  0  0  0  0  0
    0.8456    1.7418    0.0000 C   0  0  0  0  0  0  0  0  0  0  0  0
    0.8373    0.9167    0.0000 N   0  0  0  0  0  0  0  0  0  0  0  0
    0.1186    0.5115    0.0000 C   0  0  0  0  0  0  0  0  0  0  0  0
   -0.5916    0.9312    0.0000 C   0  0  0  0  0  0  0  0  0  0  0  0
   -1.3102    0.5259    0.0000 C   0  0  0  0  0  0  0  0  0  0  0  0
   -2.0206    0.9456    0.0000 C   0  0  0  0  0  0  0  0  0  0  0  0
   -2.7392    0.5403    0.0000 C   0  0  0  0  0  0  0  0  0  0  0  0
   -3.4495    0.9599    0.0000 N   0  0  0  0  0  0  0  0  0  0  0  0
   -4.1682    0.5547    0.0000 C   0  0  0  0  0  0  0  0  0  0  0  0
   -4.8784    0.9743    0.0000 C   0  0  0  0  0  0  0  0  0  0  0  0
   -5.5971    0.5689    0.0000 C   0  0  0  0  0  0  0  0  0  0  0  0
   -5.5437   -0.2541    0.0000 N   0  0  0  0  0  0  0  0  0  0  0  0
   -6.1541   -0.8092    0.0000 C   0  0  0  0  0  0  0  0  0  0  0  0
   -5.9189   -1.5999    0.0000 C   0  0  0  0  0  0  0  0  0  0  0  0
   -6.4861   -2.1991    0.0000 C   0  0  0  0  0  0  0  0  0  0  0  0
   -6.2509   -2.9899    0.0000 C   0  0  0  0  0  0  0  0  0  0  0  0
   -5.4484   -3.1816    0.0000 C   0  0  0  0  0  0  0  0  0  0  0  0
   -5.2131   -3.9724    0.0000 Cl  0  0  0  0  0  0  0  0  0  0  0  0
   -4.8812   -2.5825    0.0000 C   0  0  0  0  0  0  0  0  0  0  0  0
   -5.1163   -1.7917    0.0000 C   0  0  0  0  0  0  0  0  0  0  0  0
   -6.9687   -0.6780    0.0000 C   0  0  0  0  0  0  0  0  0  0  0  0
   -7.5269   -1.2855    0.0000 C   0  0  0  0  0  0  0  0  0  0  0  0
   -7.3635   -2.0942    0.0000 C   0  0  0  0  0  0  0  0  0  0  0  0
   -8.2772   -0.9424    0.0000 C   0  0  0  0  0  0  0  0  0  0  0  0
   -8.9957   -1.3476    0.0000 C   0  0  0  0  0  0  0  0  0  0  0  0
   -8.1827   -0.1228    0.0000 S   0  0  0  0  0  0  0  0  0  0  0  0
   -7.3738    0.0405    0.0000 C   0  0  0  0  0  0  0  0  0  0  0  0
   -7.0648    0.8053    0.0000 N   0  0  0  0  0  0  0  0  0  0  0  0
   -7.5329    1.4847    0.0000 C   0  0  0  0  0  0  0  0  0  0  0  0
   -8.3577    1.5055    0.0000 C   0  0  0  0  0  0  0  0  0  0  0  0
   -7.0314    2.1400    0.0000 N   0  0  0  0  0  0  0  0  0  0  0  0
   -6.2534    1.8655    0.0000 N   0  0  0  0  0  0  0  0  0  0  0  0
   -6.2740    1.0406    0.0000 C   0  0  0  0  0  0  0  0  0  0  0  0
   -4.1765   -0.2702    0.0000 O   0  0  0  0  0  0  0  0  0  0  0  0
    1.5475    0.4970    0.0000 C   0  0  0  0  0  0  0  0  0  0  0  0
    2.2662    0.9024    0.0000 C   0  0  0  0  0  0  0  0  0  0  0  0
    3.7034    1.7130    0.0000 C   0  0  0  0  0  0  0  0  0  0  0  0
    4.4221    2.1183    0.0000 C   0  0  0  0  0  0  0  0  0  0  0  0
    5.2042    1.8554    0.0000 C   0  0  0  0  0  0  0  0  0  0  0  0
    5.6958    2.5179    0.0000 N   0  0  0  0  0  0  0  0  0  0  0  0
    6.5208    2.5097    0.0000 C   0  0  0  0  0  0  0  0  0  0  0  0
    6.9260    1.7911    0.0000 C   0  0  0  0  0  0  0  0  0  0  0  0
    6.5064    1.0807    0.0000 O   0  0  0  0  0  0  0  0  0  0  0  0
    7.7511    1.7828    0.0000 N   0  0  0  0  0  0  0  0  0  0  0  0
    8.1708    2.4930    0.0000 C   0  0  0  0  0  0  0  0  0  0  0  0
    8.9957    2.4847    0.0000 O   0  0  0  0  0  0  0  0  0  0  0  0
    7.7655    3.2117    0.0000 C   0  0  0  0  0  0  0  0  0  0  0  0
    6.9404    3.2200    0.0000 C   0  0  0  0  0  0  0  0  0  0  0  0
    5.2176    3.1903    0.0000 C   0  0  0  0  0  0  0  0  0  0  0  0
    5.4804    3.9724    0.0000 O   0  0  0  0  0  0  0  0  0  0  0  0
    4.4304    2.9432    0.0000 C   0  0  0  0  0  0  0  0  0  0  0  0
  1  2  1  0
  2  3  2  0
  4  3  1  0
  4  5  1  0
  5  6  1  0
  6  7  1  0
  8  7  1  0
  9  8  1  0
 10  9  1  0
 11 10  1  0
 12 11  1  0
 13 12  1  0
 14 13  1  0
 14 15  1  0
 16 15  1  6
 16 17  1  0
 17 18  2  0
 18 19  1  0
 19 20  1  0
 20 21  2  0
 21 22  1  0
 22 23  1  0
 22 24  2  0
 24 25  1  0
 25 19  2  0
 18 26  1  0
 26 27  1  0
 27 28  1  0
 27 29  2  0
 29 30  1  0
 29 31  1  0
 32 31  1  0
 26 32  2  0
 33 32  1  0
 33 34  1  0
 34 35  1  0
 34 36  2  0
 36 37  1  0
 38 37  2  0
 38 33  1  0
 38 16  1  0
 14 39  2  0
 40  7  1  0
 40 41  1  0
  4 41  1  0
  3 42  1  0
 42 43  2  0
 43 44  1  0
 45 44  1  0
 45 46  1  0
 46 47  1  0
 47 48  2  0
 47 49  1  0
 49 50  1  0
 50 51  2  0
 50 52  1  0
 52 53  1  0
 53 46  1  0
 54 45  1  0
 54 55  2  0
 56 54  1  0
 43 56  1  0
 56  1  2  0
M  END
> <From>
www.bindingDB.org

> <BindingDB Reactant_set_id>
51570537

> <Ligand InChI>
InChI=1S/C42H47ClN8O4S/c1-24-25(2)56-42-37(24)38(28-7-10-31(43)11-8-28)45-33(39-48-47-26(3)51(39)42)22-36(53)44-17-5-4-6-18-49-19-15-27(16-20-49)29-9-12-32-30(21-29)23-50(41(32)55)34-13-14-35(52)46-40(34)54/h7-12,21,27,33-34H,4-6,13-20,22-23H2,1-3H3,(H,44,53)(H,46,52,54)/t33-,34?/m0/s1

> <Ligand InChI Key>
OJBZGRZGVKAUHH-CDRRMRQFSA-N

> <BindingDB MonomerID>
50631626

> <BindingDB Ligand Name>
CHEMBL5394571

> <Target Name>
Protein cereblon

> <Target Source Organism According to Curator or DataSource>
Homo sapiens

> <Ki (nM)>


> <IC50 (nM)>
 11

> <Kd (nM)>


> <EC50 (nM)>


> <kon (M-1-s-1)>


> <koff (s-1)>


> <pH>


> <Temp C>


> <Curation/DataSource>
ChEMBL

> <Article DOI>
10.1021/acs.jmedchem.3c01613

> <BindingDB Entry DOI>
10.7270/Q2T1583Z

> <PMID>
38096359

> <PubChem AID>


> <Patent Number>


> <Authors>
Arndt, CM; Bitai, J; Brunner, J; Opatz, T; Martinelli, P; Gollner, A; Sokol, KR; Krumb, M

> <Date of publication>
12/28/2023

> <Date in BindingDB>
12/21/2024

> <Institution>
Boehringer Ingelheim Rcv

> <Link to Ligand in BindingDB>
http://www.bindingdb.org/bind/chemsearch/marvin/MolStructure.jsp?monomerid=50631626

> <Link to Ligand-Target Pair in BindingDB>
http://www.bindingdb.org/jsp/dbsearch/PrimarySearch_ki.jsp?energyterm=kJ/mole&tag=pol&polymerid=50007050&target=Protein+cereblon&column=ki&startPg=0&Increment=50&submit=Search

> <Link to Ligand-Target Pair in BindingDB>
http://www.bindingdb.org/jsp/dbsearch/PrimarySearch_ki.jsp?energyterm=kJ/mole&tag=r21&monomerid=50631626&enzyme=Protein+cereblon&column=ki&startPg=0&Increment=50&submit=Search

> <Ligand HET ID in PDB>


> <PDB ID(s) for Ligand-Target Complex>


> <PubChem CID of Ligand>
172439829

> <PubChem SID of Ligand>
505035960

> <ChEBI ID of Ligand>


> <ChEMBL ID of Ligand>


> <DrugBank ID of Ligand>


> <IUPHAR_GRAC ID of Ligand>


> <KEGG ID of Ligand>


> <ZINC ID of Ligand>


> <Number of Protein Chains in Target (bigger than 1 implies a multichain complex)>
1

> <BindingDB Target Chain Sequence>
MAGEGDQQDAAHNMGNHLPLLPAESEEEDEMEVEDQDSKEAKKPNIINFDTSLPTSHTYLGADMEEFHGRTLHDDDSCQVIPVLPQVMMILIPGQTLPLQLFHPQEVSMVRNLIQKDRTFAVLAYSNVQEREAQFGTTAEIYAYREEQDFGIEIVKVKAIGRQRFKVLELRTQSDGIQQAKVQILPECVLPSTMSAVQLESLNKCQIFPSKPVSREDQCSYKWWQKYQKRKFHCANLTSWPRWLYSLYDAETLMDRIKKQLREWDENLKDDSLPSNPIDFSYRVAACLPIDDVLRIQLLKIGSAIQRLRCELDIMNKCTSLCCKQCQETEITTKNEIFSLSLCGPMAAYVNPHGYVHETLTVYKACNLNLIGRPSTEHSWFPGYAWTVAQCKICASHIGWKFTATKKDMSPQKFWGLTRSALLPTIPDTEDEISPDKVILCL

> <PDB ID(s) of Target Chain>
8TNR,8TNQ,8TNP,8D81,8D80,8D7Z,8D7Y,8D7X,8D7W,8D7V,8D7U,8CVP,9DQD,8UH6,6BOY,6BNB,6BN9,6BN8,6BN7,6XK9,6UML,5V3O,5HXB,7U8F,8OJH,8OIZ,7LPS,4TZ4,9DJX,9DJT,8U17,8U16,8U15,8TZX,8DEY,9CUO,4M91

> <UniProt (SwissProt) Recommended Name of Target Chain>
Protein cereblon

> <UniProt (SwissProt) Entry Name of Target Chain>
CRBN_HUMAN

> <UniProt (SwissProt) Primary ID of Target Chain>
Q96SW2

> <UniProt (SwissProt) Secondary ID(s) of Target Chain>
B2R6H4 C9IZA9 C9JAH6 Q6AI62 Q6NVZ0 Q9UHW4

> <UniProt (SwissProt) Alternative ID(s) of Target Chain>


> <UniProt (TrEMBL) Submitted Name of Target Chain>


> <UniProt (TrEMBL) Entry Name of Target Chain>


> <UniProt (TrEMBL) Primary ID of Target Chain>


> <UniProt (TrEMBL) Secondary ID(s) of Target Chain>


> <UniProt (TrEMBL) Alternative ID(s) of Target Chain>


$$$$
 
     RDKit          2D

 52 59  0  0  0  0  0  0  0  0999 V2000
   -2.7411    1.4984    0.0000 C   0  0  0  0  0  0  0  0  0  0  0  0
   -2.0283    1.9138    0.0000 N   0  0  0  0  0  0  0  0  0  0  0  0
   -3.4573    1.9080    0.0000 C   0  0  0  0  0  0  0  0  0  0  0  0
   -4.1701    1.4925    0.0000 C   0  0  0  0  0  0  0  0  0  0  0  0
   -4.1051    0.6701    0.0000 N   0  0  0  0  0  0  0  0  0  0  0  0
   -4.7076    0.1064    0.0000 C   0  0  0  0  0  0  0  0  0  0  0  0
   -4.4611   -0.6808    0.0000 C   0  0  0  0  0  0  0  0  0  0  0  0
   -5.0199   -1.2879    0.0000 C   0  0  0  0  0  0  0  0  0  0  0  0
   -4.7735   -2.0752    0.0000 C   0  0  0  0  0  0  0  0  0  0  0  0
   -3.9684   -2.2556    0.0000 C   0  0  0  0  0  0  0  0  0  0  0  0
   -3.7220   -3.0430    0.0000 Cl  0  0  0  0  0  0  0  0  0  0  0  0
   -3.4097   -1.6485    0.0000 C   0  0  0  0  0  0  0  0  0  0  0  0
   -3.6561   -0.8610    0.0000 C   0  0  0  0  0  0  0  0  0  0  0  0
   -5.5237    0.2261    0.0000 C   0  0  0  0  0  0  0  0  0  0  0  0
   -6.0735   -0.3892    0.0000 C   0  0  0  0  0  0  0  0  0  0  0  0
   -5.8986   -1.1954    0.0000 C   0  0  0  0  0  0  0  0  0  0  0  0
   -6.8285   -0.0567    0.0000 C   0  0  0  0  0  0  0  0  0  0  0  0
   -7.5414   -0.4721    0.0000 C   0  0  0  0  0  0  0  0  0  0  0  0
   -6.7456    0.7641    0.0000 S   0  0  0  0  0  0  0  0  0  0  0  0
   -5.9394    0.9389    0.0000 C   0  0  0  0  0  0  0  0  0  0  0  0
   -5.6410    1.7081    0.0000 N   0  0  0  0  0  0  0  0  0  0  0  0
   -6.1186    2.3809    0.0000 C   0  0  0  0  0  0  0  0  0  0  0  0
   -6.9437    2.3898    0.0000 C   0  0  0  0  0  0  0  0  0  0  0  0
   -5.6266    3.0430    0.0000 N   0  0  0  0  0  0  0  0  0  0  0  0
   -4.8446    2.7795    0.0000 N   0  0  0  0  0  0  0  0  0  0  0  0
   -4.8536    1.9545    0.0000 C   0  0  0  0  0  0  0  0  0  0  0  0
   -2.7376    0.6734    0.0000 O   0  0  0  0  0  0  0  0  0  0  0  0
   -1.3119    1.5041    0.0000 C   0  0  0  0  0  0  0  0  0  0  0  0
   -0.5987    1.9195    0.0000 C   0  0  0  0  0  0  0  0  0  0  0  0
    0.1150    1.5103    0.0000 C   0  0  0  0  0  0  0  0  0  0  0  0
    0.1184    0.6848    0.0000 C   0  0  0  0  0  0  0  0  0  0  0  0
   -0.5901    0.2700    0.0000 C   0  0  0  0  0  0  0  0  0  0  0  0
   -1.3085    0.6753    0.0000 C   0  0  0  0  0  0  0  0  0  0  0  0
    0.8330    0.2722    0.0000 C   0  0  0  0  0  0  0  0  0  0  0  0
    1.5479    0.6848    0.0000 C   0  0  0  0  0  0  0  0  0  0  0  0
    1.5481    1.5102    0.0000 C   0  0  0  0  0  0  0  0  0  0  0  0
    2.2611    1.9209    0.0000 C   0  0  0  0  0  0  0  0  0  0  0  0
    2.9759    1.5082    0.0000 C   0  0  0  0  0  0  0  0  0  0  0  0
    2.9775    0.6870    0.0000 C   0  0  0  0  0  0  0  0  0  0  0  0
    2.2656    0.2705    0.0000 C   0  0  0  0  0  0  0  0  0  0  0  0
    3.7589    0.4347    0.0000 C   0  0  0  0  0  0  0  0  0  0  0  0
    3.7564    1.7634    0.0000 C   0  0  0  0  0  0  0  0  0  0  0  0
    4.2403    1.1000    0.0000 N   0  0  0  0  0  0  0  0  0  0  0  0
    3.9700    2.5605    0.0000 O   0  0  0  0  0  0  0  0  0  0  0  0
    5.0656    1.1000    0.0000 C   0  0  0  0  0  0  0  0  0  0  0  0
    5.4782    1.8146    0.0000 C   0  0  0  0  0  0  0  0  0  0  0  0
    6.3034    1.8146    0.0000 C   0  0  0  0  0  0  0  0  0  0  0  0
    6.7161    1.0999    0.0000 C   0  0  0  0  0  0  0  0  0  0  0  0
    6.3034    0.3852    0.0000 N   0  0  0  0  0  0  0  0  0  0  0  0
    5.4782    0.3852    0.0000 C   0  0  0  0  0  0  0  0  0  0  0  0
    5.0656   -0.3294    0.0000 O   0  0  0  0  0  0  0  0  0  0  0  0
    7.5414    1.0999    0.0000 O   0  0  0  0  0  0  0  0  0  0  0  0
  1  2  1  0
  1  3  1  0
  4  3  1  6
  4  5  1  0
  5  6  2  0
  6  7  1  0
  7  8  1  0
  8  9  2  0
  9 10  1  0
 10 11  1  0
 10 12  2  0
 12 13  1  0
 13  7  2  0
  6 14  1  0
 14 15  1  0
 15 16  1  0
 15 17  2  0
 17 18  1  0
 17 19  1  0
 20 19  1  0
 14 20  2  0
 21 20  1  0
 21 22  1  0
 22 23  1  0
 22 24  2  0
 24 25  1  0
 26 25  2  0
 26 21  1  0
 26  4  1  0
  1 27  2  0
  2 28  1  0
 29 28  2  0
 30 29  1  0
 31 30  2  0
 32 31  1  0
 33 32  2  0
 28 33  1  0
 31 34  1  0
 34 35  1  0
 36 35  2  0
 37 36  1  0
 38 37  2  0
 39 38  1  0
 40 39  2  0
 35 40  1  0
 39 41  1  0
 38 42  1  0
 42 43  1  0
 43 41  1  0
 42 44  2  0
 43 45  1  0
 46 45  1  0
 47 46  1  0
 48 47  1  0
 49 48  1  0
 50 49  1  0
 45 50  1  0
 50 51  2  0
 48 52  2  0
M  END
> <From>
www.bindingDB.org

> <BindingDB Reactant_set_id>
51570539

> <Ligand InChI>
InChI=1S/C39H34ClN7O4S/c1-20-21(2)52-39-34(20)35(25-7-9-27(40)10-8-25)42-30(36-45-44-22(3)47(36)39)18-33(49)41-28-11-4-23(5-12-28)16-24-6-13-29-26(17-24)19-46(38(29)51)31-14-15-32(48)43-37(31)50/h4-13,17,30-31H,14-16,18-19H2,1-3H3,(H,41,49)(H,43,48,50)/t30-,31?/m0/s1

> <Ligand InChI Key>
NAJLKAMZDMZECA-FSRLHOSWSA-N

> <BindingDB MonomerID>
50631628

> <BindingDB Ligand Name>
CHEMBL5399086

> <Target Name>
Protein cereblon

> <Target Source Organism According to Curator or DataSource>
Homo sapiens

> <Ki (nM)>


> <IC50 (nM)>
 12

> <Kd (nM)>


> <EC50 (nM)>


> <kon (M-1-s-1)>


> <koff (s-1)>


> <pH>


> <Temp C>


> <Curation/DataSource>
ChEMBL

> <Article DOI>
10.1021/acs.jmedchem.3c01613

> <BindingDB Entry DOI>
10.7270/Q2T1583Z

> <PMID>
38096359

> <PubChem AID>


> <Patent Number>


> <Authors>
Arndt, CM; Bitai, J; Brunner, J; Opatz, T; Martinelli, P; Gollner, A; Sokol, KR; Krumb, M

> <Date of publication>
12/28/2023

> <Date in BindingDB>
12/21/2024

> <Institution>
Boehringer Ingelheim Rcv

> <Link to Ligand in BindingDB>
http://www.bindingdb.org/bind/chemsearch/marvin/MolStructure.jsp?monomerid=50631628

> <Link to Ligand-Target Pair in BindingDB>
http://www.bindingdb.org/jsp/dbsearch/PrimarySearch_ki.jsp?energyterm=kJ/mole&tag=pol&polymerid=50007050&target=Protein+cereblon&column=ki&startPg=0&Increment=50&submit=Search

> <Link to Ligand-Target Pair in BindingDB>
http://www.bindingdb.org/jsp/dbsearch/PrimarySearch_ki.jsp?energyterm=kJ/mole&tag=r21&monomerid=50631628&enzyme=Protein+cereblon&column=ki&startPg=0&Increment=50&submit=Search

> <Ligand HET ID in PDB>


> <PDB ID(s) for Ligand-Target Complex>


> <PubChem CID of Ligand>
172439530

> <PubChem SID of Ligand>
505035962

> <ChEBI ID of Ligand>


> <ChEMBL ID of Ligand>


> <DrugBank ID of Ligand>


> <IUPHAR_GRAC ID of Ligand>


> <KEGG ID of Ligand>


> <ZINC ID of Ligand>


> <Number of Protein Chains in Target (bigger than 1 implies a multichain complex)>
1

> <BindingDB Target Chain Sequence>
MAGEGDQQDAAHNMGNHLPLLPAESEEEDEMEVEDQDSKEAKKPNIINFDTSLPTSHTYLGADMEEFHGRTLHDDDSCQVIPVLPQVMMILIPGQTLPLQLFHPQEVSMVRNLIQKDRTFAVLAYSNVQEREAQFGTTAEIYAYREEQDFGIEIVKVKAIGRQRFKVLELRTQSDGIQQAKVQILPECVLPSTMSAVQLESLNKCQIFPSKPVSREDQCSYKWWQKYQKRKFHCANLTSWPRWLYSLYDAETLMDRIKKQLREWDENLKDDSLPSNPIDFSYRVAACLPIDDVLRIQLLKIGSAIQRLRCELDIMNKCTSLCCKQCQETEITTKNEIFSLSLCGPMAAYVNPHGYVHETLTVYKACNLNLIGRPSTEHSWFPGYAWTVAQCKICASHIGWKFTATKKDMSPQKFWGLTRSALLPTIPDTEDEISPDKVILCL

> <PDB ID(s) of Target Chain>
8TNR,8TNQ,8TNP,8D81,8D80,8D7Z,8D7Y,8D7X,8D7W,8D7V,8D7U,8CVP,9DQD,8UH6,6BOY,6BNB,6BN9,6BN8,6BN7,6XK9,6UML,5V3O,5HXB,7U8F,8OJH,8OIZ,7LPS,4TZ4,9DJX,9DJT,8U17,8U16,8U15,8TZX,8DEY,9CUO,4M91

> <UniProt (SwissProt) Recommended Name of Target Chain>
Protein cereblon

> <UniProt (SwissProt) Entry Name of Target Chain>
CRBN_HUMAN

> <UniProt (SwissProt) Primary ID of Target Chain>
Q96SW2

> <UniProt (SwissProt) Secondary ID(s) of Target Chain>
B2R6H4 C9IZA9 C9JAH6 Q6AI62 Q6NVZ0 Q9UHW4

> <UniProt (SwissProt) Alternative ID(s) of Target Chain>


> <UniProt (TrEMBL) Submitted Name of Target Chain>


> <UniProt (TrEMBL) Entry Name of Target Chain>


> <UniProt (TrEMBL) Primary ID of Target Chain>


> <UniProt (TrEMBL) Secondary ID(s) of Target Chain>


> <UniProt (TrEMBL) Alternative ID(s) of Target Chain>


$$$$
134780
  Mrv0541 01031814082D          

 33 37  0  0  1  0            999 V2000
    3.1156   -0.6484    0.0000 O   0  0  0  0  0  0  0  0  0  0  0  0
    5.9927    0.4018    0.0000 O   0  0  0  0  0  0  0  0  0  0  0  0
    4.5445   -3.1234    0.0000 O   0  0  0  0  0  0  0  0  0  0  0  0
    4.5445    0.1765    0.0000 N   0  0  0  0  0  0  0  0  0  0  0  0
    3.8301   -1.8859    0.0000 N   0  0  0  0  0  0  0  0  0  0  0  0
    4.5445   -0.6484    0.0000 C   0  0  1  0  0  0  0  0  0  0  0  0
    5.2591   -1.0609    0.0000 C   0  0  0  0  0  0  0  0  0  0  0  0
    5.2591   -1.8859    0.0000 C   0  0  0  0  0  0  0  0  0  0  0  0
    3.8301   -1.0609    0.0000 C   0  0  0  0  0  0  0  0  0  0  0  0
    5.2085    0.6580    0.0000 C   0  0  0  0  0  0  0  0  0  0  0  0
    3.8806    0.6580    0.0000 C   0  0  0  0  0  0  0  0  0  0  0  0
    4.9570    1.4387    0.0000 C   0  0  0  0  0  0  0  0  0  0  0  0
    4.1320    1.4387    0.0000 C   0  0  0  0  0  0  0  0  0  0  0  0
    4.5445   -2.2984    0.0000 C   0  0  0  0  0  0  0  0  0  0  0  0
    5.3696    2.1532    0.0000 C   0  0  0  0  0  0  0  0  0  0  0  0
    3.7195    2.1532    0.0000 C   0  0  0  0  0  0  0  0  0  0  0  0
    4.9570    2.8677    0.0000 C   0  0  0  0  0  0  0  0  0  0  0  0
    4.1320    2.8677    0.0000 C   0  0  0  0  0  0  0  0  0  0  0  0
    2.8945    2.1532    0.0000 O   0  0  0  0  0  0  0  0  0  0  0  0
    2.4820    2.8677    0.0000 C   0  0  0  0  0  0  0  0  0  0  0  0
    1.6570    2.8677    0.0000 C   0  0  0  0  0  0  0  0  0  0  0  0
    1.2446    3.5821    0.0000 C   0  0  0  0  0  0  0  0  0  0  0  0
    0.4195    3.5822    0.0000 C   0  0  0  0  0  0  0  0  0  0  0  0
    0.0069    2.8678    0.0000 C   0  0  0  0  0  0  0  0  0  0  0  0
    0.4194    2.1533    0.0000 C   0  0  0  0  0  0  0  0  0  0  0  0
    1.2445    2.1532    0.0000 C   0  0  0  0  0  0  0  0  0  0  0  0
   -0.8181    2.8678    0.0000 C   0  0  0  0  0  0  0  0  0  0  0  0
   -1.2306    2.1534    0.0000 N   0  0  0  0  0  0  0  0  0  0  0  0
   -2.0556    2.1534    0.0000 C   0  0  0  0  0  0  0  0  0  0  0  0
   -2.4682    1.4388    0.0000 C   0  0  0  0  0  0  0  0  0  0  0  0
   -2.0556    0.7244    0.0000 O   0  0  0  0  0  0  0  0  0  0  0  0
   -1.2306    0.7243    0.0000 C   0  0  0  0  0  0  0  0  0  0  0  0
   -0.8181    1.4389    0.0000 C   0  0  0  0  0  0  0  0  0  0  0  0
  1  9  2  0  0  0  0
  2 10  2  0  0  0  0
  3 14  2  0  0  0  0
  6  4  1  1  0  0  0
  4 10  1  0  0  0  0
  4 11  1  0  0  0  0
  5  9  1  0  0  0  0
  5 14  1  0  0  0  0
  6  7  1  0  0  0  0
  6  9  1  0  0  0  0
  7  8  1  0  0  0  0
  8 14  1  0  0  0  0
 10 12  1  0  0  0  0
 11 13  1  0  0  0  0
 12 13  4  0  0  0  0
 12 15  4  0  0  0  0
 13 16  4  0  0  0  0
 15 17  4  0  0  0  0
 16 18  4  0  0  0  0
 17 18  4  0  0  0  0
 16 19  1  0  0  0  0
 19 20  1  0  0  0  0
 20 21  1  0  0  0  0
 22 23  4  0  0  0  0
 23 24  4  0  0  0  0
 24 25  4  0  0  0  0
 25 26  4  0  0  0  0
 21 22  4  0  0  0  0
 26 21  4  0  0  0  0
 24 27  1  0  0  0  0
 27 28  1  0  0  0  0
 29 30  1  0  0  0  0
 32 33  1  0  0  0  0
 28 29  1  0  0  0  0
 28 33  1  0  0  0  0
 30 31  1  0  0  0  0
 31 32  1  0  0  0  0
M  END
> <From>
www.bindingDB.org

> <BindingDB Reactant_set_id>
51570927

> <Ligand InChI>
InChI=1S/C25H27N3O5/c29-23-9-8-21(24(30)26-23)28-15-20-19(25(28)31)2-1-3-22(20)33-16-18-6-4-17(5-7-18)14-27-10-12-32-13-11-27/h1-7,21H,8-16H2,(H,26,29,30)/t21-/m0/s1

> <Ligand InChI Key>
IXZOHGPZAQLIBH-NRFANRHFSA-N

> <BindingDB MonomerID>
65497

> <BindingDB Ligand Name>
CC-220 (Compound 6)::US9694015, 6.4S

> <Target Name>
Protein cereblon

> <Target Source Organism According to Curator or DataSource>
Homo sapiens

> <Ki (nM)>


> <IC50 (nM)>
 13

> <Kd (nM)>


> <EC50 (nM)>


> <kon (M-1-s-1)>


> <koff (s-1)>


> <pH>


> <Temp C>


> <Curation/DataSource>
ChEMBL

> <Article DOI>
10.1039/d3md00652b

> <BindingDB Entry DOI>
10.7270/Q2CV4P64

> <PMID>
38389883

> <PubChem AID>


> <Patent Number>


> <Authors>
n/a

> <Date of publication>
2/21/2024

> <Date in BindingDB>
12/21/2024

> <Institution>
n/a

> <Link to Ligand in BindingDB>
http://www.bindingdb.org/bind/chemsearch/marvin/MolStructure.jsp?monomerid=65497

> <Link to Ligand-Target Pair in BindingDB>
http://www.bindingdb.org/jsp/dbsearch/PrimarySearch_ki.jsp?energyterm=kJ/mole&tag=pol&polymerid=50007050&target=Protein+cereblon&column=ki&startPg=0&Increment=50&submit=Search

> <Link to Ligand-Target Pair in BindingDB>
http://www.bindingdb.org/jsp/dbsearch/PrimarySearch_ki.jsp?energyterm=kJ/mole&tag=r21&monomerid=65497&enzyme=Protein+cereblon&column=ki&startPg=0&Increment=50&submit=Search

> <Ligand HET ID in PDB>
8W7    

> <PDB ID(s) for Ligand-Target Complex>
7PS9,5V3O,8U15,8D80

> <PubChem CID of Ligand>
67335295

> <PubChem SID of Ligand>
350083120

> <ChEBI ID of Ligand>


> <ChEMBL ID of Ligand>


> <DrugBank ID of Ligand>


> <IUPHAR_GRAC ID of Ligand>


> <KEGG ID of Ligand>


> <ZINC ID of Ligand>
ZINC13133466

> <Number of Protein Chains in Target (bigger than 1 implies a multichain complex)>
1

> <BindingDB Target Chain Sequence>
MAGEGDQQDAAHNMGNHLPLLPAESEEEDEMEVEDQDSKEAKKPNIINFDTSLPTSHTYLGADMEEFHGRTLHDDDSCQVIPVLPQVMMILIPGQTLPLQLFHPQEVSMVRNLIQKDRTFAVLAYSNVQEREAQFGTTAEIYAYREEQDFGIEIVKVKAIGRQRFKVLELRTQSDGIQQAKVQILPECVLPSTMSAVQLESLNKCQIFPSKPVSREDQCSYKWWQKYQKRKFHCANLTSWPRWLYSLYDAETLMDRIKKQLREWDENLKDDSLPSNPIDFSYRVAACLPIDDVLRIQLLKIGSAIQRLRCELDIMNKCTSLCCKQCQETEITTKNEIFSLSLCGPMAAYVNPHGYVHETLTVYKACNLNLIGRPSTEHSWFPGYAWTVAQCKICASHIGWKFTATKKDMSPQKFWGLTRSALLPTIPDTEDEISPDKVILCL

> <PDB ID(s) of Target Chain>
8TNR,8TNQ,8TNP,8D81,8D80,8D7Z,8D7Y,8D7X,8D7W,8D7V,8D7U,8CVP,9DQD,8UH6,6BOY,6BNB,6BN9,6BN8,6BN7,6XK9,6UML,5V3O,5HXB,7U8F,8OJH,8OIZ,7LPS,4TZ4,9DJX,9DJT,8U17,8U16,8U15,8TZX,8DEY,9CUO,4M91

> <UniProt (SwissProt) Recommended Name of Target Chain>
Protein cereblon

> <UniProt (SwissProt) Entry Name of Target Chain>
CRBN_HUMAN

> <UniProt (SwissProt) Primary ID of Target Chain>
Q96SW2

> <UniProt (SwissProt) Secondary ID(s) of Target Chain>
B2R6H4 C9IZA9 C9JAH6 Q6AI62 Q6NVZ0 Q9UHW4

> <UniProt (SwissProt) Alternative ID(s) of Target Chain>


> <UniProt (TrEMBL) Submitted Name of Target Chain>


> <UniProt (TrEMBL) Entry Name of Target Chain>


> <UniProt (TrEMBL) Primary ID of Target Chain>


> <UniProt (TrEMBL) Secondary ID(s) of Target Chain>


> <UniProt (TrEMBL) Alternative ID(s) of Target Chain>


$$$$
 
     RDKit          2D

 64 72  0  0  0  0  0  0  0  0999 V2000
   32.4895  -27.8877    0.0000 C   0  0  0  0  0  0  0  0  0  0  0  0
   31.7797  -27.4791    0.0000 C   0  0  0  0  0  0  0  0  0  0  0  0
   31.0748  -27.8873    0.0000 C   0  0  0  0  0  0  0  0  0  0  0  0
   31.0736  -28.7058    0.0000 N   0  0  0  0  0  0  0  0  0  0  0  0
   31.7835  -29.1144    0.0000 C   0  0  0  0  0  0  0  0  0  0  0  0
   32.4945  -28.7045    0.0000 C   0  0  0  0  0  0  0  0  0  0  0  0
   43.1337  -21.7422    0.0000 O   0  0  0  0  0  0  0  0  0  0  0  0
   43.7156  -22.3242    0.0000 S   0  0  0  0  0  0  0  0  0  0  0  0
   43.9286  -21.5292    0.0000 O   0  0  0  0  0  0  0  0  0  0  0  0
   40.9778  -27.0705    0.0000 N   0  0  0  0  0  0  0  0  0  0  0  0
   40.9767  -27.8900    0.0000 C   0  0  0  0  0  0  0  0  0  0  0  0
   41.6847  -28.2990    0.0000 N   0  0  0  0  0  0  0  0  0  0  0  0
   41.6829  -26.6616    0.0000 C   0  0  0  0  0  0  0  0  0  0  0  0
   42.3916  -27.0669    0.0000 C   0  0  0  0  0  0  0  0  0  0  0  0
   42.3964  -27.8855    0.0000 C   0  0  0  0  0  0  0  0  0  0  0  0
   43.1764  -28.1339    0.0000 N   0  0  0  0  0  0  0  0  0  0  0  0
   43.6538  -27.4688    0.0000 C   0  0  0  0  0  0  0  0  0  0  0  0
   43.1686  -26.8094    0.0000 C   0  0  0  0  0  0  0  0  0  0  0  0
   41.6774  -25.8472    0.0000 C   0  0  0  0  0  0  0  0  0  0  0  0
   42.3370  -25.3648    0.0000 C   0  0  0  0  0  0  0  0  0  0  0  0
   42.0822  -24.5884    0.0000 N   0  0  0  0  0  0  0  0  0  0  0  0
   41.2649  -24.5908    0.0000 N   0  0  0  0  0  0  0  0  0  0  0  0
   41.0149  -25.3688    0.0000 C   0  0  0  0  0  0  0  0  0  0  0  0
   40.2687  -28.2980    0.0000 N   0  0  0  0  0  0  0  0  0  0  0  0
   39.5613  -27.8889    0.0000 C   0  0  0  0  0  0  0  0  0  0  0  0
   39.5665  -27.0718    0.0000 C   0  0  0  0  0  0  0  0  0  0  0  0
   38.8599  -26.6627    0.0000 C   0  0  0  0  0  0  0  0  0  0  0  0
   38.1509  -27.0708    0.0000 C   0  0  0  0  0  0  0  0  0  0  0  0
   38.1529  -27.8922    0.0000 C   0  0  0  0  0  0  0  0  0  0  0  0
   38.8600  -28.2976    0.0000 C   0  0  0  0  0  0  0  0  0  0  0  0
   37.4430  -26.6626    0.0000 C   0  0  0  0  0  0  0  0  0  0  0  0
   37.4425  -25.8454    0.0000 O   0  0  0  0  0  0  0  0  0  0  0  0
   36.7355  -27.0716    0.0000 N   0  0  0  0  0  0  0  0  0  0  0  0
   36.0276  -26.6634    0.0000 C   0  0  0  0  0  0  0  0  0  0  0  0
   42.5605  -23.9258    0.0000 C   0  0  0  0  0  0  0  0  0  0  0  0
   43.3715  -23.7956    0.0000 C   0  0  0  0  0  0  0  0  0  0  0  0
   43.2413  -22.9888    0.0000 N   0  0  0  0  0  0  0  0  0  0  0  0
   42.4345  -23.1191    0.0000 C   0  0  0  0  0  0  0  0  0  0  0  0
   44.5326  -22.4092    0.0000 C   0  0  0  0  0  0  0  0  0  0  0  0
   45.0123  -21.7477    0.0000 C   0  0  0  0  0  0  0  0  0  0  0  0
   43.1378  -24.5034    0.0000 C   0  0  0  0  0  0  0  0  0  0  0  0
   43.9272  -24.2920    0.0000 C   0  0  0  0  0  0  0  0  0  0  0  0
   44.7157  -24.0819    0.0000 N   0  0  0  0  0  0  0  0  0  0  0  0
   35.3201  -27.0723    0.0000 C   0  0  0  0  0  0  0  0  0  0  0  0
   34.6121  -26.6641    0.0000 C   0  0  0  0  0  0  0  0  0  0  0  0
   33.9046  -27.0731    0.0000 N   0  0  0  0  0  0  0  0  0  0  0  0
   33.1967  -26.6649    0.0000 C   0  0  0  0  0  0  0  0  0  0  0  0
   33.9051  -27.8903    0.0000 C   0  0  0  0  0  0  0  0  0  0  0  0
   33.1976  -28.2993    0.0000 C   0  0  0  0  0  0  0  0  0  0  0  0
   32.4892  -27.0739    0.0000 C   0  0  0  0  0  0  0  0  0  0  0  0
   30.3683  -29.1119    0.0000 C   0  0  0  0  0  0  0  0  0  0  0  0
   29.6603  -28.7016    0.0000 C   0  0  0  0  0  0  0  0  0  0  0  0
   28.9531  -29.1095    0.0000 C   0  0  0  0  0  0  0  0  0  0  0  0
   28.9526  -29.9275    0.0000 C   0  0  0  0  0  0  0  0  0  0  0  0
   29.6652  -30.3360    0.0000 C   0  0  0  0  0  0  0  0  0  0  0  0
   30.3696  -29.9258    0.0000 C   0  0  0  0  0  0  0  0  0  0  0  0
   28.2454  -30.3370    0.0000 C   0  0  0  0  0  0  0  0  0  0  0  0
   27.5372  -29.9293    0.0000 C   0  0  0  0  0  0  0  0  0  0  0  0
   28.2464  -31.1542    0.0000 C   0  0  0  0  0  0  0  0  0  0  0  0
   27.5392  -31.5637    0.0000 C   0  0  0  0  0  0  0  0  0  0  0  0
   27.5361  -29.1122    0.0000 O   0  0  0  0  0  0  0  0  0  0  0  0
   26.8300  -30.3388    0.0000 N   0  0  0  0  0  0  0  0  0  0  0  0
   26.1238  -31.5655    0.0000 O   0  0  0  0  0  0  0  0  0  0  0  0
   26.8310  -31.1560    0.0000 C   0  0  0  0  0  0  0  0  0  0  0  0
  1  2  1  0
  1  6  1  0
  2  3  1  0
  3  4  1  0
  4  5  1  0
  5  6  1  0
  8  7  2  0
  9  8  2  0
 10 11  2  0
 11 12  1  0
 12 15  2  0
 14 13  2  0
 13 10  1  0
 14 15  1  0
 15 16  1  0
 16 17  1  0
 17 18  2  0
 18 14  1  0
 19 20  2  0
 20 21  1  0
 21 22  1  0
 22 23  2  0
 23 19  1  0
 13 19  1  0
 11 24  1  0
 24 25  1  0
 25 26  2  0
 26 27  1  0
 27 28  2  0
 28 29  1  0
 29 30  2  0
 30 25  1  0
 28 31  1  0
 31 32  2  0
 31 33  1  0
 33 34  1  0
 21 35  1  0
 35 36  1  0
 36 37  1  0
 37 38  1  0
 38 35  1  0
 37  8  1  0
  8 39  1  0
 39 40  1  0
 35 41  1  0
 41 42  1  0
 42 43  3  0
 34 44  1  0
 44 45  1  0
 45 46  1  0
 46 47  1  0
 46 48  1  0
 48 49  1  0
 47 50  1  0
 49  1  1  0
  1 50  1  0
 51 52  2  0
 52 53  1  0
 53 54  2  0
 54 55  1  0
 55 56  2  0
 56 51  1  0
  4 51  1  0
 54 57  1  0
 57 58  1  0
 57 59  1  0
 59 60  1  0
 58 61  2  0
 58 62  1  0
 60 64  1  0
 64 63  2  0
 62 64  1  0
M  END
> <From>
www.bindingDB.org

> <BindingDB Reactant_set_id>
51451992

> <Ligand InChI>


> <Ligand InChI Key>


> <BindingDB MonomerID>
50586187

> <BindingDB Ligand Name>
CHEMBL5074539

> <Target Name>
Protein cereblon

> <Target Source Organism According to Curator or DataSource>
Human

> <Ki (nM)>


> <IC50 (nM)>
 15

> <Kd (nM)>


> <EC50 (nM)>


> <kon (M-1-s-1)>


> <koff (s-1)>


> <pH>


> <Temp C>


> <Curation/DataSource>
ChEMBL

> <Article DOI>
10.1021/acsmedchemlett.1c00650

> <BindingDB Entry DOI>
10.7270/Q2D79GBF

> <PMID>
35300081

> <PubChem AID>


> <Patent Number>


> <Authors>
Alcock, LJ; Chang, Y; Jarusiewicz, JA; Actis, M; Nithianantham, S; Mayasundari, A; Min, J; Maxwell, D; Hunt, J; Smart, B; Yang, JJ; Nishiguchi, G; Fischer, M; Mullighan, CG; Rankovic, Z

> <Date of publication>
3/10/2022

> <Date in BindingDB>
3/7/2023

> <Institution>
St. Jude Children's Research Hospital

> <Link to Ligand in BindingDB>
http://www.bindingdb.org/bind/chemsearch/marvin/MolStructure.jsp?monomerid=50586187

> <Link to Ligand-Target Pair in BindingDB>
http://www.bindingdb.org/jsp/dbsearch/PrimarySearch_ki.jsp?energyterm=kJ/mole&tag=pol&polymerid=50007050&target=Protein+cereblon&column=ki&startPg=0&Increment=50&submit=Search

> <Link to Ligand-Target Pair in BindingDB>
http://www.bindingdb.org/jsp/dbsearch/PrimarySearch_ki.jsp?energyterm=kJ/mole&tag=r21&monomerid=50586187&enzyme=Protein+cereblon&column=ki&startPg=0&Increment=50&submit=Search

> <Ligand HET ID in PDB>


> <PDB ID(s) for Ligand-Target Complex>


> <PubChem CID of Ligand>
164540956

> <PubChem SID of Ligand>
476022274

> <ChEBI ID of Ligand>


> <ChEMBL ID of Ligand>


> <DrugBank ID of Ligand>


> <IUPHAR_GRAC ID of Ligand>


> <KEGG ID of Ligand>


> <ZINC ID of Ligand>


> <Number of Protein Chains in Target (bigger than 1 implies a multichain complex)>
1

> <BindingDB Target Chain Sequence>
MAGEGDQQDAAHNMGNHLPLLPAESEEEDEMEVEDQDSKEAKKPNIINFDTSLPTSHTYLGADMEEFHGRTLHDDDSCQVIPVLPQVMMILIPGQTLPLQLFHPQEVSMVRNLIQKDRTFAVLAYSNVQEREAQFGTTAEIYAYREEQDFGIEIVKVKAIGRQRFKVLELRTQSDGIQQAKVQILPECVLPSTMSAVQLESLNKCQIFPSKPVSREDQCSYKWWQKYQKRKFHCANLTSWPRWLYSLYDAETLMDRIKKQLREWDENLKDDSLPSNPIDFSYRVAACLPIDDVLRIQLLKIGSAIQRLRCELDIMNKCTSLCCKQCQETEITTKNEIFSLSLCGPMAAYVNPHGYVHETLTVYKACNLNLIGRPSTEHSWFPGYAWTVAQCKICASHIGWKFTATKKDMSPQKFWGLTRSALLPTIPDTEDEISPDKVILCL

> <PDB ID(s) of Target Chain>
4TZ4,5HXB,5V3O,6UML,6XK9,7LPS,7U8F,8CVP,8D7U,8D7V,8D7W,8D7X,8D7Y,8D7Z,8D80,8D81,8DEY,8OIZ,8OJH

> <UniProt (SwissProt) Recommended Name of Target Chain>
Protein cereblon

> <UniProt (SwissProt) Entry Name of Target Chain>
CRBN_HUMAN

> <UniProt (SwissProt) Primary ID of Target Chain>
Q96SW2

> <UniProt (SwissProt) Secondary ID(s) of Target Chain>
B2R6H4 C9IZA9 C9JAH6 Q6AI62 Q6NVZ0 Q9UHW4

> <UniProt (SwissProt) Alternative ID(s) of Target Chain>


> <UniProt (TrEMBL) Submitted Name of Target Chain>


> <UniProt (TrEMBL) Entry Name of Target Chain>


> <UniProt (TrEMBL) Primary ID of Target Chain>


> <UniProt (TrEMBL) Secondary ID(s) of Target Chain>


> <UniProt (TrEMBL) Alternative ID(s) of Target Chain>


$$$$
 
     RDKit          2D

 57 64  0  0  0  0  0  0  0  0999 V2000
    6.0084    1.2296    0.0000 C   0  0  0  0  0  0  0  0  0  0  0  0
    6.0298    0.4049    0.0000 C   0  0  0  0  0  0  0  0  0  0  0  0
    5.3262   -0.0259    0.0000 C   0  0  0  0  0  0  0  0  0  0  0  0
    5.5185   -0.8281    0.0000 C   0  0  0  0  0  0  0  0  0  0  0  0
    6.3410   -0.8931    0.0000 N   0  0  0  0  0  0  0  0  0  0  0  0
    6.6570   -0.1310    0.0000 C   0  0  0  0  0  0  0  0  0  0  0  0
    7.4593    0.0613    0.0000 O   0  0  0  0  0  0  0  0  0  0  0  0
    6.7719   -1.5966    0.0000 C   0  0  0  0  0  0  0  0  0  0  0  0
    7.5967   -1.5753    0.0000 C   0  0  0  0  0  0  0  0  0  0  0  0
    8.0275   -2.2789    0.0000 C   0  0  0  0  0  0  0  0  0  0  0  0
    7.6336   -3.0038    0.0000 C   0  0  0  0  0  0  0  0  0  0  0  0
    8.0645   -3.7074    0.0000 O   0  0  0  0  0  0  0  0  0  0  0  0
    6.8090   -3.0251    0.0000 N   0  0  0  0  0  0  0  0  0  0  0  0
    6.3781   -2.3216    0.0000 C   0  0  0  0  0  0  0  0  0  0  0  0
    5.5533   -2.3429    0.0000 O   0  0  0  0  0  0  0  0  0  0  0  0
    4.6013    0.3679    0.0000 C   0  0  0  0  0  0  0  0  0  0  0  0
    4.5800    1.1926    0.0000 C   0  0  0  0  0  0  0  0  0  0  0  0
    3.8551    1.5865    0.0000 C   0  0  0  0  0  0  0  0  0  0  0  0
    3.1515    1.1556    0.0000 C   0  0  0  0  0  0  0  0  0  0  0  0
    2.4266    1.5495    0.0000 C   0  0  0  0  0  0  0  0  0  0  0  0
    2.4051    2.3742    0.0000 N   0  0  0  0  0  0  0  0  0  0  0  0
    1.6803    2.7681    0.0000 C   0  0  0  0  0  0  0  0  0  0  0  0
    0.9767    2.3372    0.0000 C   0  0  0  0  0  0  0  0  0  0  0  0
    0.2518    2.7311    0.0000 C   0  0  0  0  0  0  0  0  0  0  0  0
   -0.4516    2.3001    0.0000 C   0  0  0  0  0  0  0  0  0  0  0  0
   -1.1766    2.6940    0.0000 C   0  0  0  0  0  0  0  0  0  0  0  0
   -1.8801    2.2632    0.0000 C   0  0  0  0  0  0  0  0  0  0  0  0
   -2.6050    2.6570    0.0000 N   0  0  0  0  0  0  0  0  0  0  0  0
   -3.3086    2.2262    0.0000 C   0  0  0  0  0  0  0  0  0  0  0  0
   -4.0335    2.6199    0.0000 C   0  0  0  0  0  0  0  0  0  0  0  0
   -4.7371    2.1892    0.0000 C   0  0  0  0  0  0  0  0  0  0  0  0
   -4.6541    1.3684    0.0000 N   0  0  0  0  0  0  0  0  0  0  0  0
   -5.2442    0.7917    0.0000 C   0  0  0  0  0  0  0  0  0  0  0  0
   -4.9806    0.0099    0.0000 C   0  0  0  0  0  0  0  0  0  0  0  0
   -5.5260   -0.6091    0.0000 C   0  0  0  0  0  0  0  0  0  0  0  0
   -5.2624   -1.3909    0.0000 C   0  0  0  0  0  0  0  0  0  0  0  0
   -4.4536   -1.5535    0.0000 C   0  0  0  0  0  0  0  0  0  0  0  0
   -4.1901   -2.3354    0.0000 Cl  0  0  0  0  0  0  0  0  0  0  0  0
   -3.9083   -0.9344    0.0000 C   0  0  0  0  0  0  0  0  0  0  0  0
   -4.1718   -0.1527    0.0000 C   0  0  0  0  0  0  0  0  0  0  0  0
   -6.0629    0.8935    0.0000 C   0  0  0  0  0  0  0  0  0  0  0  0
   -6.5989    0.2663    0.0000 C   0  0  0  0  0  0  0  0  0  0  0  0
   -6.4064   -0.5358    0.0000 C   0  0  0  0  0  0  0  0  0  0  0  0
   -7.3609    0.5823    0.0000 C   0  0  0  0  0  0  0  0  0  0  0  0
   -8.0645    0.1514    0.0000 C   0  0  0  0  0  0  0  0  0  0  0  0
   -7.2960    1.4046    0.0000 S   0  0  0  0  0  0  0  0  0  0  0  0
   -6.4936    1.5970    0.0000 C   0  0  0  0  0  0  0  0  0  0  0  0
   -6.2123    2.3726    0.0000 N   0  0  0  0  0  0  0  0  0  0  0  0
   -6.7045    3.0347    0.0000 C   0  0  0  0  0  0  0  0  0  0  0  0
   -7.5294    3.0256    0.0000 C   0  0  0  0  0  0  0  0  0  0  0  0
   -6.2269    3.7074    0.0000 N   0  0  0  0  0  0  0  0  0  0  0  0
   -5.4395    3.4611    0.0000 N   0  0  0  0  0  0  0  0  0  0  0  0
   -5.4305    2.6361    0.0000 C   0  0  0  0  0  0  0  0  0  0  0  0
   -3.2872    1.4015    0.0000 O   0  0  0  0  0  0  0  0  0  0  0  0
    3.1088    2.8050    0.0000 C   0  0  0  0  0  0  0  0  0  0  0  0
    3.8337    2.4110    0.0000 C   0  0  0  0  0  0  0  0  0  0  0  0
    5.2835    1.6234    0.0000 C   0  0  0  0  0  0  0  0  0  0  0  0
  2  1  2  0
  3  2  1  0
  3  4  1  0
  5  4  1  0
  2  6  1  0
  6  5  1  0
  6  7  2  0
  5  8  1  0
  9  8  1  0
 10  9  1  0
 11 10  1  0
 11 12  2  0
 13 11  1  0
 14 13  1  0
  8 14  1  0
 14 15  2  0
 16  3  2  0
 17 16  1  0
 18 17  1  0
 18 19  1  0
 20 19  1  0
 20 21  1  0
 22 21  1  0
 23 22  1  0
 24 23  1  0
 25 24  1  0
 26 25  1  0
 27 26  1  0
 28 27  1  0
 29 28  1  0
 29 30  1  0
 31 30  1  6
 31 32  1  0
 32 33  2  0
 33 34  1  0
 34 35  1  0
 35 36  2  0
 36 37  1  0
 37 38  1  0
 37 39  2  0
 39 40  1  0
 40 34  2  0
 33 41  1  0
 41 42  1  0
 42 43  1  0
 42 44  2  0
 44 45  1  0
 44 46  1  0
 47 46  1  0
 41 47  2  0
 48 47  1  0
 48 49  1  0
 49 50  1  0
 49 51  2  0
 51 52  1  0
 53 52  2  0
 53 48  1  0
 53 31  1  0
 29 54  2  0
 55 21  1  0
 56 55  1  0
 18 56  1  0
 57 17  2  0
  1 57  1  0
M  END
> <From>
www.bindingDB.org

> <BindingDB Reactant_set_id>
51570523

> <Ligand InChI>
InChI=1S/C43H49ClN8O4S/c1-25-26(2)57-43-38(25)39(29-8-11-32(44)12-9-29)46-34(40-49-48-27(3)52(40)43)23-37(54)45-18-6-4-5-7-19-50-20-16-28(17-21-50)30-10-13-33-31(22-30)24-51(42(33)56)35-14-15-36(53)47-41(35)55/h8-13,22,28,34-35H,4-7,14-21,23-24H2,1-3H3,(H,45,54)(H,47,53,55)/t34-,35?/m0/s1

> <Ligand InChI Key>
OKISKGIPUPRZPL-SFCXHYMASA-N

> <BindingDB MonomerID>
50631627

> <BindingDB Ligand Name>
CHEMBL5422157

> <Target Name>
Protein cereblon

> <Target Source Organism According to Curator or DataSource>
Homo sapiens

> <Ki (nM)>


> <IC50 (nM)>
 15

> <Kd (nM)>


> <EC50 (nM)>


> <kon (M-1-s-1)>


> <koff (s-1)>


> <pH>


> <Temp C>


> <Curation/DataSource>
ChEMBL

> <Article DOI>
10.1021/acs.jmedchem.3c01613

> <BindingDB Entry DOI>
10.7270/Q2T1583Z

> <PMID>
38096359

> <PubChem AID>


> <Patent Number>


> <Authors>
Arndt, CM; Bitai, J; Brunner, J; Opatz, T; Martinelli, P; Gollner, A; Sokol, KR; Krumb, M

> <Date of publication>
12/28/2023

> <Date in BindingDB>
12/21/2024

> <Institution>
Boehringer Ingelheim Rcv

> <Link to Ligand in BindingDB>
http://www.bindingdb.org/bind/chemsearch/marvin/MolStructure.jsp?monomerid=50631627

> <Link to Ligand-Target Pair in BindingDB>
http://www.bindingdb.org/jsp/dbsearch/PrimarySearch_ki.jsp?energyterm=kJ/mole&tag=pol&polymerid=50007050&target=Protein+cereblon&column=ki&startPg=0&Increment=50&submit=Search

> <Link to Ligand-Target Pair in BindingDB>
http://www.bindingdb.org/jsp/dbsearch/PrimarySearch_ki.jsp?energyterm=kJ/mole&tag=r21&monomerid=50631627&enzyme=Protein+cereblon&column=ki&startPg=0&Increment=50&submit=Search

> <Ligand HET ID in PDB>


> <PDB ID(s) for Ligand-Target Complex>


> <PubChem CID of Ligand>
172460102

> <PubChem SID of Ligand>
505035961

> <ChEBI ID of Ligand>


> <ChEMBL ID of Ligand>


> <DrugBank ID of Ligand>


> <IUPHAR_GRAC ID of Ligand>


> <KEGG ID of Ligand>


> <ZINC ID of Ligand>


> <Number of Protein Chains in Target (bigger than 1 implies a multichain complex)>
1

> <BindingDB Target Chain Sequence>
MAGEGDQQDAAHNMGNHLPLLPAESEEEDEMEVEDQDSKEAKKPNIINFDTSLPTSHTYLGADMEEFHGRTLHDDDSCQVIPVLPQVMMILIPGQTLPLQLFHPQEVSMVRNLIQKDRTFAVLAYSNVQEREAQFGTTAEIYAYREEQDFGIEIVKVKAIGRQRFKVLELRTQSDGIQQAKVQILPECVLPSTMSAVQLESLNKCQIFPSKPVSREDQCSYKWWQKYQKRKFHCANLTSWPRWLYSLYDAETLMDRIKKQLREWDENLKDDSLPSNPIDFSYRVAACLPIDDVLRIQLLKIGSAIQRLRCELDIMNKCTSLCCKQCQETEITTKNEIFSLSLCGPMAAYVNPHGYVHETLTVYKACNLNLIGRPSTEHSWFPGYAWTVAQCKICASHIGWKFTATKKDMSPQKFWGLTRSALLPTIPDTEDEISPDKVILCL

> <PDB ID(s) of Target Chain>
8TNR,8TNQ,8TNP,8D81,8D80,8D7Z,8D7Y,8D7X,8D7W,8D7V,8D7U,8CVP,9DQD,8UH6,6BOY,6BNB,6BN9,6BN8,6BN7,6XK9,6UML,5V3O,5HXB,7U8F,8OJH,8OIZ,7LPS,4TZ4,9DJX,9DJT,8U17,8U16,8U15,8TZX,8DEY,9CUO,4M91

> <UniProt (SwissProt) Recommended Name of Target Chain>
Protein cereblon

> <UniProt (SwissProt) Entry Name of Target Chain>
CRBN_HUMAN

> <UniProt (SwissProt) Primary ID of Target Chain>
Q96SW2

> <UniProt (SwissProt) Secondary ID(s) of Target Chain>
B2R6H4 C9IZA9 C9JAH6 Q6AI62 Q6NVZ0 Q9UHW4

> <UniProt (SwissProt) Alternative ID(s) of Target Chain>


> <UniProt (TrEMBL) Submitted Name of Target Chain>


> <UniProt (TrEMBL) Entry Name of Target Chain>


> <UniProt (TrEMBL) Primary ID of Target Chain>


> <UniProt (TrEMBL) Secondary ID(s) of Target Chain>


> <UniProt (TrEMBL) Alternative ID(s) of Target Chain>


$$$$
 
     RDKit          2D

 55 62  0  0  0  0  0  0  0  0999 V2000
    1.3529    5.3295    0.0000 C   0  0  0  0  0  0  0  0  0  0  0  0
    2.0632    4.9099    0.0000 C   0  0  0  0  0  0  0  0  0  0  0  0
    2.0549    4.0849    0.0000 C   0  0  0  0  0  0  0  0  0  0  0  0
    2.8369    3.8221    0.0000 C   0  0  0  0  0  0  0  0  0  0  0  0
    3.3285    4.4846    0.0000 N   0  0  0  0  0  0  0  0  0  0  0  0
    2.8503    5.1569    0.0000 C   0  0  0  0  0  0  0  0  0  0  0  0
    3.1132    5.9389    0.0000 O   0  0  0  0  0  0  0  0  0  0  0  0
    4.1535    4.4762    0.0000 C   0  0  0  0  0  0  0  0  0  0  0  0
    4.5731    5.1866    0.0000 C   0  0  0  0  0  0  0  0  0  0  0  0
    5.3980    5.1783    0.0000 C   0  0  0  0  0  0  0  0  0  0  0  0
    5.8032    4.4597    0.0000 C   0  0  0  0  0  0  0  0  0  0  0  0
    6.6283    4.4513    0.0000 O   0  0  0  0  0  0  0  0  0  0  0  0
    5.3837    3.7494    0.0000 N   0  0  0  0  0  0  0  0  0  0  0  0
    4.5587    3.7578    0.0000 C   0  0  0  0  0  0  0  0  0  0  0  0
    4.1390    3.0475    0.0000 O   0  0  0  0  0  0  0  0  0  0  0  0
    1.3363    3.6797    0.0000 C   0  0  0  0  0  0  0  0  0  0  0  0
    0.6260    4.0993    0.0000 C   0  0  0  0  0  0  0  0  0  0  0  0
   -0.0925    3.6940    0.0000 C   0  0  0  0  0  0  0  0  0  0  0  0
   -0.1008    2.8691    0.0000 C   0  0  0  0  0  0  0  0  0  0  0  0
   -0.8193    2.4638    0.0000 C   0  0  0  0  0  0  0  0  0  0  0  0
   -1.5296    2.8835    0.0000 N   0  0  0  0  0  0  0  0  0  0  0  0
   -2.2482    2.4782    0.0000 C   0  0  0  0  0  0  0  0  0  0  0  0
   -2.2565    1.6533    0.0000 C   0  0  0  0  0  0  0  0  0  0  0  0
   -2.9751    1.2480    0.0000 C   0  0  0  0  0  0  0  0  0  0  0  0
   -2.9834    0.4230    0.0000 C   0  0  0  0  0  0  0  0  0  0  0  0
   -3.7020    0.0178    0.0000 N   0  0  0  0  0  0  0  0  0  0  0  0
   -3.7103   -0.8071    0.0000 C   0  0  0  0  0  0  0  0  0  0  0  0
   -4.4288   -1.2124    0.0000 C   0  0  0  0  0  0  0  0  0  0  0  0
   -4.4371   -2.0374    0.0000 C   0  0  0  0  0  0  0  0  0  0  0  0
   -3.6975   -2.4028    0.0000 N   0  0  0  0  0  0  0  0  0  0  0  0
   -3.5220   -3.2089    0.0000 C   0  0  0  0  0  0  0  0  0  0  0  0
   -2.7195   -3.4005    0.0000 C   0  0  0  0  0  0  0  0  0  0  0  0
   -2.4844   -4.1913    0.0000 C   0  0  0  0  0  0  0  0  0  0  0  0
   -1.6819   -4.3830    0.0000 C   0  0  0  0  0  0  0  0  0  0  0  0
   -1.1148   -3.7839    0.0000 C   0  0  0  0  0  0  0  0  0  0  0  0
   -0.3123   -3.9755    0.0000 Cl  0  0  0  0  0  0  0  0  0  0  0  0
   -1.3500   -2.9931    0.0000 C   0  0  0  0  0  0  0  0  0  0  0  0
   -2.1524   -2.8015    0.0000 C   0  0  0  0  0  0  0  0  0  0  0  0
   -4.0428   -3.8486    0.0000 C   0  0  0  0  0  0  0  0  0  0  0  0
   -3.7958   -4.6358    0.0000 C   0  0  0  0  0  0  0  0  0  0  0  0
   -3.0137   -4.8986    0.0000 C   0  0  0  0  0  0  0  0  0  0  0  0
   -4.4682   -5.1139    0.0000 C   0  0  0  0  0  0  0  0  0  0  0  0
   -4.4765   -5.9389    0.0000 C   0  0  0  0  0  0  0  0  0  0  0  0
   -5.1307   -4.6223    0.0000 S   0  0  0  0  0  0  0  0  0  0  0  0
   -4.8678   -3.8404    0.0000 C   0  0  0  0  0  0  0  0  0  0  0  0
   -5.3757   -3.1902    0.0000 N   0  0  0  0  0  0  0  0  0  0  0  0
   -6.1980   -3.2559    0.0000 C   0  0  0  0  0  0  0  0  0  0  0  0
   -6.6283   -3.9598    0.0000 C   0  0  0  0  0  0  0  0  0  0  0  0
   -6.5147   -2.4940    0.0000 N   0  0  0  0  0  0  0  0  0  0  0  0
   -5.8879   -1.9575    0.0000 N   0  0  0  0  0  0  0  0  0  0  0  0
   -5.1840   -2.3878    0.0000 C   0  0  0  0  0  0  0  0  0  0  0  0
   -3.0000   -1.2267    0.0000 O   0  0  0  0  0  0  0  0  0  0  0  0
   -1.5213    3.7084    0.0000 C   0  0  0  0  0  0  0  0  0  0  0  0
   -0.8027    4.1137    0.0000 C   0  0  0  0  0  0  0  0  0  0  0  0
    0.6344    4.9243    0.0000 C   0  0  0  0  0  0  0  0  0  0  0  0
  2  1  2  0
  3  2  1  0
  3  4  1  0
  5  4  1  0
  2  6  1  0
  6  5  1  0
  6  7  2  0
  5  8  1  0
  9  8  1  0
 10  9  1  0
 11 10  1  0
 11 12  2  0
 13 11  1  0
 14 13  1  0
  8 14  1  0
 14 15  2  0
 16  3  2  0
 17 16  1  0
 18 17  1  0
 18 19  1  0
 20 19  1  0
 20 21  1  0
 21 22  1  0
 23 22  1  0
 24 23  1  0
 25 24  1  0
 26 25  1  0
 27 26  1  0
 27 28  1  0
 29 28  1  6
 29 30  1  0
 30 31  2  0
 31 32  1  0
 32 33  1  0
 33 34  2  0
 34 35  1  0
 35 36  1  0
 35 37  2  0
 37 38  1  0
 38 32  2  0
 31 39  1  0
 39 40  1  0
 40 41  1  0
 40 42  2  0
 42 43  1  0
 42 44  1  0
 45 44  1  0
 39 45  2  0
 46 45  1  0
 46 47  1  0
 47 48  1  0
 47 49  2  0
 49 50  1  0
 51 50  2  0
 51 46  1  0
 51 29  1  0
 27 52  2  0
 53 21  1  0
 54 53  1  0
 18 54  1  0
 55 17  2  0
  1 55  1  0
M  END
> <From>
www.bindingDB.org

> <BindingDB Reactant_set_id>
51570536

> <Ligand InChI>
InChI=1S/C41H45ClN8O4S/c1-23-24(2)55-41-36(23)37(27-6-9-30(42)10-7-27)44-32(38-47-46-25(3)50(38)41)21-35(52)43-16-4-5-17-48-18-14-26(15-19-48)28-8-11-31-29(20-28)22-49(40(31)54)33-12-13-34(51)45-39(33)53/h6-11,20,26,32-33H,4-5,12-19,21-22H2,1-3H3,(H,43,52)(H,45,51,53)/t32-,33?/m0/s1

> <Ligand InChI Key>
FOTJPEPDXXOTQF-JEFWXSHNSA-N

> <BindingDB MonomerID>
50631625

> <BindingDB Ligand Name>
CHEMBL5422650

> <Target Name>
Protein cereblon

> <Target Source Organism According to Curator or DataSource>
Homo sapiens

> <Ki (nM)>


> <IC50 (nM)>
 15

> <Kd (nM)>


> <EC50 (nM)>


> <kon (M-1-s-1)>


> <koff (s-1)>


> <pH>


> <Temp C>


> <Curation/DataSource>
ChEMBL

> <Article DOI>
10.1021/acs.jmedchem.3c01613

> <BindingDB Entry DOI>
10.7270/Q2T1583Z

> <PMID>
38096359

> <PubChem AID>


> <Patent Number>


> <Authors>
Arndt, CM; Bitai, J; Brunner, J; Opatz, T; Martinelli, P; Gollner, A; Sokol, KR; Krumb, M

> <Date of publication>
12/28/2023

> <Date in BindingDB>
12/21/2024

> <Institution>
Boehringer Ingelheim Rcv

> <Link to Ligand in BindingDB>
http://www.bindingdb.org/bind/chemsearch/marvin/MolStructure.jsp?monomerid=50631625

> <Link to Ligand-Target Pair in BindingDB>
http://www.bindingdb.org/jsp/dbsearch/PrimarySearch_ki.jsp?energyterm=kJ/mole&tag=pol&polymerid=50007050&target=Protein+cereblon&column=ki&startPg=0&Increment=50&submit=Search

> <Link to Ligand-Target Pair in BindingDB>
http://www.bindingdb.org/jsp/dbsearch/PrimarySearch_ki.jsp?energyterm=kJ/mole&tag=r21&monomerid=50631625&enzyme=Protein+cereblon&column=ki&startPg=0&Increment=50&submit=Search

> <Ligand HET ID in PDB>


> <PDB ID(s) for Ligand-Target Complex>


> <PubChem CID of Ligand>
172457845

> <PubChem SID of Ligand>
505035959

> <ChEBI ID of Ligand>


> <ChEMBL ID of Ligand>


> <DrugBank ID of Ligand>


> <IUPHAR_GRAC ID of Ligand>


> <KEGG ID of Ligand>


> <ZINC ID of Ligand>


> <Number of Protein Chains in Target (bigger than 1 implies a multichain complex)>
1

> <BindingDB Target Chain Sequence>
MAGEGDQQDAAHNMGNHLPLLPAESEEEDEMEVEDQDSKEAKKPNIINFDTSLPTSHTYLGADMEEFHGRTLHDDDSCQVIPVLPQVMMILIPGQTLPLQLFHPQEVSMVRNLIQKDRTFAVLAYSNVQEREAQFGTTAEIYAYREEQDFGIEIVKVKAIGRQRFKVLELRTQSDGIQQAKVQILPECVLPSTMSAVQLESLNKCQIFPSKPVSREDQCSYKWWQKYQKRKFHCANLTSWPRWLYSLYDAETLMDRIKKQLREWDENLKDDSLPSNPIDFSYRVAACLPIDDVLRIQLLKIGSAIQRLRCELDIMNKCTSLCCKQCQETEITTKNEIFSLSLCGPMAAYVNPHGYVHETLTVYKACNLNLIGRPSTEHSWFPGYAWTVAQCKICASHIGWKFTATKKDMSPQKFWGLTRSALLPTIPDTEDEISPDKVILCL

> <PDB ID(s) of Target Chain>
8TNR,8TNQ,8TNP,8D81,8D80,8D7Z,8D7Y,8D7X,8D7W,8D7V,8D7U,8CVP,9DQD,8UH6,6BOY,6BNB,6BN9,6BN8,6BN7,6XK9,6UML,5V3O,5HXB,7U8F,8OJH,8OIZ,7LPS,4TZ4,9DJX,9DJT,8U17,8U16,8U15,8TZX,8DEY,9CUO,4M91

> <UniProt (SwissProt) Recommended Name of Target Chain>
Protein cereblon

> <UniProt (SwissProt) Entry Name of Target Chain>
CRBN_HUMAN

> <UniProt (SwissProt) Primary ID of Target Chain>
Q96SW2

> <UniProt (SwissProt) Secondary ID(s) of Target Chain>
B2R6H4 C9IZA9 C9JAH6 Q6AI62 Q6NVZ0 Q9UHW4

> <UniProt (SwissProt) Alternative ID(s) of Target Chain>


> <UniProt (TrEMBL) Submitted Name of Target Chain>


> <UniProt (TrEMBL) Entry Name of Target Chain>


> <UniProt (TrEMBL) Primary ID of Target Chain>


> <UniProt (TrEMBL) Secondary ID(s) of Target Chain>


> <UniProt (TrEMBL) Alternative ID(s) of Target Chain>


$$$$
 
     RDKit          2D

 53 60  0  0  0  0  0  0  0  0999 V2000
    2.7281    0.3445    0.0000 C   0  0  0  0  0  0  0  0  0  0  0  0
    1.9393    0.5863    0.0000 C   0  0  0  0  0  0  0  0  0  0  0  0
    1.7542    1.3902    0.0000 C   0  0  0  0  0  0  0  0  0  0  0  0
    0.9655    1.6320    0.0000 C   0  0  0  0  0  0  0  0  0  0  0  0
    0.3618    1.0698    0.0000 C   0  0  0  0  0  0  0  0  0  0  0  0
   -0.4269    1.3115    0.0000 C   0  0  0  0  0  0  0  0  0  0  0  0
   -0.6120    2.1155    0.0000 N   0  0  0  0  0  0  0  0  0  0  0  0
   -0.0082    2.6777    0.0000 C   0  0  0  0  0  0  0  0  0  0  0  0
    0.7805    2.4359    0.0000 C   0  0  0  0  0  0  0  0  0  0  0  0
   -1.4007    2.3573    0.0000 C   0  0  0  0  0  0  0  0  0  0  0  0
   -2.0044    1.7950    0.0000 C   0  0  0  0  0  0  0  0  0  0  0  0
   -2.7932    2.0367    0.0000 N   0  0  0  0  0  0  0  0  0  0  0  0
   -3.3969    1.4745    0.0000 C   0  0  0  0  0  0  0  0  0  0  0  0
   -4.1856    1.7163    0.0000 C   0  0  0  0  0  0  0  0  0  0  0  0
   -4.7894    1.1541    0.0000 C   0  0  0  0  0  0  0  0  0  0  0  0
   -4.5449    0.3662    0.0000 N   0  0  0  0  0  0  0  0  0  0  0  0
   -5.0083   -0.3161    0.0000 C   0  0  0  0  0  0  0  0  0  0  0  0
   -4.5946   -1.0298    0.0000 C   0  0  0  0  0  0  0  0  0  0  0  0
   -5.0058   -1.7451    0.0000 C   0  0  0  0  0  0  0  0  0  0  0  0
   -4.5920   -2.4588    0.0000 C   0  0  0  0  0  0  0  0  0  0  0  0
   -3.7670   -2.4573    0.0000 C   0  0  0  0  0  0  0  0  0  0  0  0
   -3.3533   -3.1710    0.0000 Cl  0  0  0  0  0  0  0  0  0  0  0  0
   -3.3558   -1.7421    0.0000 C   0  0  0  0  0  0  0  0  0  0  0  0
   -3.7696   -1.0283    0.0000 C   0  0  0  0  0  0  0  0  0  0  0  0
   -5.8309   -0.3793    0.0000 C   0  0  0  0  0  0  0  0  0  0  0  0
   -6.2313   -1.1005    0.0000 C   0  0  0  0  0  0  0  0  0  0  0  0
   -5.8832   -1.8484    0.0000 C   0  0  0  0  0  0  0  0  0  0  0  0
   -7.0411   -0.9425    0.0000 C   0  0  0  0  0  0  0  0  0  0  0  0
   -7.6448   -1.5047    0.0000 C   0  0  0  0  0  0  0  0  0  0  0  0
   -7.1410   -0.1236    0.0000 S   0  0  0  0  0  0  0  0  0  0  0  0
   -6.3931    0.2244    0.0000 C   0  0  0  0  0  0  0  0  0  0  0  0
   -6.2716    1.0404    0.0000 N   0  0  0  0  0  0  0  0  0  0  0  0
   -6.8857    1.5913    0.0000 C   0  0  0  0  0  0  0  0  0  0  0  0
   -7.6923    1.4183    0.0000 C   0  0  0  0  0  0  0  0  0  0  0  0
   -6.5514    2.3455    0.0000 N   0  0  0  0  0  0  0  0  0  0  0  0
   -5.7309    2.2607    0.0000 N   0  0  0  0  0  0  0  0  0  0  0  0
   -5.5579    1.4541    0.0000 C   0  0  0  0  0  0  0  0  0  0  0  0
   -3.2119    0.6706    0.0000 O   0  0  0  0  0  0  0  0  0  0  0  0
    2.3580    1.9524    0.0000 C   0  0  0  0  0  0  0  0  0  0  0  0
    3.1467    1.7107    0.0000 C   0  0  0  0  0  0  0  0  0  0  0  0
    3.8542    2.1352    0.0000 C   0  0  0  0  0  0  0  0  0  0  0  0
    4.4764    1.5934    0.0000 N   0  0  0  0  0  0  0  0  0  0  0  0
    5.2803    1.7785    0.0000 C   0  0  0  0  0  0  0  0  0  0  0  0
    5.5221    2.5672    0.0000 C   0  0  0  0  0  0  0  0  0  0  0  0
    4.9599    3.1710    0.0000 O   0  0  0  0  0  0  0  0  0  0  0  0
    6.3260    2.7523    0.0000 N   0  0  0  0  0  0  0  0  0  0  0  0
    6.8883    2.1485    0.0000 C   0  0  0  0  0  0  0  0  0  0  0  0
    7.6923    2.3335    0.0000 O   0  0  0  0  0  0  0  0  0  0  0  0
    6.6466    1.3598    0.0000 C   0  0  0  0  0  0  0  0  0  0  0  0
    5.8426    1.1747    0.0000 C   0  0  0  0  0  0  0  0  0  0  0  0
    4.1536    0.8343    0.0000 C   0  0  0  0  0  0  0  0  0  0  0  0
    4.5780    0.1268    0.0000 O   0  0  0  0  0  0  0  0  0  0  0  0
    3.3317    0.9067    0.0000 C   0  0  0  0  0  0  0  0  0  0  0  0
  1  2  1  0
  2  3  2  0
  4  3  1  0
  4  5  1  0
  5  6  1  0
  6  7  1  0
  8  7  1  0
  8  9  1  0
  4  9  1  0
 10  7  1  0
 11 10  1  0
 12 11  1  0
 13 12  1  0
 13 14  1  0
 15 14  1  6
 15 16  1  0
 16 17  2  0
 17 18  1  0
 18 19  1  0
 19 20  2  0
 20 21  1  0
 21 22  1  0
 21 23  2  0
 23 24  1  0
 24 18  2  0
 17 25  1  0
 25 26  1  0
 26 27  1  0
 26 28  2  0
 28 29  1  0
 28 30  1  0
 31 30  1  0
 25 31  2  0
 32 31  1  0
 32 33  1  0
 33 34  1  0
 33 35  2  0
 35 36  1  0
 37 36  2  0
 37 32  1  0
 37 15  1  0
 13 38  2  0
  3 39  1  0
 39 40  2  0
 40 41  1  0
 42 41  1  0
 42 43  1  0
 43 44  1  0
 44 45  2  0
 44 46  1  0
 46 47  1  0
 47 48  2  0
 47 49  1  0
 49 50  1  0
 50 43  1  0
 51 42  1  0
 51 52  2  0
 53 51  1  0
 40 53  1  0
 53  1  2  0
M  END
> <From>
www.bindingDB.org

> <BindingDB Reactant_set_id>
51570534

> <Ligand InChI>
InChI=1S/C39H41ClN8O4S/c1-21-22(2)53-39-34(21)35(25-4-7-28(40)8-5-25)42-30(36-45-44-23(3)48(36)39)19-33(50)41-14-17-46-15-12-24(13-16-46)26-6-9-29-27(18-26)20-47(38(29)52)31-10-11-32(49)43-37(31)51/h4-9,18,24,30-31H,10-17,19-20H2,1-3H3,(H,41,50)(H,43,49,51)/t30-,31?/m0/s1

> <Ligand InChI Key>
DQGNINFYAAEZKL-FSRLHOSWSA-N

> <BindingDB MonomerID>
50631623

> <BindingDB Ligand Name>
CHEMBL5439152

> <Target Name>
Protein cereblon

> <Target Source Organism According to Curator or DataSource>
Homo sapiens

> <Ki (nM)>


> <IC50 (nM)>
 17

> <Kd (nM)>


> <EC50 (nM)>


> <kon (M-1-s-1)>


> <koff (s-1)>


> <pH>


> <Temp C>


> <Curation/DataSource>
ChEMBL

> <Article DOI>
10.1021/acs.jmedchem.3c01613

> <BindingDB Entry DOI>
10.7270/Q2T1583Z

> <PMID>
38096359

> <PubChem AID>


> <Patent Number>


> <Authors>
Arndt, CM; Bitai, J; Brunner, J; Opatz, T; Martinelli, P; Gollner, A; Sokol, KR; Krumb, M

> <Date of publication>
12/28/2023

> <Date in BindingDB>
12/21/2024

> <Institution>
Boehringer Ingelheim Rcv

> <Link to Ligand in BindingDB>
http://www.bindingdb.org/bind/chemsearch/marvin/MolStructure.jsp?monomerid=50631623

> <Link to Ligand-Target Pair in BindingDB>
http://www.bindingdb.org/jsp/dbsearch/PrimarySearch_ki.jsp?energyterm=kJ/mole&tag=pol&polymerid=50007050&target=Protein+cereblon&column=ki&startPg=0&Increment=50&submit=Search

> <Link to Ligand-Target Pair in BindingDB>
http://www.bindingdb.org/jsp/dbsearch/PrimarySearch_ki.jsp?energyterm=kJ/mole&tag=r21&monomerid=50631623&enzyme=Protein+cereblon&column=ki&startPg=0&Increment=50&submit=Search

> <Ligand HET ID in PDB>


> <PDB ID(s) for Ligand-Target Complex>


> <PubChem CID of Ligand>
170453132

> <PubChem SID of Ligand>
505035957

> <ChEBI ID of Ligand>


> <ChEMBL ID of Ligand>


> <DrugBank ID of Ligand>


> <IUPHAR_GRAC ID of Ligand>


> <KEGG ID of Ligand>


> <ZINC ID of Ligand>


> <Number of Protein Chains in Target (bigger than 1 implies a multichain complex)>
1

> <BindingDB Target Chain Sequence>
MAGEGDQQDAAHNMGNHLPLLPAESEEEDEMEVEDQDSKEAKKPNIINFDTSLPTSHTYLGADMEEFHGRTLHDDDSCQVIPVLPQVMMILIPGQTLPLQLFHPQEVSMVRNLIQKDRTFAVLAYSNVQEREAQFGTTAEIYAYREEQDFGIEIVKVKAIGRQRFKVLELRTQSDGIQQAKVQILPECVLPSTMSAVQLESLNKCQIFPSKPVSREDQCSYKWWQKYQKRKFHCANLTSWPRWLYSLYDAETLMDRIKKQLREWDENLKDDSLPSNPIDFSYRVAACLPIDDVLRIQLLKIGSAIQRLRCELDIMNKCTSLCCKQCQETEITTKNEIFSLSLCGPMAAYVNPHGYVHETLTVYKACNLNLIGRPSTEHSWFPGYAWTVAQCKICASHIGWKFTATKKDMSPQKFWGLTRSALLPTIPDTEDEISPDKVILCL

> <PDB ID(s) of Target Chain>
8TNR,8TNQ,8TNP,8D81,8D80,8D7Z,8D7Y,8D7X,8D7W,8D7V,8D7U,8CVP,9DQD,8UH6,6BOY,6BNB,6BN9,6BN8,6BN7,6XK9,6UML,5V3O,5HXB,7U8F,8OJH,8OIZ,7LPS,4TZ4,9DJX,9DJT,8U17,8U16,8U15,8TZX,8DEY,9CUO,4M91

> <UniProt (SwissProt) Recommended Name of Target Chain>
Protein cereblon

> <UniProt (SwissProt) Entry Name of Target Chain>
CRBN_HUMAN

> <UniProt (SwissProt) Primary ID of Target Chain>
Q96SW2

> <UniProt (SwissProt) Secondary ID(s) of Target Chain>
B2R6H4 C9IZA9 C9JAH6 Q6AI62 Q6NVZ0 Q9UHW4

> <UniProt (SwissProt) Alternative ID(s) of Target Chain>


> <UniProt (TrEMBL) Submitted Name of Target Chain>


> <UniProt (TrEMBL) Entry Name of Target Chain>


> <UniProt (TrEMBL) Primary ID of Target Chain>


> <UniProt (TrEMBL) Secondary ID(s) of Target Chain>


> <UniProt (TrEMBL) Alternative ID(s) of Target Chain>


$$$$
 
     RDKit          2D

 54 61  0  0  0  0  0  0  0  0999 V2000
    2.9480    3.4275    0.0000 C   0  0  0  0  0  0  0  0  0  0  0  0
    3.6666    3.0223    0.0000 C   0  0  0  0  0  0  0  0  0  0  0  0
    3.6750    2.1974    0.0000 C   0  0  0  0  0  0  0  0  0  0  0  0
    4.4622    1.9504    0.0000 C   0  0  0  0  0  0  0  0  0  0  0  0
    4.9403    2.6227    0.0000 N   0  0  0  0  0  0  0  0  0  0  0  0
    4.4486    3.2852    0.0000 C   0  0  0  0  0  0  0  0  0  0  0  0
    4.6954    4.0724    0.0000 O   0  0  0  0  0  0  0  0  0  0  0  0
    5.7652    2.6312    0.0000 C   0  0  0  0  0  0  0  0  0  0  0  0
    6.1704    3.3498    0.0000 C   0  0  0  0  0  0  0  0  0  0  0  0
    6.9953    3.3582    0.0000 C   0  0  0  0  0  0  0  0  0  0  0  0
    7.4151    2.6479    0.0000 C   0  0  0  0  0  0  0  0  0  0  0  0
    8.2400    2.6564    0.0000 O   0  0  0  0  0  0  0  0  0  0  0  0
    7.0099    1.9293    0.0000 N   0  0  0  0  0  0  0  0  0  0  0  0
    6.1849    1.9210    0.0000 C   0  0  0  0  0  0  0  0  0  0  0  0
    5.7798    1.2024    0.0000 O   0  0  0  0  0  0  0  0  0  0  0  0
    2.9648    1.7776    0.0000 C   0  0  0  0  0  0  0  0  0  0  0  0
    2.2461    2.1828    0.0000 C   0  0  0  0  0  0  0  0  0  0  0  0
    1.5359    1.7631    0.0000 C   0  0  0  0  0  0  0  0  0  0  0  0
    1.5444    0.9381    0.0000 C   0  0  0  0  0  0  0  0  0  0  0  0
    0.8342    0.5184    0.0000 C   0  0  0  0  0  0  0  0  0  0  0  0
    0.1155    0.9235    0.0000 N   0  0  0  0  0  0  0  0  0  0  0  0
   -0.5946    0.5038    0.0000 C   0  0  0  0  0  0  0  0  0  0  0  0
   -1.3132    0.9090    0.0000 C   0  0  0  0  0  0  0  0  0  0  0  0
   -2.0234    0.4892    0.0000 C   0  0  0  0  0  0  0  0  0  0  0  0
   -2.7421    0.8944    0.0000 N   0  0  0  0  0  0  0  0  0  0  0  0
   -3.4523    0.4746    0.0000 C   0  0  0  0  0  0  0  0  0  0  0  0
   -3.4438   -0.3503    0.0000 O   0  0  0  0  0  0  0  0  0  0  0  0
   -4.1708    0.8797    0.0000 C   0  0  0  0  0  0  0  0  0  0  0  0
   -4.8811    0.4600    0.0000 C   0  0  0  0  0  0  0  0  0  0  0  0
   -5.5674    0.9177    0.0000 C   0  0  0  0  0  0  0  0  0  0  0  0
   -6.3532    0.6665    0.0000 N   0  0  0  0  0  0  0  0  0  0  0  0
   -6.8350    1.3363    0.0000 C   0  0  0  0  0  0  0  0  0  0  0  0
   -6.3469    2.0014    0.0000 N   0  0  0  0  0  0  0  0  0  0  0  0
   -5.5635    1.7427    0.0000 N   0  0  0  0  0  0  0  0  0  0  0  0
   -7.6600    1.3401    0.0000 C   0  0  0  0  0  0  0  0  0  0  0  0
   -6.6468   -0.1044    0.0000 C   0  0  0  0  0  0  0  0  0  0  0  0
   -6.2270   -0.8146    0.0000 C   0  0  0  0  0  0  0  0  0  0  0  0
   -6.7727   -1.4333    0.0000 C   0  0  0  0  0  0  0  0  0  0  0  0
   -7.5298   -1.1055    0.0000 C   0  0  0  0  0  0  0  0  0  0  0  0
   -7.4520   -0.2841    0.0000 S   0  0  0  0  0  0  0  0  0  0  0  0
   -8.2400   -1.5253    0.0000 C   0  0  0  0  0  0  0  0  0  0  0  0
   -6.5930   -2.2384    0.0000 C   0  0  0  0  0  0  0  0  0  0  0  0
   -5.4100   -0.9292    0.0000 C   0  0  0  0  0  0  0  0  0  0  0  0
   -5.1588   -1.7150    0.0000 C   0  0  0  0  0  0  0  0  0  0  0  0
   -4.3526   -1.8904    0.0000 C   0  0  0  0  0  0  0  0  0  0  0  0
   -4.1015   -2.6761    0.0000 C   0  0  0  0  0  0  0  0  0  0  0  0
   -4.6564   -3.2866    0.0000 C   0  0  0  0  0  0  0  0  0  0  0  0
   -4.4052   -4.0724    0.0000 Cl  0  0  0  0  0  0  0  0  0  0  0  0
   -5.4625   -3.1111    0.0000 C   0  0  0  0  0  0  0  0  0  0  0  0
   -5.7136   -2.3255    0.0000 C   0  0  0  0  0  0  0  0  0  0  0  0
   -4.8110   -0.3619    0.0000 N   0  0  0  0  0  0  0  0  0  0  0  0
    0.1071    1.7485    0.0000 C   0  0  0  0  0  0  0  0  0  0  0  0
    0.8173    2.1682    0.0000 C   0  0  0  0  0  0  0  0  0  0  0  0
    2.2378    3.0078    0.0000 C   0  0  0  0  0  0  0  0  0  0  0  0
  2  1  2  0
  3  2  1  0
  3  4  1  0
  5  4  1  0
  2  6  1  0
  6  5  1  0
  6  7  2  0
  5  8  1  0
  9  8  1  0
 10  9  1  0
 11 10  1  0
 11 12  2  0
 13 11  1  0
 14 13  1  0
  8 14  1  0
 14 15  2  0
 16  3  2  0
 17 16  1  0
 18 17  1  0
 18 19  1  0
 20 19  1  0
 20 21  1  0
 21 22  1  0
 23 22  1  0
 24 23  1  0
 25 24  1  0
 26 25  1  0
 26 27  2  0
 26 28  1  0
 29 28  1  6
 30 29  1  0
 30 31  1  0
 31 32  1  0
 32 33  2  0
 30 34  2  0
 33 34  1  0
 32 35  1  0
 31 36  1  0
 37 36  2  0
 37 38  1  0
 38 39  2  0
 36 40  1  0
 39 40  1  0
 39 41  1  0
 38 42  1  0
 43 37  1  0
 43 44  1  0
 45 44  2  0
 46 45  1  0
 47 46  2  0
 47 48  1  0
 49 47  1  0
 50 49  2  0
 44 50  1  0
 51 43  2  0
 29 51  1  0
 52 21  1  0
 53 52  1  0
 18 53  1  0
 54 17  2  0
  1 54  1  0
M  END
> <From>
www.bindingDB.org

> <BindingDB Reactant_set_id>
51570535

> <Ligand InChI>
InChI=1S/C40H43ClN8O4S/c1-22-23(2)54-40-35(22)36(26-5-8-29(41)9-6-26)43-31(37-46-45-24(3)49(37)40)20-34(51)42-15-4-16-47-17-13-25(14-18-47)27-7-10-30-28(19-27)21-48(39(30)53)32-11-12-33(50)44-38(32)52/h5-10,19,25,31-32H,4,11-18,20-21H2,1-3H3,(H,42,51)(H,44,50,52)/t31-,32?/m0/s1

> <Ligand InChI Key>
ZCOPIRBPZIGHDU-CYZZXXEPSA-N

> <BindingDB MonomerID>
50631624

> <BindingDB Ligand Name>
CHEMBL5405846

> <Target Name>
Protein cereblon

> <Target Source Organism According to Curator or DataSource>
Homo sapiens

> <Ki (nM)>


> <IC50 (nM)>
 18

> <Kd (nM)>


> <EC50 (nM)>


> <kon (M-1-s-1)>


> <koff (s-1)>


> <pH>


> <Temp C>


> <Curation/DataSource>
ChEMBL

> <Article DOI>
10.1021/acs.jmedchem.3c01613

> <BindingDB Entry DOI>
10.7270/Q2T1583Z

> <PMID>
38096359

> <PubChem AID>


> <Patent Number>


> <Authors>
Arndt, CM; Bitai, J; Brunner, J; Opatz, T; Martinelli, P; Gollner, A; Sokol, KR; Krumb, M

> <Date of publication>
12/28/2023

> <Date in BindingDB>
12/21/2024

> <Institution>
Boehringer Ingelheim Rcv

> <Link to Ligand in BindingDB>
http://www.bindingdb.org/bind/chemsearch/marvin/MolStructure.jsp?monomerid=50631624

> <Link to Ligand-Target Pair in BindingDB>
http://www.bindingdb.org/jsp/dbsearch/PrimarySearch_ki.jsp?energyterm=kJ/mole&tag=pol&polymerid=50007050&target=Protein+cereblon&column=ki&startPg=0&Increment=50&submit=Search

> <Link to Ligand-Target Pair in BindingDB>
http://www.bindingdb.org/jsp/dbsearch/PrimarySearch_ki.jsp?energyterm=kJ/mole&tag=r21&monomerid=50631624&enzyme=Protein+cereblon&column=ki&startPg=0&Increment=50&submit=Search

> <Ligand HET ID in PDB>


> <PDB ID(s) for Ligand-Target Complex>


> <PubChem CID of Ligand>
172446978

> <PubChem SID of Ligand>
505035958

> <ChEBI ID of Ligand>


> <ChEMBL ID of Ligand>


> <DrugBank ID of Ligand>


> <IUPHAR_GRAC ID of Ligand>


> <KEGG ID of Ligand>


> <ZINC ID of Ligand>


> <Number of Protein Chains in Target (bigger than 1 implies a multichain complex)>
1

> <BindingDB Target Chain Sequence>
MAGEGDQQDAAHNMGNHLPLLPAESEEEDEMEVEDQDSKEAKKPNIINFDTSLPTSHTYLGADMEEFHGRTLHDDDSCQVIPVLPQVMMILIPGQTLPLQLFHPQEVSMVRNLIQKDRTFAVLAYSNVQEREAQFGTTAEIYAYREEQDFGIEIVKVKAIGRQRFKVLELRTQSDGIQQAKVQILPECVLPSTMSAVQLESLNKCQIFPSKPVSREDQCSYKWWQKYQKRKFHCANLTSWPRWLYSLYDAETLMDRIKKQLREWDENLKDDSLPSNPIDFSYRVAACLPIDDVLRIQLLKIGSAIQRLRCELDIMNKCTSLCCKQCQETEITTKNEIFSLSLCGPMAAYVNPHGYVHETLTVYKACNLNLIGRPSTEHSWFPGYAWTVAQCKICASHIGWKFTATKKDMSPQKFWGLTRSALLPTIPDTEDEISPDKVILCL

> <PDB ID(s) of Target Chain>
8TNR,8TNQ,8TNP,8D81,8D80,8D7Z,8D7Y,8D7X,8D7W,8D7V,8D7U,8CVP,9DQD,8UH6,6BOY,6BNB,6BN9,6BN8,6BN7,6XK9,6UML,5V3O,5HXB,7U8F,8OJH,8OIZ,7LPS,4TZ4,9DJX,9DJT,8U17,8U16,8U15,8TZX,8DEY,9CUO,4M91

> <UniProt (SwissProt) Recommended Name of Target Chain>
Protein cereblon

> <UniProt (SwissProt) Entry Name of Target Chain>
CRBN_HUMAN

> <UniProt (SwissProt) Primary ID of Target Chain>
Q96SW2

> <UniProt (SwissProt) Secondary ID(s) of Target Chain>
B2R6H4 C9IZA9 C9JAH6 Q6AI62 Q6NVZ0 Q9UHW4

> <UniProt (SwissProt) Alternative ID(s) of Target Chain>


> <UniProt (TrEMBL) Submitted Name of Target Chain>


> <UniProt (TrEMBL) Entry Name of Target Chain>


> <UniProt (TrEMBL) Primary ID of Target Chain>


> <UniProt (TrEMBL) Secondary ID(s) of Target Chain>


> <UniProt (TrEMBL) Alternative ID(s) of Target Chain>


$$$$
 
     RDKit          2D

 55 62  0  0  0  0  0  0  0  0999 V2000
   -3.2947    0.3046    0.0000 C   0  0  0  0  0  0  0  0  0  0  0  0
   -4.0075   -0.1107    0.0000 O   0  0  0  0  0  0  0  0  0  0  0  0
   -3.2981    1.1296    0.0000 C   0  0  0  0  0  0  0  0  0  0  0  0
   -4.0141    1.5391    0.0000 C   0  0  0  0  0  0  0  0  0  0  0  0
   -3.9558    2.3621    0.0000 C   0  0  0  0  0  0  0  0  0  0  0  0
   -4.5629    2.9208    0.0000 N   0  0  0  0  0  0  0  0  0  0  0  0
   -4.2191    3.6707    0.0000 C   0  0  0  0  0  0  0  0  0  0  0  0
   -3.3996    3.5755    0.0000 N   0  0  0  0  0  0  0  0  0  0  0  0
   -3.2369    2.7668    0.0000 N   0  0  0  0  0  0  0  0  0  0  0  0
   -4.6238    4.3896    0.0000 C   0  0  0  0  0  0  0  0  0  0  0  0
   -5.3780    2.7945    0.0000 C   0  0  0  0  0  0  0  0  0  0  0  0
   -5.7877    2.0783    0.0000 C   0  0  0  0  0  0  0  0  0  0  0  0
   -6.5954    2.2467    0.0000 C   0  0  0  0  0  0  0  0  0  0  0  0
   -6.6849    3.0668    0.0000 C   0  0  0  0  0  0  0  0  0  0  0  0
   -5.9326    3.4054    0.0000 S   0  0  0  0  0  0  0  0  0  0  0  0
   -7.4010    3.4763    0.0000 C   0  0  0  0  0  0  0  0  0  0  0  0
   -7.2062    1.6922    0.0000 C   0  0  0  0  0  0  0  0  0  0  0  0
   -5.4832    1.3117    0.0000 C   0  0  0  0  0  0  0  0  0  0  0  0
   -6.0419    0.7046    0.0000 C   0  0  0  0  0  0  0  0  0  0  0  0
   -5.7955   -0.0826    0.0000 C   0  0  0  0  0  0  0  0  0  0  0  0
   -6.3541   -0.6896    0.0000 C   0  0  0  0  0  0  0  0  0  0  0  0
   -7.1593   -0.5093    0.0000 C   0  0  0  0  0  0  0  0  0  0  0  0
   -7.7179   -1.1163    0.0000 Cl  0  0  0  0  0  0  0  0  0  0  0  0
   -7.4056    0.2779    0.0000 C   0  0  0  0  0  0  0  0  0  0  0  0
   -6.8469    0.8850    0.0000 C   0  0  0  0  0  0  0  0  0  0  0  0
   -4.6939    1.0717    0.0000 N   0  0  0  0  0  0  0  0  0  0  0  0
   -2.5785   -0.1049    0.0000 N   0  0  0  0  0  0  0  0  0  0  0  0
   -2.5753   -0.9298    0.0000 C   0  0  0  0  0  0  0  0  0  0  0  0
   -1.8591   -1.3394    0.0000 C   0  0  0  0  0  0  0  0  0  0  0  0
   -1.8557   -2.1644    0.0000 N   0  0  0  0  0  0  0  0  0  0  0  0
   -1.1397   -2.5740    0.0000 C   0  0  0  0  0  0  0  0  0  0  0  0
   -1.1363   -3.3990    0.0000 C   0  0  0  0  0  0  0  0  0  0  0  0
   -0.4203   -3.8085    0.0000 C   0  0  0  0  0  0  0  0  0  0  0  0
    0.2924   -3.3932    0.0000 C   0  0  0  0  0  0  0  0  0  0  0  0
    0.2891   -2.5682    0.0000 C   0  0  0  0  0  0  0  0  0  0  0  0
   -0.4269   -2.1586    0.0000 C   0  0  0  0  0  0  0  0  0  0  0  0
    1.0085   -3.8028    0.0000 C   0  0  0  0  0  0  0  0  0  0  0  0
    1.7213   -3.3874    0.0000 C   0  0  0  0  0  0  0  0  0  0  0  0
    1.7180   -2.5625    0.0000 C   0  0  0  0  0  0  0  0  0  0  0  0
    2.4308   -2.1471    0.0000 C   0  0  0  0  0  0  0  0  0  0  0  0
    3.1468   -2.5567    0.0000 C   0  0  0  0  0  0  0  0  0  0  0  0
    3.1502   -3.3816    0.0000 C   0  0  0  0  0  0  0  0  0  0  0  0
    2.4373   -3.7970    0.0000 C   0  0  0  0  0  0  0  0  0  0  0  0
    3.9358   -3.6334    0.0000 C   0  0  0  0  0  0  0  0  0  0  0  0
    4.4180   -2.9640    0.0000 N   0  0  0  0  0  0  0  0  0  0  0  0
    3.9305   -2.2986    0.0000 C   0  0  0  0  0  0  0  0  0  0  0  0
    4.1822   -1.5129    0.0000 O   0  0  0  0  0  0  0  0  0  0  0  0
    5.2430   -2.9607    0.0000 C   0  0  0  0  0  0  0  0  0  0  0  0
    5.6525   -2.2446    0.0000 C   0  0  0  0  0  0  0  0  0  0  0  0
    6.4775   -2.2411    0.0000 C   0  0  0  0  0  0  0  0  0  0  0  0
    6.8929   -2.9540    0.0000 C   0  0  0  0  0  0  0  0  0  0  0  0
    6.4833   -3.6701    0.0000 N   0  0  0  0  0  0  0  0  0  0  0  0
    5.6584   -3.6735    0.0000 C   0  0  0  0  0  0  0  0  0  0  0  0
    5.2488   -4.3896    0.0000 O   0  0  0  0  0  0  0  0  0  0  0  0
    7.7179   -2.9507    0.0000 O   0  0  0  0  0  0  0  0  0  0  0  0
  1  2  2  0
  1  3  1  0
  4  3  1  6
  5  4  1  0
  5  6  1  0
  6  7  1  0
  7  8  2  0
  5  9  2  0
  8  9  1  0
  7 10  1  0
  6 11  1  0
 12 11  2  0
 12 13  1  0
 13 14  2  0
 11 15  1  0
 14 15  1  0
 14 16  1  0
 13 17  1  0
 18 12  1  0
 18 19  1  0
 20 19  2  0
 21 20  1  0
 22 21  2  0
 22 23  1  0
 24 22  1  0
 25 24  2  0
 19 25  1  0
 26 18  2  0
  4 26  1  0
  1 27  1  0
 27 28  1  0
 28 29  1  0
 29 30  1  0
 30 31  1  0
 31 32  1  0
 32 33  2  0
 33 34  1  0
 34 35  2  0
 36 31  2  0
 35 36  1  0
 34 37  1  0
 37 38  1  0
 39 38  2  0
 40 39  1  0
 41 40  2  0
 42 41  1  0
 43 42  2  0
 38 43  1  0
 42 44  1  0
 45 44  1  0
 46 45  1  0
 41 46  1  0
 46 47  2  0
 45 48  1  0
 49 48  1  0
 50 49  1  0
 51 50  1  0
 52 51  1  0
 53 52  1  0
 48 53  1  0
 53 54  2  0
 51 55  2  0
M  END
> <From>
www.bindingDB.org

> <BindingDB Reactant_set_id>
51570540

> <Ligand InChI>
InChI=1S/C41H39ClN8O4S/c1-22-23(2)55-41-36(22)37(27-7-9-29(42)10-8-27)45-32(38-48-47-24(3)50(38)41)20-35(52)44-17-16-43-30-11-4-25(5-12-30)18-26-6-13-31-28(19-26)21-49(40(31)54)33-14-15-34(51)46-39(33)53/h4-13,19,32-33,43H,14-18,20-21H2,1-3H3,(H,44,52)(H,46,51,53)/t32-,33?/m0/s1

> <Ligand InChI Key>
SGHSUUSYNYZHKK-JEFWXSHNSA-N

> <BindingDB MonomerID>
50631629

> <BindingDB Ligand Name>
CHEMBL5420072

> <Target Name>
Protein cereblon

> <Target Source Organism According to Curator or DataSource>
Homo sapiens

> <Ki (nM)>


> <IC50 (nM)>
 18

> <Kd (nM)>


> <EC50 (nM)>


> <kon (M-1-s-1)>


> <koff (s-1)>


> <pH>


> <Temp C>


> <Curation/DataSource>
ChEMBL

> <Article DOI>
10.1021/acs.jmedchem.3c01613

> <BindingDB Entry DOI>
10.7270/Q2T1583Z

> <PMID>
38096359

> <PubChem AID>


> <Patent Number>


> <Authors>
Arndt, CM; Bitai, J; Brunner, J; Opatz, T; Martinelli, P; Gollner, A; Sokol, KR; Krumb, M

> <Date of publication>
12/28/2023

> <Date in BindingDB>
12/21/2024

> <Institution>
Boehringer Ingelheim Rcv

> <Link to Ligand in BindingDB>
http://www.bindingdb.org/bind/chemsearch/marvin/MolStructure.jsp?monomerid=50631629

> <Link to Ligand-Target Pair in BindingDB>
http://www.bindingdb.org/jsp/dbsearch/PrimarySearch_ki.jsp?energyterm=kJ/mole&tag=pol&polymerid=50007050&target=Protein+cereblon&column=ki&startPg=0&Increment=50&submit=Search

> <Link to Ligand-Target Pair in BindingDB>
http://www.bindingdb.org/jsp/dbsearch/PrimarySearch_ki.jsp?energyterm=kJ/mole&tag=r21&monomerid=50631629&enzyme=Protein+cereblon&column=ki&startPg=0&Increment=50&submit=Search

> <Ligand HET ID in PDB>


> <PDB ID(s) for Ligand-Target Complex>


> <PubChem CID of Ligand>
172457336

> <PubChem SID of Ligand>
505035963

> <ChEBI ID of Ligand>


> <ChEMBL ID of Ligand>


> <DrugBank ID of Ligand>


> <IUPHAR_GRAC ID of Ligand>


> <KEGG ID of Ligand>


> <ZINC ID of Ligand>


> <Number of Protein Chains in Target (bigger than 1 implies a multichain complex)>
1

> <BindingDB Target Chain Sequence>
MAGEGDQQDAAHNMGNHLPLLPAESEEEDEMEVEDQDSKEAKKPNIINFDTSLPTSHTYLGADMEEFHGRTLHDDDSCQVIPVLPQVMMILIPGQTLPLQLFHPQEVSMVRNLIQKDRTFAVLAYSNVQEREAQFGTTAEIYAYREEQDFGIEIVKVKAIGRQRFKVLELRTQSDGIQQAKVQILPECVLPSTMSAVQLESLNKCQIFPSKPVSREDQCSYKWWQKYQKRKFHCANLTSWPRWLYSLYDAETLMDRIKKQLREWDENLKDDSLPSNPIDFSYRVAACLPIDDVLRIQLLKIGSAIQRLRCELDIMNKCTSLCCKQCQETEITTKNEIFSLSLCGPMAAYVNPHGYVHETLTVYKACNLNLIGRPSTEHSWFPGYAWTVAQCKICASHIGWKFTATKKDMSPQKFWGLTRSALLPTIPDTEDEISPDKVILCL

> <PDB ID(s) of Target Chain>
8TNR,8TNQ,8TNP,8D81,8D80,8D7Z,8D7Y,8D7X,8D7W,8D7V,8D7U,8CVP,9DQD,8UH6,6BOY,6BNB,6BN9,6BN8,6BN7,6XK9,6UML,5V3O,5HXB,7U8F,8OJH,8OIZ,7LPS,4TZ4,9DJX,9DJT,8U17,8U16,8U15,8TZX,8DEY,9CUO,4M91

> <UniProt (SwissProt) Recommended Name of Target Chain>
Protein cereblon

> <UniProt (SwissProt) Entry Name of Target Chain>
CRBN_HUMAN

> <UniProt (SwissProt) Primary ID of Target Chain>
Q96SW2

> <UniProt (SwissProt) Secondary ID(s) of Target Chain>
B2R6H4 C9IZA9 C9JAH6 Q6AI62 Q6NVZ0 Q9UHW4

> <UniProt (SwissProt) Alternative ID(s) of Target Chain>


> <UniProt (TrEMBL) Submitted Name of Target Chain>


> <UniProt (TrEMBL) Entry Name of Target Chain>


> <UniProt (TrEMBL) Primary ID of Target Chain>


> <UniProt (TrEMBL) Secondary ID(s) of Target Chain>


> <UniProt (TrEMBL) Alternative ID(s) of Target Chain>


$$$$
 
     RDKit          2D

 55 61  0  0  0  0  0  0  0  0999 V2000
   17.8379   -1.2918    0.0000 O   0  0  0  0  0  0  0  0  0  0  0  0
   18.4198   -1.8738    0.0000 S   0  0  0  0  0  0  0  0  0  0  0  0
   18.6328   -1.0788    0.0000 O   0  0  0  0  0  0  0  0  0  0  0  0
   15.6820   -6.6200    0.0000 N   0  0  0  0  0  0  0  0  0  0  0  0
   15.6809   -7.4396    0.0000 C   0  0  0  0  0  0  0  0  0  0  0  0
   16.3890   -7.8485    0.0000 N   0  0  0  0  0  0  0  0  0  0  0  0
   16.3872   -6.2112    0.0000 C   0  0  0  0  0  0  0  0  0  0  0  0
   17.0958   -6.6164    0.0000 C   0  0  0  0  0  0  0  0  0  0  0  0
   17.1006   -7.4350    0.0000 C   0  0  0  0  0  0  0  0  0  0  0  0
   17.8806   -7.6835    0.0000 N   0  0  0  0  0  0  0  0  0  0  0  0
   18.3580   -7.0184    0.0000 C   0  0  0  0  0  0  0  0  0  0  0  0
   17.8729   -6.3590    0.0000 C   0  0  0  0  0  0  0  0  0  0  0  0
   16.3816   -5.3967    0.0000 C   0  0  0  0  0  0  0  0  0  0  0  0
   17.0412   -4.9144    0.0000 C   0  0  0  0  0  0  0  0  0  0  0  0
   16.7864   -4.1380    0.0000 N   0  0  0  0  0  0  0  0  0  0  0  0
   15.9691   -4.1404    0.0000 N   0  0  0  0  0  0  0  0  0  0  0  0
   15.7191   -4.9184    0.0000 C   0  0  0  0  0  0  0  0  0  0  0  0
   14.9729   -7.8476    0.0000 N   0  0  0  0  0  0  0  0  0  0  0  0
   14.2655   -7.4385    0.0000 C   0  0  0  0  0  0  0  0  0  0  0  0
   14.2707   -6.6214    0.0000 C   0  0  0  0  0  0  0  0  0  0  0  0
   13.5641   -6.2123    0.0000 C   0  0  0  0  0  0  0  0  0  0  0  0
   12.8551   -6.6204    0.0000 C   0  0  0  0  0  0  0  0  0  0  0  0
   12.8571   -7.4418    0.0000 C   0  0  0  0  0  0  0  0  0  0  0  0
   13.5642   -7.8472    0.0000 C   0  0  0  0  0  0  0  0  0  0  0  0
   12.1472   -6.2122    0.0000 C   0  0  0  0  0  0  0  0  0  0  0  0
   12.1467   -5.3950    0.0000 O   0  0  0  0  0  0  0  0  0  0  0  0
   11.4397   -6.6212    0.0000 N   0  0  0  0  0  0  0  0  0  0  0  0
   10.7318   -6.2129    0.0000 C   0  0  0  0  0  0  0  0  0  0  0  0
   17.2647   -3.4754    0.0000 C   0  0  0  0  0  0  0  0  0  0  0  0
   18.0757   -3.3451    0.0000 C   0  0  0  0  0  0  0  0  0  0  0  0
   17.9455   -2.5384    0.0000 N   0  0  0  0  0  0  0  0  0  0  0  0
   17.1387   -2.6686    0.0000 C   0  0  0  0  0  0  0  0  0  0  0  0
   19.2368   -1.9588    0.0000 C   0  0  0  0  0  0  0  0  0  0  0  0
   19.7165   -1.2972    0.0000 C   0  0  0  0  0  0  0  0  0  0  0  0
   17.8420   -4.0529    0.0000 C   0  0  0  0  0  0  0  0  0  0  0  0
   18.6314   -3.8416    0.0000 C   0  0  0  0  0  0  0  0  0  0  0  0
   19.4199   -3.6315    0.0000 N   0  0  0  0  0  0  0  0  0  0  0  0
   10.0243   -6.6219    0.0000 C   0  0  0  0  0  0  0  0  0  0  0  0
    9.3164   -6.2137    0.0000 C   0  0  0  0  0  0  0  0  0  0  0  0
    8.6089   -6.6227    0.0000 C   0  0  0  0  0  0  0  0  0  0  0  0
    7.9009   -6.2145    0.0000 O   0  0  0  0  0  0  0  0  0  0  0  0
    7.1934   -6.6234    0.0000 C   0  0  0  0  0  0  0  0  0  0  0  0
    5.7817   -7.4406    0.0000 C   0  0  0  0  0  0  0  0  0  0  0  0
    6.4946   -7.8487    0.0000 C   0  0  0  0  0  0  0  0  0  0  0  0
    7.1987   -7.4380    0.0000 C   0  0  0  0  0  0  0  0  0  0  0  0
    5.7817   -6.6226    0.0000 C   0  0  0  0  0  0  0  0  0  0  0  0
    6.4904   -6.2098    0.0000 C   0  0  0  0  0  0  0  0  0  0  0  0
    5.0697   -6.2195    0.0000 C   0  0  0  0  0  0  0  0  0  0  0  0
    5.0701   -5.4014    0.0000 C   0  0  0  0  0  0  0  0  0  0  0  0
    4.3656   -4.9942    0.0000 N   0  0  0  0  0  0  0  0  0  0  0  0
    3.6563   -5.4007    0.0000 C   0  0  0  0  0  0  0  0  0  0  0  0
    3.6559   -6.2188    0.0000 C   0  0  0  0  0  0  0  0  0  0  0  0
    4.3649   -6.6305    0.0000 C   0  0  0  0  0  0  0  0  0  0  0  0
    2.9494   -4.9908    0.0000 O   0  0  0  0  0  0  0  0  0  0  0  0
    5.7780   -4.9931    0.0000 O   0  0  0  0  0  0  0  0  0  0  0  0
  2  1  2  0
  3  2  2  0
  4  5  2  0
  5  6  1  0
  6  9  2  0
  8  7  2  0
  7  4  1  0
  8  9  1  0
  9 10  1  0
 10 11  1  0
 11 12  2  0
 12  8  1  0
 13 14  2  0
 14 15  1  0
 15 16  1  0
 16 17  2  0
 17 13  1  0
  7 13  1  0
  5 18  1  0
 18 19  1  0
 19 20  2  0
 20 21  1  0
 21 22  2  0
 22 23  1  0
 23 24  2  0
 24 19  1  0
 22 25  1  0
 25 26  2  0
 25 27  1  0
 27 28  1  0
 15 29  1  0
 29 30  1  0
 30 31  1  0
 31 32  1  0
 32 29  1  0
 31  2  1  0
  2 33  1  0
 33 34  1  0
 29 35  1  0
 35 36  1  0
 36 37  3  0
 28 38  1  0
 38 39  1  0
 39 40  1  0
 40 41  1  0
 41 42  1  0
 42 47  2  0
 46 43  2  0
 43 44  1  0
 44 45  2  0
 45 42  1  0
 46 47  1  0
 48 49  1  0
 48 53  1  0
 49 50  1  0
 50 51  1  0
 51 52  1  0
 52 53  1  0
 46 48  1  0
 51 54  2  0
 49 55  2  0
M  END
> <From>
www.bindingDB.org

> <BindingDB Reactant_set_id>
51451987

> <Ligand InChI>


> <Ligand InChI Key>


> <BindingDB MonomerID>
50586182

> <BindingDB Ligand Name>
CHEMBL5073737

> <Target Name>
Protein cereblon

> <Target Source Organism According to Curator or DataSource>
Human

> <Ki (nM)>


> <IC50 (nM)>
 19

> <Kd (nM)>


> <EC50 (nM)>


> <kon (M-1-s-1)>


> <koff (s-1)>


> <pH>


> <Temp C>


> <Curation/DataSource>
ChEMBL

> <Article DOI>
10.1021/acsmedchemlett.1c00650

> <BindingDB Entry DOI>
10.7270/Q2D79GBF

> <PMID>
35300081

> <PubChem AID>


> <Patent Number>


> <Authors>
Alcock, LJ; Chang, Y; Jarusiewicz, JA; Actis, M; Nithianantham, S; Mayasundari, A; Min, J; Maxwell, D; Hunt, J; Smart, B; Yang, JJ; Nishiguchi, G; Fischer, M; Mullighan, CG; Rankovic, Z

> <Date of publication>
3/10/2022

> <Date in BindingDB>
3/7/2023

> <Institution>
St. Jude Children's Research Hospital

> <Link to Ligand in BindingDB>
http://www.bindingdb.org/bind/chemsearch/marvin/MolStructure.jsp?monomerid=50586182

> <Link to Ligand-Target Pair in BindingDB>
http://www.bindingdb.org/jsp/dbsearch/PrimarySearch_ki.jsp?energyterm=kJ/mole&tag=pol&polymerid=50007050&target=Protein+cereblon&column=ki&startPg=0&Increment=50&submit=Search

> <Link to Ligand-Target Pair in BindingDB>
http://www.bindingdb.org/jsp/dbsearch/PrimarySearch_ki.jsp?energyterm=kJ/mole&tag=r21&monomerid=50586182&enzyme=Protein+cereblon&column=ki&startPg=0&Increment=50&submit=Search

> <Ligand HET ID in PDB>


> <PDB ID(s) for Ligand-Target Complex>


> <PubChem CID of Ligand>
164540918

> <PubChem SID of Ligand>
476022269

> <ChEBI ID of Ligand>


> <ChEMBL ID of Ligand>


> <DrugBank ID of Ligand>


> <IUPHAR_GRAC ID of Ligand>


> <KEGG ID of Ligand>


> <ZINC ID of Ligand>


> <Number of Protein Chains in Target (bigger than 1 implies a multichain complex)>
1

> <BindingDB Target Chain Sequence>
MAGEGDQQDAAHNMGNHLPLLPAESEEEDEMEVEDQDSKEAKKPNIINFDTSLPTSHTYLGADMEEFHGRTLHDDDSCQVIPVLPQVMMILIPGQTLPLQLFHPQEVSMVRNLIQKDRTFAVLAYSNVQEREAQFGTTAEIYAYREEQDFGIEIVKVKAIGRQRFKVLELRTQSDGIQQAKVQILPECVLPSTMSAVQLESLNKCQIFPSKPVSREDQCSYKWWQKYQKRKFHCANLTSWPRWLYSLYDAETLMDRIKKQLREWDENLKDDSLPSNPIDFSYRVAACLPIDDVLRIQLLKIGSAIQRLRCELDIMNKCTSLCCKQCQETEITTKNEIFSLSLCGPMAAYVNPHGYVHETLTVYKACNLNLIGRPSTEHSWFPGYAWTVAQCKICASHIGWKFTATKKDMSPQKFWGLTRSALLPTIPDTEDEISPDKVILCL

> <PDB ID(s) of Target Chain>
4TZ4,5HXB,5V3O,6UML,6XK9,7LPS,7U8F,8CVP,8D7U,8D7V,8D7W,8D7X,8D7Y,8D7Z,8D80,8D81,8DEY,8OIZ,8OJH

> <UniProt (SwissProt) Recommended Name of Target Chain>
Protein cereblon

> <UniProt (SwissProt) Entry Name of Target Chain>
CRBN_HUMAN

> <UniProt (SwissProt) Primary ID of Target Chain>
Q96SW2

> <UniProt (SwissProt) Secondary ID(s) of Target Chain>
B2R6H4 C9IZA9 C9JAH6 Q6AI62 Q6NVZ0 Q9UHW4

> <UniProt (SwissProt) Alternative ID(s) of Target Chain>


> <UniProt (TrEMBL) Submitted Name of Target Chain>


> <UniProt (TrEMBL) Entry Name of Target Chain>


> <UniProt (TrEMBL) Primary ID of Target Chain>


> <UniProt (TrEMBL) Secondary ID(s) of Target Chain>


> <UniProt (TrEMBL) Alternative ID(s) of Target Chain>


$$$$
 
     RDKit          2D

 59 66  0  0  0  0  0  0  0  0999 V2000
    5.5108   -1.1108    0.0000 C   0  0  0  0  0  0  0  0  0  0  0  0
    5.4894   -1.9355    0.0000 C   0  0  0  0  0  0  0  0  0  0  0  0
    4.7645   -2.3294    0.0000 C   0  0  0  0  0  0  0  0  0  0  0  0
    4.0609   -1.8985    0.0000 C   0  0  0  0  0  0  0  0  0  0  0  0
    4.0823   -1.0738    0.0000 C   0  0  0  0  0  0  0  0  0  0  0  0
    3.3787   -0.6430    0.0000 C   0  0  0  0  0  0  0  0  0  0  0  0
    2.6538   -1.0368    0.0000 C   0  0  0  0  0  0  0  0  0  0  0  0
    1.9503   -0.6059    0.0000 N   0  0  0  0  0  0  0  0  0  0  0  0
    1.2254   -0.9998    0.0000 C   0  0  0  0  0  0  0  0  0  0  0  0
    0.5218   -0.5689    0.0000 C   0  0  0  0  0  0  0  0  0  0  0  0
   -0.2030   -0.9629    0.0000 C   0  0  0  0  0  0  0  0  0  0  0  0
   -0.9066   -0.5320    0.0000 C   0  0  0  0  0  0  0  0  0  0  0  0
   -1.6315   -0.9259    0.0000 C   0  0  0  0  0  0  0  0  0  0  0  0
   -2.3350   -0.4950    0.0000 C   0  0  0  0  0  0  0  0  0  0  0  0
   -3.0598   -0.8888    0.0000 N   0  0  0  0  0  0  0  0  0  0  0  0
   -3.7635   -0.4580    0.0000 C   0  0  0  0  0  0  0  0  0  0  0  0
   -4.4884   -0.8519    0.0000 C   0  0  0  0  0  0  0  0  0  0  0  0
   -5.1920   -0.4210    0.0000 C   0  0  0  0  0  0  0  0  0  0  0  0
   -5.8854   -0.8679    0.0000 N   0  0  0  0  0  0  0  0  0  0  0  0
   -6.6672   -0.6044    0.0000 C   0  0  0  0  0  0  0  0  0  0  0  0
   -7.2438   -1.1944    0.0000 C   0  0  0  0  0  0  0  0  0  0  0  0
   -8.0431   -0.9901    0.0000 C   0  0  0  0  0  0  0  0  0  0  0  0
   -8.6197   -1.5801    0.0000 C   0  0  0  0  0  0  0  0  0  0  0  0
   -8.3970   -2.3745    0.0000 C   0  0  0  0  0  0  0  0  0  0  0  0
   -8.9736   -2.9646    0.0000 Cl  0  0  0  0  0  0  0  0  0  0  0  0
   -7.5977   -2.5789    0.0000 C   0  0  0  0  0  0  0  0  0  0  0  0
   -7.0211   -1.9888    0.0000 C   0  0  0  0  0  0  0  0  0  0  0  0
   -6.9486    0.1710    0.0000 C   0  0  0  0  0  0  0  0  0  0  0  0
   -7.7509    0.3633    0.0000 C   0  0  0  0  0  0  0  0  0  0  0  0
   -8.3781   -0.1724    0.0000 C   0  0  0  0  0  0  0  0  0  0  0  0
   -7.8159    1.1858    0.0000 C   0  0  0  0  0  0  0  0  0  0  0  0
   -8.5193    1.6166    0.0000 C   0  0  0  0  0  0  0  0  0  0  0  0
   -7.0538    1.5018    0.0000 S   0  0  0  0  0  0  0  0  0  0  0  0
   -6.5178    0.8746    0.0000 C   0  0  0  0  0  0  0  0  0  0  0  0
   -5.6990    0.9764    0.0000 N   0  0  0  0  0  0  0  0  0  0  0  0
   -5.3331    1.7157    0.0000 C   0  0  0  0  0  0  0  0  0  0  0  0
   -5.7160    2.4464    0.0000 C   0  0  0  0  0  0  0  0  0  0  0  0
   -4.5167    1.5960    0.0000 N   0  0  0  0  0  0  0  0  0  0  0  0
   -4.3783    0.7826    0.0000 N   0  0  0  0  0  0  0  0  0  0  0  0
   -5.1090    0.3997    0.0000 C   0  0  0  0  0  0  0  0  0  0  0  0
   -3.7421    0.3666    0.0000 O   0  0  0  0  0  0  0  0  0  0  0  0
    2.6325   -1.8616    0.0000 C   0  0  0  0  0  0  0  0  0  0  0  0
    3.3360   -2.2924    0.0000 C   0  0  0  0  0  0  0  0  0  0  0  0
    6.1929   -2.3664    0.0000 C   0  0  0  0  0  0  0  0  0  0  0  0
    6.9178   -1.9725    0.0000 C   0  0  0  0  0  0  0  0  0  0  0  0
    6.9392   -1.1477    0.0000 C   0  0  0  0  0  0  0  0  0  0  0  0
    7.5663   -0.6117    0.0000 C   0  0  0  0  0  0  0  0  0  0  0  0
    7.2504    0.1503    0.0000 N   0  0  0  0  0  0  0  0  0  0  0  0
    7.6812    0.8538    0.0000 C   0  0  0  0  0  0  0  0  0  0  0  0
    8.5059    0.8325    0.0000 C   0  0  0  0  0  0  0  0  0  0  0  0
    8.8998    0.1077    0.0000 O   0  0  0  0  0  0  0  0  0  0  0  0
    8.9367    1.5361    0.0000 N   0  0  0  0  0  0  0  0  0  0  0  0
    8.5428    2.2610    0.0000 C   0  0  0  0  0  0  0  0  0  0  0  0
    8.9736    2.9646    0.0000 O   0  0  0  0  0  0  0  0  0  0  0  0
    7.7182    2.2823    0.0000 C   0  0  0  0  0  0  0  0  0  0  0  0
    7.2873    1.5788    0.0000 C   0  0  0  0  0  0  0  0  0  0  0  0
    6.4280    0.0853    0.0000 C   0  0  0  0  0  0  0  0  0  0  0  0
    5.8919    0.7125    0.0000 O   0  0  0  0  0  0  0  0  0  0  0  0
    6.2356   -0.7169    0.0000 C   0  0  0  0  0  0  0  0  0  0  0  0
  1  2  1  0
  3  2  1  0
  4  3  1  0
  4  5  2  0
  5  6  1  0
  6  7  2  0
  7  8  1  0
  9  8  1  0
 10  9  1  0
 11 10  1  0
 12 11  1  0
 13 12  1  0
 14 13  1  0
 15 14  1  0
 16 15  1  0
 16 17  1  0
 18 17  1  6
 18 19  1  0
 19 20  2  0
 20 21  1  0
 21 22  1  0
 22 23  2  0
 23 24  1  0
 24 25  1  0
 24 26  2  0
 26 27  1  0
 27 21  2  0
 20 28  1  0
 28 29  1  0
 29 30  1  0
 29 31  2  0
 31 32  1  0
 31 33  1  0
 34 33  1  0
 28 34  2  0
 35 34  1  0
 35 36  1  0
 36 37  1  0
 36 38  2  0
 38 39  1  0
 40 39  2  0
 40 35  1  0
 40 18  1  0
 16 41  2  0
  7 42  1  0
 43  4  1  0
 42 43  2  0
  2 44  2  0
 44 45  1  0
 45 46  2  0
 46 47  1  0
 48 47  1  0
 48 49  1  0
 49 50  1  0
 50 51  2  0
 50 52  1  0
 52 53  1  0
 53 54  2  0
 53 55  1  0
 55 56  1  0
 56 49  1  0
 57 48  1  0
 57 58  2  0
 59 57  1  0
 46 59  1  0
 59  1  2  0
M  END
> <From>
www.bindingDB.org

> <BindingDB Reactant_set_id>
51570529

> <Ligand InChI>
InChI=1S/C45H47ClN8O4S/c1-26-27(2)59-45-40(26)41(31-12-14-33(46)15-13-31)49-36(42-52-51-28(3)54(42)45)24-39(56)48-21-7-5-4-6-20-47-34-16-9-29(10-17-34)22-30-8-11-32-25-53(44(58)35(32)23-30)37-18-19-38(55)50-43(37)57/h8-17,23,36-37,47H,4-7,18-22,24-25H2,1-3H3,(H,48,56)(H,50,55,57)/t36-,37?/m0/s1

> <Ligand InChI Key>
JCFHQNJZGSNYNS-NWDJCJOJSA-N

> <BindingDB MonomerID>
50631633

> <BindingDB Ligand Name>
CHEMBL5395213

> <Target Name>
Protein cereblon

> <Target Source Organism According to Curator or DataSource>
Homo sapiens

> <Ki (nM)>


> <IC50 (nM)>
 19

> <Kd (nM)>


> <EC50 (nM)>


> <kon (M-1-s-1)>


> <koff (s-1)>


> <pH>


> <Temp C>


> <Curation/DataSource>
ChEMBL

> <Article DOI>
10.1021/acs.jmedchem.3c01613

> <BindingDB Entry DOI>
10.7270/Q2T1583Z

> <PMID>
38096359

> <PubChem AID>


> <Patent Number>


> <Authors>
Arndt, CM; Bitai, J; Brunner, J; Opatz, T; Martinelli, P; Gollner, A; Sokol, KR; Krumb, M

> <Date of publication>
12/28/2023

> <Date in BindingDB>
12/21/2024

> <Institution>
Boehringer Ingelheim Rcv

> <Link to Ligand in BindingDB>
http://www.bindingdb.org/bind/chemsearch/marvin/MolStructure.jsp?monomerid=50631633

> <Link to Ligand-Target Pair in BindingDB>
http://www.bindingdb.org/jsp/dbsearch/PrimarySearch_ki.jsp?energyterm=kJ/mole&tag=pol&polymerid=50007050&target=Protein+cereblon&column=ki&startPg=0&Increment=50&submit=Search

> <Link to Ligand-Target Pair in BindingDB>
http://www.bindingdb.org/jsp/dbsearch/PrimarySearch_ki.jsp?energyterm=kJ/mole&tag=r21&monomerid=50631633&enzyme=Protein+cereblon&column=ki&startPg=0&Increment=50&submit=Search

> <Ligand HET ID in PDB>


> <PDB ID(s) for Ligand-Target Complex>


> <PubChem CID of Ligand>
172443760

> <PubChem SID of Ligand>
505035967

> <ChEBI ID of Ligand>


> <ChEMBL ID of Ligand>


> <DrugBank ID of Ligand>


> <IUPHAR_GRAC ID of Ligand>


> <KEGG ID of Ligand>


> <ZINC ID of Ligand>


> <Number of Protein Chains in Target (bigger than 1 implies a multichain complex)>
1

> <BindingDB Target Chain Sequence>
MAGEGDQQDAAHNMGNHLPLLPAESEEEDEMEVEDQDSKEAKKPNIINFDTSLPTSHTYLGADMEEFHGRTLHDDDSCQVIPVLPQVMMILIPGQTLPLQLFHPQEVSMVRNLIQKDRTFAVLAYSNVQEREAQFGTTAEIYAYREEQDFGIEIVKVKAIGRQRFKVLELRTQSDGIQQAKVQILPECVLPSTMSAVQLESLNKCQIFPSKPVSREDQCSYKWWQKYQKRKFHCANLTSWPRWLYSLYDAETLMDRIKKQLREWDENLKDDSLPSNPIDFSYRVAACLPIDDVLRIQLLKIGSAIQRLRCELDIMNKCTSLCCKQCQETEITTKNEIFSLSLCGPMAAYVNPHGYVHETLTVYKACNLNLIGRPSTEHSWFPGYAWTVAQCKICASHIGWKFTATKKDMSPQKFWGLTRSALLPTIPDTEDEISPDKVILCL

> <PDB ID(s) of Target Chain>
8TNR,8TNQ,8TNP,8D81,8D80,8D7Z,8D7Y,8D7X,8D7W,8D7V,8D7U,8CVP,9DQD,8UH6,6BOY,6BNB,6BN9,6BN8,6BN7,6XK9,6UML,5V3O,5HXB,7U8F,8OJH,8OIZ,7LPS,4TZ4,9DJX,9DJT,8U17,8U16,8U15,8TZX,8DEY,9CUO,4M91

> <UniProt (SwissProt) Recommended Name of Target Chain>
Protein cereblon

> <UniProt (SwissProt) Entry Name of Target Chain>
CRBN_HUMAN

> <UniProt (SwissProt) Primary ID of Target Chain>
Q96SW2

> <UniProt (SwissProt) Secondary ID(s) of Target Chain>
B2R6H4 C9IZA9 C9JAH6 Q6AI62 Q6NVZ0 Q9UHW4

> <UniProt (SwissProt) Alternative ID(s) of Target Chain>


> <UniProt (TrEMBL) Submitted Name of Target Chain>


> <UniProt (TrEMBL) Entry Name of Target Chain>


> <UniProt (TrEMBL) Primary ID of Target Chain>


> <UniProt (TrEMBL) Secondary ID(s) of Target Chain>


> <UniProt (TrEMBL) Alternative ID(s) of Target Chain>


$$$$
 
     RDKit          2D

 61 69  0  0  0  0  0  0  0  0999 V2000
   17.2931  -11.9318    0.0000 O   0  0  0  0  0  0  0  0  0  0  0  0
   17.8750  -12.5138    0.0000 S   0  0  0  0  0  0  0  0  0  0  0  0
   18.0880  -11.7188    0.0000 O   0  0  0  0  0  0  0  0  0  0  0  0
   15.1373  -17.2600    0.0000 N   0  0  0  0  0  0  0  0  0  0  0  0
   15.1361  -18.0796    0.0000 C   0  0  0  0  0  0  0  0  0  0  0  0
   15.8442  -18.4885    0.0000 N   0  0  0  0  0  0  0  0  0  0  0  0
   15.8424  -16.8512    0.0000 C   0  0  0  0  0  0  0  0  0  0  0  0
   16.5510  -17.2564    0.0000 C   0  0  0  0  0  0  0  0  0  0  0  0
   16.5558  -18.0750    0.0000 C   0  0  0  0  0  0  0  0  0  0  0  0
   17.3358  -18.3235    0.0000 N   0  0  0  0  0  0  0  0  0  0  0  0
   17.8132  -17.6584    0.0000 C   0  0  0  0  0  0  0  0  0  0  0  0
   17.3281  -16.9990    0.0000 C   0  0  0  0  0  0  0  0  0  0  0  0
   15.8368  -16.0367    0.0000 C   0  0  0  0  0  0  0  0  0  0  0  0
   16.4964  -15.5544    0.0000 C   0  0  0  0  0  0  0  0  0  0  0  0
   16.2416  -14.7780    0.0000 N   0  0  0  0  0  0  0  0  0  0  0  0
   15.4243  -14.7804    0.0000 N   0  0  0  0  0  0  0  0  0  0  0  0
   15.1743  -15.5584    0.0000 C   0  0  0  0  0  0  0  0  0  0  0  0
   14.4281  -18.4876    0.0000 N   0  0  0  0  0  0  0  0  0  0  0  0
   13.7207  -18.0784    0.0000 C   0  0  0  0  0  0  0  0  0  0  0  0
   13.7259  -17.2614    0.0000 C   0  0  0  0  0  0  0  0  0  0  0  0
   13.0193  -16.8523    0.0000 C   0  0  0  0  0  0  0  0  0  0  0  0
   12.3103  -17.2604    0.0000 C   0  0  0  0  0  0  0  0  0  0  0  0
   12.3123  -18.0818    0.0000 C   0  0  0  0  0  0  0  0  0  0  0  0
   13.0194  -18.4872    0.0000 C   0  0  0  0  0  0  0  0  0  0  0  0
   11.6024  -16.8522    0.0000 C   0  0  0  0  0  0  0  0  0  0  0  0
   11.6020  -16.0350    0.0000 O   0  0  0  0  0  0  0  0  0  0  0  0
   10.8949  -17.2612    0.0000 N   0  0  0  0  0  0  0  0  0  0  0  0
   16.7199  -14.1154    0.0000 C   0  0  0  0  0  0  0  0  0  0  0  0
   17.5309  -13.9851    0.0000 C   0  0  0  0  0  0  0  0  0  0  0  0
   17.4007  -13.1784    0.0000 N   0  0  0  0  0  0  0  0  0  0  0  0
   16.5939  -13.3086    0.0000 C   0  0  0  0  0  0  0  0  0  0  0  0
   18.6920  -12.5988    0.0000 C   0  0  0  0  0  0  0  0  0  0  0  0
   19.1717  -11.9372    0.0000 C   0  0  0  0  0  0  0  0  0  0  0  0
   17.2972  -14.6929    0.0000 C   0  0  0  0  0  0  0  0  0  0  0  0
   18.0866  -14.4816    0.0000 C   0  0  0  0  0  0  0  0  0  0  0  0
   18.8751  -14.2715    0.0000 N   0  0  0  0  0  0  0  0  0  0  0  0
   10.1870  -16.8529    0.0000 C   0  0  0  0  0  0  0  0  0  0  0  0
    9.4795  -17.2619    0.0000 C   0  0  0  0  0  0  0  0  0  0  0  0
   10.1865  -16.0357    0.0000 C   0  0  0  0  0  0  0  0  0  0  0  0
    8.7716  -16.8537    0.0000 C   0  0  0  0  0  0  0  0  0  0  0  0
    9.4786  -15.6275    0.0000 C   0  0  0  0  0  0  0  0  0  0  0  0
    8.7711  -16.0365    0.0000 N   0  0  0  0  0  0  0  0  0  0  0  0
    8.0632  -15.6283    0.0000 C   0  0  0  0  0  0  0  0  0  0  0  0
    8.0641  -14.8126    0.0000 C   0  0  0  0  0  0  0  0  0  0  0  0
    6.6516  -15.6350    0.0000 C   0  0  0  0  0  0  0  0  0  0  0  0
    7.3593  -16.0394    0.0000 C   0  0  0  0  0  0  0  0  0  0  0  0
    6.6485  -14.8135    0.0000 C   0  0  0  0  0  0  0  0  0  0  0  0
    7.3546  -14.4054    0.0000 C   0  0  0  0  0  0  0  0  0  0  0  0
    7.1846  -13.6077    0.0000 C   0  0  0  0  0  0  0  0  0  0  0  0
    6.3734  -13.5229    0.0000 N   0  0  0  0  0  0  0  0  0  0  0  0
    6.0422  -14.2682    0.0000 C   0  0  0  0  0  0  0  0  0  0  0  0
    7.7310  -13.0001    0.0000 O   0  0  0  0  0  0  0  0  0  0  0  0
    5.2430  -14.4385    0.0000 O   0  0  0  0  0  0  0  0  0  0  0  0
    5.9643  -12.8155    0.0000 C   0  0  0  0  0  0  0  0  0  0  0  0
    6.3725  -12.1075    0.0000 C   0  0  0  0  0  0  0  0  0  0  0  0
    5.1471  -12.8160    0.0000 C   0  0  0  0  0  0  0  0  0  0  0  0
    4.7381  -12.1085    0.0000 C   0  0  0  0  0  0  0  0  0  0  0  0
    5.9634  -11.4000    0.0000 N   0  0  0  0  0  0  0  0  0  0  0  0
    5.1463  -11.4006    0.0000 C   0  0  0  0  0  0  0  0  0  0  0  0
    7.1897  -12.1070    0.0000 O   0  0  0  0  0  0  0  0  0  0  0  0
    4.7372  -10.6931    0.0000 O   0  0  0  0  0  0  0  0  0  0  0  0
  2  1  2  0
  3  2  2  0
  4  5  2  0
  5  6  1  0
  6  9  2  0
  8  7  2  0
  7  4  1  0
  8  9  1  0
  9 10  1  0
 10 11  1  0
 11 12  2  0
 12  8  1  0
 13 14  2  0
 14 15  1  0
 15 16  1  0
 16 17  2  0
 17 13  1  0
  7 13  1  0
  5 18  1  0
 18 19  1  0
 19 20  2  0
 20 21  1  0
 21 22  2  0
 22 23  1  0
 23 24  2  0
 24 19  1  0
 22 25  1  0
 25 26  2  0
 25 27  1  0
 15 28  1  0
 28 29  1  0
 29 30  1  0
 30 31  1  0
 31 28  1  0
 30  2  1  0
  2 32  1  0
 32 33  1  0
 28 34  1  0
 34 35  1  0
 35 36  3  0
 27 37  1  0
 37 38  1  0
 37 39  1  0
 38 40  1  0
 39 41  1  0
 40 42  1  0
 42 41  1  0
 42 43  1  0
 43 44  2  0
 44 48  1  0
 47 45  1  0
 45 46  2  0
 46 43  1  0
 47 48  2  0
 48 49  1  0
 49 50  1  0
 50 51  1  0
 51 47  1  0
 49 52  2  0
 51 53  2  0
 50 54  1  0
 54 55  1  0
 54 56  1  0
 56 57  1  0
 55 58  1  0
 58 59  1  0
 57 59  1  0
 55 60  2  0
 59 61  2  0
M  END
> <From>
www.bindingDB.org

> <BindingDB Reactant_set_id>
51451983

> <Ligand InChI>


> <Ligand InChI Key>


> <BindingDB MonomerID>
50586178

> <BindingDB Ligand Name>
CHEMBL5092577

> <Target Name>
Protein cereblon

> <Target Source Organism According to Curator or DataSource>
Human

> <Ki (nM)>


> <IC50 (nM)>
 20

> <Kd (nM)>


> <EC50 (nM)>


> <kon (M-1-s-1)>


> <koff (s-1)>


> <pH>


> <Temp C>


> <Curation/DataSource>
ChEMBL

> <Article DOI>
10.1021/acsmedchemlett.1c00650

> <BindingDB Entry DOI>
10.7270/Q2D79GBF

> <PMID>
35300081

> <PubChem AID>


> <Patent Number>


> <Authors>
Alcock, LJ; Chang, Y; Jarusiewicz, JA; Actis, M; Nithianantham, S; Mayasundari, A; Min, J; Maxwell, D; Hunt, J; Smart, B; Yang, JJ; Nishiguchi, G; Fischer, M; Mullighan, CG; Rankovic, Z

> <Date of publication>
3/10/2022

> <Date in BindingDB>
3/7/2023

> <Institution>
St. Jude Children's Research Hospital

> <Link to Ligand in BindingDB>
http://www.bindingdb.org/bind/chemsearch/marvin/MolStructure.jsp?monomerid=50586178

> <Link to Ligand-Target Pair in BindingDB>
http://www.bindingdb.org/jsp/dbsearch/PrimarySearch_ki.jsp?energyterm=kJ/mole&tag=pol&polymerid=50007050&target=Protein+cereblon&column=ki&startPg=0&Increment=50&submit=Search

> <Link to Ligand-Target Pair in BindingDB>
http://www.bindingdb.org/jsp/dbsearch/PrimarySearch_ki.jsp?energyterm=kJ/mole&tag=r21&monomerid=50586178&enzyme=Protein+cereblon&column=ki&startPg=0&Increment=50&submit=Search

> <Ligand HET ID in PDB>


> <PDB ID(s) for Ligand-Target Complex>


> <PubChem CID of Ligand>
164540947

> <PubChem SID of Ligand>
476022265

> <ChEBI ID of Ligand>


> <ChEMBL ID of Ligand>


> <DrugBank ID of Ligand>


> <IUPHAR_GRAC ID of Ligand>


> <KEGG ID of Ligand>


> <ZINC ID of Ligand>


> <Number of Protein Chains in Target (bigger than 1 implies a multichain complex)>
1

> <BindingDB Target Chain Sequence>
MAGEGDQQDAAHNMGNHLPLLPAESEEEDEMEVEDQDSKEAKKPNIINFDTSLPTSHTYLGADMEEFHGRTLHDDDSCQVIPVLPQVMMILIPGQTLPLQLFHPQEVSMVRNLIQKDRTFAVLAYSNVQEREAQFGTTAEIYAYREEQDFGIEIVKVKAIGRQRFKVLELRTQSDGIQQAKVQILPECVLPSTMSAVQLESLNKCQIFPSKPVSREDQCSYKWWQKYQKRKFHCANLTSWPRWLYSLYDAETLMDRIKKQLREWDENLKDDSLPSNPIDFSYRVAACLPIDDVLRIQLLKIGSAIQRLRCELDIMNKCTSLCCKQCQETEITTKNEIFSLSLCGPMAAYVNPHGYVHETLTVYKACNLNLIGRPSTEHSWFPGYAWTVAQCKICASHIGWKFTATKKDMSPQKFWGLTRSALLPTIPDTEDEISPDKVILCL

> <PDB ID(s) of Target Chain>
4TZ4,5HXB,5V3O,6UML,6XK9,7LPS,7U8F,8CVP,8D7U,8D7V,8D7W,8D7X,8D7Y,8D7Z,8D80,8D81,8DEY,8OIZ,8OJH

> <UniProt (SwissProt) Recommended Name of Target Chain>
Protein cereblon

> <UniProt (SwissProt) Entry Name of Target Chain>
CRBN_HUMAN

> <UniProt (SwissProt) Primary ID of Target Chain>
Q96SW2

> <UniProt (SwissProt) Secondary ID(s) of Target Chain>
B2R6H4 C9IZA9 C9JAH6 Q6AI62 Q6NVZ0 Q9UHW4

> <UniProt (SwissProt) Alternative ID(s) of Target Chain>


> <UniProt (TrEMBL) Submitted Name of Target Chain>


> <UniProt (TrEMBL) Entry Name of Target Chain>


> <UniProt (TrEMBL) Primary ID of Target Chain>


> <UniProt (TrEMBL) Secondary ID(s) of Target Chain>


> <UniProt (TrEMBL) Alternative ID(s) of Target Chain>


$$$$
 
     RDKit          2D

 55 61  0  0  0  0  0  0  0  0999 V2000
   42.2339  -23.1538    0.0000 O   0  0  0  0  0  0  0  0  0  0  0  0
   42.8159  -23.7357    0.0000 S   0  0  0  0  0  0  0  0  0  0  0  0
   43.0289  -22.9407    0.0000 O   0  0  0  0  0  0  0  0  0  0  0  0
   40.0781  -28.4820    0.0000 N   0  0  0  0  0  0  0  0  0  0  0  0
   40.0770  -29.3015    0.0000 C   0  0  0  0  0  0  0  0  0  0  0  0
   40.7850  -29.7105    0.0000 N   0  0  0  0  0  0  0  0  0  0  0  0
   40.7832  -28.0731    0.0000 C   0  0  0  0  0  0  0  0  0  0  0  0
   41.4918  -28.4784    0.0000 C   0  0  0  0  0  0  0  0  0  0  0  0
   41.4966  -29.2970    0.0000 C   0  0  0  0  0  0  0  0  0  0  0  0
   42.2767  -29.5454    0.0000 N   0  0  0  0  0  0  0  0  0  0  0  0
   42.7540  -28.8803    0.0000 C   0  0  0  0  0  0  0  0  0  0  0  0
   42.2689  -28.2209    0.0000 C   0  0  0  0  0  0  0  0  0  0  0  0
   40.7776  -27.2587    0.0000 C   0  0  0  0  0  0  0  0  0  0  0  0
   41.4373  -26.7763    0.0000 C   0  0  0  0  0  0  0  0  0  0  0  0
   41.1824  -25.9999    0.0000 N   0  0  0  0  0  0  0  0  0  0  0  0
   40.3652  -26.0023    0.0000 N   0  0  0  0  0  0  0  0  0  0  0  0
   40.1151  -26.7803    0.0000 C   0  0  0  0  0  0  0  0  0  0  0  0
   39.3689  -29.7095    0.0000 N   0  0  0  0  0  0  0  0  0  0  0  0
   38.6615  -29.3004    0.0000 C   0  0  0  0  0  0  0  0  0  0  0  0
   38.6667  -28.4833    0.0000 C   0  0  0  0  0  0  0  0  0  0  0  0
   37.9602  -28.0742    0.0000 C   0  0  0  0  0  0  0  0  0  0  0  0
   37.2512  -28.4823    0.0000 C   0  0  0  0  0  0  0  0  0  0  0  0
   37.2531  -29.3037    0.0000 C   0  0  0  0  0  0  0  0  0  0  0  0
   37.9603  -29.7091    0.0000 C   0  0  0  0  0  0  0  0  0  0  0  0
   36.5432  -28.0741    0.0000 C   0  0  0  0  0  0  0  0  0  0  0  0
   36.5428  -27.2569    0.0000 O   0  0  0  0  0  0  0  0  0  0  0  0
   35.8357  -28.4831    0.0000 N   0  0  0  0  0  0  0  0  0  0  0  0
   35.1278  -28.0749    0.0000 C   0  0  0  0  0  0  0  0  0  0  0  0
   41.6608  -25.3373    0.0000 C   0  0  0  0  0  0  0  0  0  0  0  0
   42.4718  -25.2071    0.0000 C   0  0  0  0  0  0  0  0  0  0  0  0
   42.3415  -24.4003    0.0000 N   0  0  0  0  0  0  0  0  0  0  0  0
   41.5348  -24.5306    0.0000 C   0  0  0  0  0  0  0  0  0  0  0  0
   43.6328  -23.8208    0.0000 C   0  0  0  0  0  0  0  0  0  0  0  0
   44.1125  -23.1592    0.0000 C   0  0  0  0  0  0  0  0  0  0  0  0
   42.2381  -25.9149    0.0000 C   0  0  0  0  0  0  0  0  0  0  0  0
   43.0275  -25.7035    0.0000 C   0  0  0  0  0  0  0  0  0  0  0  0
   43.8159  -25.4934    0.0000 N   0  0  0  0  0  0  0  0  0  0  0  0
   34.4203  -28.4839    0.0000 C   0  0  0  0  0  0  0  0  0  0  0  0
   33.7124  -28.0756    0.0000 C   0  0  0  0  0  0  0  0  0  0  0  0
   33.0049  -28.4846    0.0000 C   0  0  0  0  0  0  0  0  0  0  0  0
   32.2970  -28.0764    0.0000 O   0  0  0  0  0  0  0  0  0  0  0  0
   31.5895  -28.4854    0.0000 C   0  0  0  0  0  0  0  0  0  0  0  0
   30.1778  -29.3026    0.0000 C   0  0  0  0  0  0  0  0  0  0  0  0
   30.8907  -29.7106    0.0000 C   0  0  0  0  0  0  0  0  0  0  0  0
   31.5948  -29.3000    0.0000 C   0  0  0  0  0  0  0  0  0  0  0  0
   30.1778  -28.4845    0.0000 C   0  0  0  0  0  0  0  0  0  0  0  0
   30.8865  -28.0717    0.0000 C   0  0  0  0  0  0  0  0  0  0  0  0
   29.4708  -29.7125    0.0000 C   0  0  0  0  0  0  0  0  0  0  0  0
   28.7624  -29.3052    0.0000 C   0  0  0  0  0  0  0  0  0  0  0  0
   28.0554  -29.7151    0.0000 N   0  0  0  0  0  0  0  0  0  0  0  0
   29.4724  -30.5297    0.0000 C   0  0  0  0  0  0  0  0  0  0  0  0
   28.7654  -30.9396    0.0000 C   0  0  0  0  0  0  0  0  0  0  0  0
   28.0569  -30.5323    0.0000 C   0  0  0  0  0  0  0  0  0  0  0  0
   27.3500  -30.9422    0.0000 O   0  0  0  0  0  0  0  0  0  0  0  0
   28.7608  -28.4880    0.0000 O   0  0  0  0  0  0  0  0  0  0  0  0
  2  1  2  0
  3  2  2  0
  4  5  2  0
  5  6  1  0
  6  9  2  0
  8  7  2  0
  7  4  1  0
  8  9  1  0
  9 10  1  0
 10 11  1  0
 11 12  2  0
 12  8  1  0
 13 14  2  0
 14 15  1  0
 15 16  1  0
 16 17  2  0
 17 13  1  0
  7 13  1  0
  5 18  1  0
 18 19  1  0
 19 20  2  0
 20 21  1  0
 21 22  2  0
 22 23  1  0
 23 24  2  0
 24 19  1  0
 22 25  1  0
 25 26  2  0
 25 27  1  0
 27 28  1  0
 15 29  1  0
 29 30  1  0
 30 31  1  0
 31 32  1  0
 32 29  1  0
 31  2  1  0
  2 33  1  0
 33 34  1  0
 29 35  1  0
 35 36  1  0
 36 37  3  0
 28 38  1  0
 38 39  1  0
 39 40  1  0
 40 41  1  0
 41 42  1  0
 42 47  2  0
 46 43  2  0
 43 44  1  0
 44 45  2  0
 45 42  1  0
 46 47  1  0
 43 48  1  0
 48 49  1  0
 49 50  1  0
 48 51  1  0
 51 52  1  0
 50 53  1  0
 52 53  1  0
 53 54  2  0
 49 55  2  0
M  END
> <From>
www.bindingDB.org

> <BindingDB Reactant_set_id>
51451986

> <Ligand InChI>


> <Ligand InChI Key>


> <BindingDB MonomerID>
50586181

> <BindingDB Ligand Name>
CHEMBL5082136

> <Target Name>
Protein cereblon

> <Target Source Organism According to Curator or DataSource>
Human

> <Ki (nM)>


> <IC50 (nM)>
 20

> <Kd (nM)>


> <EC50 (nM)>


> <kon (M-1-s-1)>


> <koff (s-1)>


> <pH>


> <Temp C>


> <Curation/DataSource>
ChEMBL

> <Article DOI>
10.1021/acsmedchemlett.1c00650

> <BindingDB Entry DOI>
10.7270/Q2D79GBF

> <PMID>
35300081

> <PubChem AID>


> <Patent Number>


> <Authors>
Alcock, LJ; Chang, Y; Jarusiewicz, JA; Actis, M; Nithianantham, S; Mayasundari, A; Min, J; Maxwell, D; Hunt, J; Smart, B; Yang, JJ; Nishiguchi, G; Fischer, M; Mullighan, CG; Rankovic, Z

> <Date of publication>
3/10/2022

> <Date in BindingDB>
3/7/2023

> <Institution>
St. Jude Children's Research Hospital

> <Link to Ligand in BindingDB>
http://www.bindingdb.org/bind/chemsearch/marvin/MolStructure.jsp?monomerid=50586181

> <Link to Ligand-Target Pair in BindingDB>
http://www.bindingdb.org/jsp/dbsearch/PrimarySearch_ki.jsp?energyterm=kJ/mole&tag=pol&polymerid=50007050&target=Protein+cereblon&column=ki&startPg=0&Increment=50&submit=Search

> <Link to Ligand-Target Pair in BindingDB>
http://www.bindingdb.org/jsp/dbsearch/PrimarySearch_ki.jsp?energyterm=kJ/mole&tag=r21&monomerid=50586181&enzyme=Protein+cereblon&column=ki&startPg=0&Increment=50&submit=Search

> <Ligand HET ID in PDB>


> <PDB ID(s) for Ligand-Target Complex>


> <PubChem CID of Ligand>
164540797

> <PubChem SID of Ligand>
476022268

> <ChEBI ID of Ligand>


> <ChEMBL ID of Ligand>


> <DrugBank ID of Ligand>


> <IUPHAR_GRAC ID of Ligand>


> <KEGG ID of Ligand>


> <ZINC ID of Ligand>


> <Number of Protein Chains in Target (bigger than 1 implies a multichain complex)>
1

> <BindingDB Target Chain Sequence>
MAGEGDQQDAAHNMGNHLPLLPAESEEEDEMEVEDQDSKEAKKPNIINFDTSLPTSHTYLGADMEEFHGRTLHDDDSCQVIPVLPQVMMILIPGQTLPLQLFHPQEVSMVRNLIQKDRTFAVLAYSNVQEREAQFGTTAEIYAYREEQDFGIEIVKVKAIGRQRFKVLELRTQSDGIQQAKVQILPECVLPSTMSAVQLESLNKCQIFPSKPVSREDQCSYKWWQKYQKRKFHCANLTSWPRWLYSLYDAETLMDRIKKQLREWDENLKDDSLPSNPIDFSYRVAACLPIDDVLRIQLLKIGSAIQRLRCELDIMNKCTSLCCKQCQETEITTKNEIFSLSLCGPMAAYVNPHGYVHETLTVYKACNLNLIGRPSTEHSWFPGYAWTVAQCKICASHIGWKFTATKKDMSPQKFWGLTRSALLPTIPDTEDEISPDKVILCL

> <PDB ID(s) of Target Chain>
4TZ4,5HXB,5V3O,6UML,6XK9,7LPS,7U8F,8CVP,8D7U,8D7V,8D7W,8D7X,8D7Y,8D7Z,8D80,8D81,8DEY,8OIZ,8OJH

> <UniProt (SwissProt) Recommended Name of Target Chain>
Protein cereblon

> <UniProt (SwissProt) Entry Name of Target Chain>
CRBN_HUMAN

> <UniProt (SwissProt) Primary ID of Target Chain>
Q96SW2

> <UniProt (SwissProt) Secondary ID(s) of Target Chain>
B2R6H4 C9IZA9 C9JAH6 Q6AI62 Q6NVZ0 Q9UHW4

> <UniProt (SwissProt) Alternative ID(s) of Target Chain>


> <UniProt (TrEMBL) Submitted Name of Target Chain>


> <UniProt (TrEMBL) Entry Name of Target Chain>


> <UniProt (TrEMBL) Primary ID of Target Chain>


> <UniProt (TrEMBL) Secondary ID(s) of Target Chain>


> <UniProt (TrEMBL) Alternative ID(s) of Target Chain>


$$$$
 
     RDKit          2D

 58 65  0  0  0  0  0  0  0  0999 V2000
   -2.3795    1.0795    0.0000 C   0  0  0  0  0  0  0  0  0  0  0  0
   -3.1600    0.8127    0.0000 C   0  0  0  0  0  0  0  0  0  0  0  0
   -3.7816    1.3552    0.0000 N   0  0  0  0  0  0  0  0  0  0  0  0
   -4.5621    1.0883    0.0000 C   0  0  0  0  0  0  0  0  0  0  0  0
   -4.7213    0.2788    0.0000 O   0  0  0  0  0  0  0  0  0  0  0  0
   -5.1836    1.6309    0.0000 C   0  0  0  0  0  0  0  0  0  0  0  0
   -5.9641    1.3640    0.0000 C   0  0  0  0  0  0  0  0  0  0  0  0
   -6.5434    1.9514    0.0000 C   0  0  0  0  0  0  0  0  0  0  0  0
   -7.3638    1.8649    0.0000 N   0  0  0  0  0  0  0  0  0  0  0  0
   -7.6996    2.6184    0.0000 C   0  0  0  0  0  0  0  0  0  0  0  0
   -7.0868    3.1706    0.0000 N   0  0  0  0  0  0  0  0  0  0  0  0
   -6.3722    2.7584    0.0000 N   0  0  0  0  0  0  0  0  0  0  0  0
   -8.5066    2.7896    0.0000 C   0  0  0  0  0  0  0  0  0  0  0  0
   -7.8077    1.1695    0.0000 C   0  0  0  0  0  0  0  0  0  0  0  0
   -7.5408    0.3888    0.0000 C   0  0  0  0  0  0  0  0  0  0  0  0
   -8.2007   -0.1061    0.0000 C   0  0  0  0  0  0  0  0  0  0  0  0
   -8.8754    0.3684    0.0000 C   0  0  0  0  0  0  0  0  0  0  0  0
   -8.6326    1.1569    0.0000 S   0  0  0  0  0  0  0  0  0  0  0  0
   -9.6560    0.1015    0.0000 C   0  0  0  0  0  0  0  0  0  0  0  0
   -8.1881   -0.9309    0.0000 C   0  0  0  0  0  0  0  0  0  0  0  0
   -6.7641    0.1109    0.0000 C   0  0  0  0  0  0  0  0  0  0  0  0
   -6.6775   -0.7094    0.0000 C   0  0  0  0  0  0  0  0  0  0  0  0
   -5.9237   -1.0446    0.0000 C   0  0  0  0  0  0  0  0  0  0  0  0
   -5.8372   -1.8651    0.0000 C   0  0  0  0  0  0  0  0  0  0  0  0
   -6.5045   -2.3502    0.0000 C   0  0  0  0  0  0  0  0  0  0  0  0
   -6.4179   -3.1706    0.0000 Cl  0  0  0  0  0  0  0  0  0  0  0  0
   -7.2582   -2.0149    0.0000 C   0  0  0  0  0  0  0  0  0  0  0  0
   -7.3447   -1.1944    0.0000 C   0  0  0  0  0  0  0  0  0  0  0  0
   -6.0624    0.5449    0.0000 N   0  0  0  0  0  0  0  0  0  0  0  0
   -1.7580    0.5370    0.0000 C   0  0  0  0  0  0  0  0  0  0  0  0
   -0.9774    0.8040    0.0000 C   0  0  0  0  0  0  0  0  0  0  0  0
   -0.3560    0.2614    0.0000 C   0  0  0  0  0  0  0  0  0  0  0  0
    0.4245    0.5283    0.0000 N   0  0  0  0  0  0  0  0  0  0  0  0
    1.0459   -0.0142    0.0000 C   0  0  0  0  0  0  0  0  0  0  0  0
    0.8868   -0.8236    0.0000 C   0  0  0  0  0  0  0  0  0  0  0  0
    1.5082   -1.3662    0.0000 C   0  0  0  0  0  0  0  0  0  0  0  0
    2.2888   -1.0992    0.0000 C   0  0  0  0  0  0  0  0  0  0  0  0
    2.9102   -1.6418    0.0000 C   0  0  0  0  0  0  0  0  0  0  0  0
    3.6909   -1.3749    0.0000 C   0  0  0  0  0  0  0  0  0  0  0  0
    3.8500   -0.5654    0.0000 C   0  0  0  0  0  0  0  0  0  0  0  0
    4.6306   -0.2985    0.0000 C   0  0  0  0  0  0  0  0  0  0  0  0
    5.2521   -0.8411    0.0000 C   0  0  0  0  0  0  0  0  0  0  0  0
    5.0929   -1.6505    0.0000 C   0  0  0  0  0  0  0  0  0  0  0  0
    5.8136   -2.0520    0.0000 C   0  0  0  0  0  0  0  0  0  0  0  0
    6.4181   -1.4907    0.0000 N   0  0  0  0  0  0  0  0  0  0  0  0
    6.0711   -0.7423    0.0000 C   0  0  0  0  0  0  0  0  0  0  0  0
    6.4726   -0.0216    0.0000 O   0  0  0  0  0  0  0  0  0  0  0  0
    7.2277   -1.6499    0.0000 C   0  0  0  0  0  0  0  0  0  0  0  0
    7.7701   -1.0284    0.0000 C   0  0  0  0  0  0  0  0  0  0  0  0
    8.5797   -1.1876    0.0000 C   0  0  0  0  0  0  0  0  0  0  0  0
    8.8466   -1.9682    0.0000 C   0  0  0  0  0  0  0  0  0  0  0  0
    9.6560   -2.1273    0.0000 O   0  0  0  0  0  0  0  0  0  0  0  0
    8.3040   -2.5896    0.0000 N   0  0  0  0  0  0  0  0  0  0  0  0
    7.4945   -2.4305    0.0000 C   0  0  0  0  0  0  0  0  0  0  0  0
    6.9520   -3.0519    0.0000 O   0  0  0  0  0  0  0  0  0  0  0  0
    4.3122   -1.9174    0.0000 C   0  0  0  0  0  0  0  0  0  0  0  0
    2.4480   -0.2898    0.0000 C   0  0  0  0  0  0  0  0  0  0  0  0
    1.8266    0.2527    0.0000 C   0  0  0  0  0  0  0  0  0  0  0  0
  2  1  1  0
  3  2  1  0
  4  3  1  0
  4  5  2  0
  4  6  1  0
  7  6  1  6
  8  7  1  0
  8  9  1  0
  9 10  1  0
 10 11  2  0
  8 12  2  0
 11 12  1  0
 10 13  1  0
  9 14  1  0
 15 14  2  0
 15 16  1  0
 16 17  2  0
 14 18  1  0
 17 18  1  0
 17 19  1  0
 16 20  1  0
 21 15  1  0
 21 22  1  0
 23 22  2  0
 24 23  1  0
 25 24  2  0
 25 26  1  0
 27 25  1  0
 28 27  2  0
 22 28  1  0
 29 21  2  0
  7 29  1  0
  1 30  1  0
 30 31  1  0
 31 32  1  0
 33 32  1  0
 33 34  1  0
 34 35  1  0
 35 36  2  0
 36 37  1  0
 37 38  1  0
 38 39  1  0
 40 39  2  0
 41 40  1  0
 42 41  2  0
 43 42  1  0
 43 44  1  0
 45 44  1  0
 46 45  1  0
 42 46  1  0
 46 47  2  0
 45 48  1  0
 49 48  1  0
 50 49  1  0
 51 50  1  0
 51 52  2  0
 53 51  1  0
 54 53  1  0
 48 54  1  0
 54 55  2  0
 56 43  2  0
 39 56  1  0
 37 57  2  0
 57 58  1  0
 58 34  2  0
M  END
> <From>
www.bindingDB.org

> <BindingDB Reactant_set_id>
51570528

> <Ligand InChI>
InChI=1S/C44H45ClN8O4S/c1-25-26(2)58-44-39(25)40(30-10-12-32(45)13-11-30)48-35(41-51-50-27(3)53(41)44)23-38(55)47-20-6-4-5-19-46-33-14-7-28(8-15-33)21-29-9-16-34-31(22-29)24-52(43(34)57)36-17-18-37(54)49-42(36)56/h7-16,22,35-36,46H,4-6,17-21,23-24H2,1-3H3,(H,47,55)(H,49,54,56)/t35-,36?/m0/s1

> <Ligand InChI Key>
GUKINEBETXGZNQ-TYIYNAFKSA-N

> <BindingDB MonomerID>
50631632

> <BindingDB Ligand Name>
CHEMBL5398776

> <Target Name>
Protein cereblon

> <Target Source Organism According to Curator or DataSource>
Homo sapiens

> <Ki (nM)>


> <IC50 (nM)>
 21

> <Kd (nM)>


> <EC50 (nM)>


> <kon (M-1-s-1)>


> <koff (s-1)>


> <pH>


> <Temp C>


> <Curation/DataSource>
ChEMBL

> <Article DOI>
10.1021/acs.jmedchem.3c01613

> <BindingDB Entry DOI>
10.7270/Q2T1583Z

> <PMID>
38096359

> <PubChem AID>


> <Patent Number>


> <Authors>
Arndt, CM; Bitai, J; Brunner, J; Opatz, T; Martinelli, P; Gollner, A; Sokol, KR; Krumb, M

> <Date of publication>
12/28/2023

> <Date in BindingDB>
12/21/2024

> <Institution>
Boehringer Ingelheim Rcv

> <Link to Ligand in BindingDB>
http://www.bindingdb.org/bind/chemsearch/marvin/MolStructure.jsp?monomerid=50631632

> <Link to Ligand-Target Pair in BindingDB>
http://www.bindingdb.org/jsp/dbsearch/PrimarySearch_ki.jsp?energyterm=kJ/mole&tag=pol&polymerid=50007050&target=Protein+cereblon&column=ki&startPg=0&Increment=50&submit=Search

> <Link to Ligand-Target Pair in BindingDB>
http://www.bindingdb.org/jsp/dbsearch/PrimarySearch_ki.jsp?energyterm=kJ/mole&tag=r21&monomerid=50631632&enzyme=Protein+cereblon&column=ki&startPg=0&Increment=50&submit=Search

> <Ligand HET ID in PDB>


> <PDB ID(s) for Ligand-Target Complex>


> <PubChem CID of Ligand>
172444910

> <PubChem SID of Ligand>
505035966

> <ChEBI ID of Ligand>


> <ChEMBL ID of Ligand>


> <DrugBank ID of Ligand>


> <IUPHAR_GRAC ID of Ligand>


> <KEGG ID of Ligand>


> <ZINC ID of Ligand>


> <Number of Protein Chains in Target (bigger than 1 implies a multichain complex)>
1

> <BindingDB Target Chain Sequence>
MAGEGDQQDAAHNMGNHLPLLPAESEEEDEMEVEDQDSKEAKKPNIINFDTSLPTSHTYLGADMEEFHGRTLHDDDSCQVIPVLPQVMMILIPGQTLPLQLFHPQEVSMVRNLIQKDRTFAVLAYSNVQEREAQFGTTAEIYAYREEQDFGIEIVKVKAIGRQRFKVLELRTQSDGIQQAKVQILPECVLPSTMSAVQLESLNKCQIFPSKPVSREDQCSYKWWQKYQKRKFHCANLTSWPRWLYSLYDAETLMDRIKKQLREWDENLKDDSLPSNPIDFSYRVAACLPIDDVLRIQLLKIGSAIQRLRCELDIMNKCTSLCCKQCQETEITTKNEIFSLSLCGPMAAYVNPHGYVHETLTVYKACNLNLIGRPSTEHSWFPGYAWTVAQCKICASHIGWKFTATKKDMSPQKFWGLTRSALLPTIPDTEDEISPDKVILCL

> <PDB ID(s) of Target Chain>
8TNR,8TNQ,8TNP,8D81,8D80,8D7Z,8D7Y,8D7X,8D7W,8D7V,8D7U,8CVP,9DQD,8UH6,6BOY,6BNB,6BN9,6BN8,6BN7,6XK9,6UML,5V3O,5HXB,7U8F,8OJH,8OIZ,7LPS,4TZ4,9DJX,9DJT,8U17,8U16,8U15,8TZX,8DEY,9CUO,4M91

> <UniProt (SwissProt) Recommended Name of Target Chain>
Protein cereblon

> <UniProt (SwissProt) Entry Name of Target Chain>
CRBN_HUMAN

> <UniProt (SwissProt) Primary ID of Target Chain>
Q96SW2

> <UniProt (SwissProt) Secondary ID(s) of Target Chain>
B2R6H4 C9IZA9 C9JAH6 Q6AI62 Q6NVZ0 Q9UHW4

> <UniProt (SwissProt) Alternative ID(s) of Target Chain>


> <UniProt (TrEMBL) Submitted Name of Target Chain>


> <UniProt (TrEMBL) Entry Name of Target Chain>


> <UniProt (TrEMBL) Primary ID of Target Chain>


> <UniProt (TrEMBL) Secondary ID(s) of Target Chain>


> <UniProt (TrEMBL) Alternative ID(s) of Target Chain>


$$$$
 
     RDKit          2D

 56 64  0  0  0  0  0  0  0  0999 V2000
    1.5881    2.0430    0.0000 C   0  0  0  0  0  0  0  0  0  0  0  0
    2.3026    2.4556    0.0000 C   0  0  0  0  0  0  0  0  0  0  0  0
    3.0170    2.0430    0.0000 C   0  0  0  0  0  0  0  0  0  0  0  0
    3.0170    1.2181    0.0000 C   0  0  0  0  0  0  0  0  0  0  0  0
    3.7314    0.8056    0.0000 C   0  0  0  0  0  0  0  0  0  0  0  0
    3.7314   -0.0191    0.0000 C   0  0  0  0  0  0  0  0  0  0  0  0
    4.4459   -0.4317    0.0000 C   0  0  0  0  0  0  0  0  0  0  0  0
    4.6174   -1.2387    0.0000 C   0  0  0  0  0  0  0  0  0  0  0  0
    5.4378   -1.3249    0.0000 N   0  0  0  0  0  0  0  0  0  0  0  0
    5.8503   -2.0393    0.0000 C   0  0  0  0  0  0  0  0  0  0  0  0
    5.4378   -2.7538    0.0000 C   0  0  0  0  0  0  0  0  0  0  0  0
    4.6129   -2.7538    0.0000 O   0  0  0  0  0  0  0  0  0  0  0  0
    5.8503   -3.4683    0.0000 N   0  0  0  0  0  0  0  0  0  0  0  0
    6.6752   -3.4683    0.0000 C   0  0  0  0  0  0  0  0  0  0  0  0
    7.0878   -4.1827    0.0000 O   0  0  0  0  0  0  0  0  0  0  0  0
    7.0878   -2.7538    0.0000 C   0  0  0  0  0  0  0  0  0  0  0  0
    6.6752   -2.0393    0.0000 C   0  0  0  0  0  0  0  0  0  0  0  0
    5.7734   -0.5712    0.0000 C   0  0  0  0  0  0  0  0  0  0  0  0
    6.5803   -0.3998    0.0000 O   0  0  0  0  0  0  0  0  0  0  0  0
    5.1603   -0.0191    0.0000 C   0  0  0  0  0  0  0  0  0  0  0  0
    5.1603    0.8056    0.0000 C   0  0  0  0  0  0  0  0  0  0  0  0
    4.4459    1.2181    0.0000 C   0  0  0  0  0  0  0  0  0  0  0  0
    2.3026    0.8056    0.0000 C   0  0  0  0  0  0  0  0  0  0  0  0
    1.5881    1.2181    0.0000 C   0  0  0  0  0  0  0  0  0  0  0  0
   -2.2798    1.8014    0.0000 O   0  0  0  0  0  0  0  0  0  0  0  0
   -4.3903    3.0912    0.0000 C   0  0  0  0  0  0  0  0  0  0  0  0
   -4.3781    3.9160    0.0000 N   0  0  0  0  0  0  0  0  0  0  0  0
   -5.1588    4.1827    0.0000 N   0  0  0  0  0  0  0  0  0  0  0  0
   -6.4785    3.5349    0.0000 C   0  0  0  0  0  0  0  0  0  0  0  0
   -5.6536    3.5226    0.0000 C   0  0  0  0  0  0  0  0  0  0  0  0
   -5.1788    2.8480    0.0000 N   0  0  0  0  0  0  0  0  0  0  0  0
   -5.4802    2.0801    0.0000 C   0  0  0  0  0  0  0  0  0  0  0  0
   -6.2871    1.9085    0.0000 S   0  0  0  0  0  0  0  0  0  0  0  0
   -7.0878    0.6756    0.0000 C   0  0  0  0  0  0  0  0  0  0  0  0
   -6.3733    1.0881    0.0000 C   0  0  0  0  0  0  0  0  0  0  0  0
   -5.4482   -0.0543    0.0000 C   0  0  0  0  0  0  0  0  0  0  0  0
   -5.6195    0.7524    0.0000 C   0  0  0  0  0  0  0  0  0  0  0  0
   -5.0676    1.3656    0.0000 C   0  0  0  0  0  0  0  0  0  0  0  0
   -3.2044    0.2707    0.0000 C   0  0  0  0  0  0  0  0  0  0  0  0
   -2.9613   -0.5174    0.0000 C   0  0  0  0  0  0  0  0  0  0  0  0
   -3.2793   -1.9105    0.0000 Cl  0  0  0  0  0  0  0  0  0  0  0  0
   -3.5224   -1.1222    0.0000 C   0  0  0  0  0  0  0  0  0  0  0  0
   -4.3267   -0.9386    0.0000 C   0  0  0  0  0  0  0  0  0  0  0  0
   -4.5698   -0.1503    0.0000 C   0  0  0  0  0  0  0  0  0  0  0  0
   -4.0088    0.4543    0.0000 C   0  0  0  0  0  0  0  0  0  0  0  0
   -4.2519    1.2427    0.0000 C   0  0  0  0  0  0  0  0  0  0  0  0
   -3.6472    1.8037    0.0000 N   0  0  0  0  0  0  0  0  0  0  0  0
   -3.7088    2.6264    0.0000 C   0  0  0  0  0  0  0  0  0  0  0  0
   -2.9944    3.0389    0.0000 C   0  0  0  0  0  0  0  0  0  0  0  0
   -2.2798    2.6264    0.0000 C   0  0  0  0  0  0  0  0  0  0  0  0
   -1.5654    3.0389    0.0000 N   0  0  0  0  0  0  0  0  0  0  0  0
   -0.8511    2.6264    0.0000 C   0  0  0  0  0  0  0  0  0  0  0  0
    1.3746    2.8399    0.0000 C   0  0  0  0  0  0  0  0  0  0  0  0
    0.7912    1.8296    0.0000 C   0  0  0  0  0  0  0  0  0  0  0  0
    0.5777    2.6264    0.0000 N   0  0  0  0  0  0  0  0  0  0  0  0
   -0.1366    3.0389    0.0000 C   0  0  0  0  0  0  0  0  0  0  0  0
  1  2  1  0
  3  2  1  0
  4  3  1  0
  4  5  1  0
  5  6  1  0
  6  7  2  0
  7  8  1  0
  9  8  1  0
  9 10  1  0
 10 11  1  0
 11 12  2  0
 11 13  1  0
 13 14  1  0
 14 15  2  0
 14 16  1  0
 16 17  1  0
 17 10  1  0
 18  9  1  0
 18 19  2  0
 20 18  1  0
  7 20  1  0
 20 21  2  0
 21 22  1  0
 22  5  2  0
 23  4  1  0
  1 24  1  0
 24 23  1  0
 26 27  2  0
 28 27  1  0
 30 29  1  0
 30 28  2  0
 31 30  1  0
 26 31  1  0
 31 32  1  0
 32 33  1  0
 35 34  1  0
 35 33  1  0
 37 36  1  0
 37 35  2  0
 38 37  1  0
 38 32  2  0
 40 39  1  0
 42 41  1  0
 42 40  2  0
 43 42  1  0
 44 43  2  0
 45 44  1  0
 39 45  2  0
 46 45  1  0
 46 38  1  0
 47 46  2  0
 48 47  1  0
 26 48  1  0
 48 49  1  6
 50 49  1  0
 50 25  2  0
 50 51  1  0
 51 52  1  0
  1 53  1  0
 54  1  1  0
 55 54  1  0
 55 53  1  0
 55 56  1  0
 52 56  1  0
M  END
> <From>
www.bindingDB.org

> <BindingDB Reactant_set_id>
51570546

> <Ligand InChI>
InChI=1S/C42H45ClN8O4S/c1-23-24(2)56-41-36(23)37(27-4-7-30(43)8-5-27)45-32(38-48-47-25(3)51(38)41)19-35(53)44-16-17-49-21-42(22-49)14-12-26(13-15-42)28-6-9-31-29(18-28)20-50(40(31)55)33-10-11-34(52)46-39(33)54/h4-9,18,26,32-33H,10-17,19-22H2,1-3H3,(H,44,53)(H,46,52,54)/t32-,33?/m0/s1

> <Ligand InChI Key>
JFSVSFBLGUFRRC-JEFWXSHNSA-N

> <BindingDB MonomerID>
50631635

> <BindingDB Ligand Name>
CHEMBL5432640

> <Target Name>
Protein cereblon

> <Target Source Organism According to Curator or DataSource>
Homo sapiens

> <Ki (nM)>


> <IC50 (nM)>
 21

> <Kd (nM)>


> <EC50 (nM)>


> <kon (M-1-s-1)>


> <koff (s-1)>


> <pH>


> <Temp C>


> <Curation/DataSource>
ChEMBL

> <Article DOI>
10.1021/acs.jmedchem.3c01613

> <BindingDB Entry DOI>
10.7270/Q2T1583Z

> <PMID>
38096359

> <PubChem AID>


> <Patent Number>


> <Authors>
Arndt, CM; Bitai, J; Brunner, J; Opatz, T; Martinelli, P; Gollner, A; Sokol, KR; Krumb, M

> <Date of publication>
12/28/2023

> <Date in BindingDB>
12/21/2024

> <Institution>
Boehringer Ingelheim Rcv

> <Link to Ligand in BindingDB>
http://www.bindingdb.org/bind/chemsearch/marvin/MolStructure.jsp?monomerid=50631635

> <Link to Ligand-Target Pair in BindingDB>
http://www.bindingdb.org/jsp/dbsearch/PrimarySearch_ki.jsp?energyterm=kJ/mole&tag=pol&polymerid=50007050&target=Protein+cereblon&column=ki&startPg=0&Increment=50&submit=Search

> <Link to Ligand-Target Pair in BindingDB>
http://www.bindingdb.org/jsp/dbsearch/PrimarySearch_ki.jsp?energyterm=kJ/mole&tag=r21&monomerid=50631635&enzyme=Protein+cereblon&column=ki&startPg=0&Increment=50&submit=Search

> <Ligand HET ID in PDB>


> <PDB ID(s) for Ligand-Target Complex>


> <PubChem CID of Ligand>
172467764

> <PubChem SID of Ligand>
505035969

> <ChEBI ID of Ligand>


> <ChEMBL ID of Ligand>


> <DrugBank ID of Ligand>


> <IUPHAR_GRAC ID of Ligand>


> <KEGG ID of Ligand>


> <ZINC ID of Ligand>


> <Number of Protein Chains in Target (bigger than 1 implies a multichain complex)>
1

> <BindingDB Target Chain Sequence>
MAGEGDQQDAAHNMGNHLPLLPAESEEEDEMEVEDQDSKEAKKPNIINFDTSLPTSHTYLGADMEEFHGRTLHDDDSCQVIPVLPQVMMILIPGQTLPLQLFHPQEVSMVRNLIQKDRTFAVLAYSNVQEREAQFGTTAEIYAYREEQDFGIEIVKVKAIGRQRFKVLELRTQSDGIQQAKVQILPECVLPSTMSAVQLESLNKCQIFPSKPVSREDQCSYKWWQKYQKRKFHCANLTSWPRWLYSLYDAETLMDRIKKQLREWDENLKDDSLPSNPIDFSYRVAACLPIDDVLRIQLLKIGSAIQRLRCELDIMNKCTSLCCKQCQETEITTKNEIFSLSLCGPMAAYVNPHGYVHETLTVYKACNLNLIGRPSTEHSWFPGYAWTVAQCKICASHIGWKFTATKKDMSPQKFWGLTRSALLPTIPDTEDEISPDKVILCL

> <PDB ID(s) of Target Chain>
8TNR,8TNQ,8TNP,8D81,8D80,8D7Z,8D7Y,8D7X,8D7W,8D7V,8D7U,8CVP,9DQD,8UH6,6BOY,6BNB,6BN9,6BN8,6BN7,6XK9,6UML,5V3O,5HXB,7U8F,8OJH,8OIZ,7LPS,4TZ4,9DJX,9DJT,8U17,8U16,8U15,8TZX,8DEY,9CUO,4M91

> <UniProt (SwissProt) Recommended Name of Target Chain>
Protein cereblon

> <UniProt (SwissProt) Entry Name of Target Chain>
CRBN_HUMAN

> <UniProt (SwissProt) Primary ID of Target Chain>
Q96SW2

> <UniProt (SwissProt) Secondary ID(s) of Target Chain>
B2R6H4 C9IZA9 C9JAH6 Q6AI62 Q6NVZ0 Q9UHW4

> <UniProt (SwissProt) Alternative ID(s) of Target Chain>


> <UniProt (TrEMBL) Submitted Name of Target Chain>


> <UniProt (TrEMBL) Entry Name of Target Chain>


> <UniProt (TrEMBL) Primary ID of Target Chain>


> <UniProt (TrEMBL) Secondary ID(s) of Target Chain>


> <UniProt (TrEMBL) Alternative ID(s) of Target Chain>


$$$$
 
     RDKit          2D

 26 29  0  0  0  0  0  0  0  0999 V2000
   -1.6320    0.3565    0.0000 C   0  0  0  0  0  0  0  0  0  0  0  0
   -0.9176    0.7691    0.0000 C   0  0  0  0  0  0  0  0  0  0  0  0
   -0.2031    0.3565    0.0000 C   0  0  0  0  0  0  0  0  0  0  0  0
   -0.2031   -0.4684    0.0000 C   0  0  0  0  0  0  0  0  0  0  0  0
   -0.9176   -0.8809    0.0000 C   0  0  0  0  0  0  0  0  0  0  0  0
   -1.6320   -0.4684    0.0000 C   0  0  0  0  0  0  0  0  0  0  0  0
    0.5814   -0.7233    0.0000 C   0  0  0  0  0  0  0  0  0  0  0  0
    1.0663   -0.0559    0.0000 N   0  0  0  0  0  0  0  0  0  0  0  0
    0.5814    0.6115    0.0000 C   0  0  0  0  0  0  0  0  0  0  0  0
    0.7949    1.4081    0.0000 O   0  0  0  0  0  0  0  0  0  0  0  0
    1.8910   -0.0559    0.0000 C   0  0  0  0  0  0  0  0  0  0  0  0
    2.3034    0.6582    0.0000 C   0  0  0  0  0  0  0  0  0  0  0  0
    3.1281    0.6582    0.0000 C   0  0  0  0  0  0  0  0  0  0  0  0
    3.5405   -0.0560    0.0000 C   0  0  0  0  0  0  0  0  0  0  0  0
    3.1282   -0.7702    0.0000 N   0  0  0  0  0  0  0  0  0  0  0  0
    2.3035   -0.7702    0.0000 C   0  0  0  0  0  0  0  0  0  0  0  0
    1.8910   -1.4845    0.0000 O   0  0  0  0  0  0  0  0  0  0  0  0
    4.3653   -0.0560    0.0000 O   0  0  0  0  0  0  0  0  0  0  0  0
   -2.3463    0.7689    0.0000 S   0  0  0  0  0  0  0  0  0  0  0  0
   -3.0606    0.3565    0.0000 N   0  0  0  0  0  0  0  0  0  0  0  0
   -1.9332    1.4845    0.0000 O   0  0  0  0  0  0  0  0  0  0  0  0
   -2.7578    1.4845    0.0000 O   0  0  0  0  0  0  0  0  0  0  0  0
   -3.1467   -0.4632    0.0000 N   0  0  0  0  0  0  0  0  0  0  0  0
   -3.9531   -0.6346    0.0000 C   0  0  0  0  0  0  0  0  0  0  0  0
   -4.3653    0.0792    0.0000 C   0  0  0  0  0  0  0  0  0  0  0  0
   -3.8136    0.6918    0.0000 N   0  0  0  0  0  0  0  0  0  0  0  0
  1  2  1  0
  3  2  2  0
  4  3  1  0
  5  4  2  0
  6  5  1  0
  1  6  2  0
  4  7  1  0
  8  7  1  0
  9  8  1  0
  3  9  1  0
  9 10  2  0
  8 11  1  0
 12 11  1  0
 13 12  1  0
 14 13  1  0
 15 14  1  0
 16 15  1  0
 11 16  1  0
 16 17  2  0
 14 18  2  0
  1 19  1  0
 19 20  1  0
 19 21  2  0
 19 22  2  0
 23 20  1  0
 23 24  2  0
 24 25  1  0
 25 26  2  0
 26 20  1  0
M  END
> <From>
www.bindingDB.org

> <BindingDB Reactant_set_id>
51568396

> <Ligand InChI>
InChI=1S/C15H13N5O5S/c21-13-4-3-12(14(22)18-13)19-8-9-1-2-10(7-11(9)15(19)23)26(24,25)20-16-5-6-17-20/h1-2,5-7,12H,3-4,8H2,(H,18,21,22)

> <Ligand InChI Key>
BWKROUZQCPJHCS-UHFFFAOYSA-N

> <BindingDB MonomerID>
50630769

> <BindingDB Ligand Name>
CHEMBL5431754

> <Target Name>
Protein cereblon

> <Target Source Organism According to Curator or DataSource>
Homo sapiens

> <Ki (nM)>


> <IC50 (nM)>
 21

> <Kd (nM)>


> <EC50 (nM)>


> <kon (M-1-s-1)>


> <koff (s-1)>


> <pH>


> <Temp C>


> <Curation/DataSource>
ChEMBL

> <Article DOI>
10.1021/acsmedchemlett.3c00371

> <BindingDB Entry DOI>
10.7270/Q28D01RH

> <PMID>
37974938

> <PubChem AID>


> <Patent Number>


> <Authors>
Cruite, JT; Nowak, RP; Donovan, KA; Ficarro, SB; Huang, H; Liu, H; Liu, Y; Marto, JA; Metivier, RJ; Fischer, ES; Jones, LH

> <Date of publication>
11/9/2023

> <Date in BindingDB>
12/20/2024

> <Institution>
Dana-Farber Cancer Institute

> <Link to Ligand in BindingDB>
http://www.bindingdb.org/bind/chemsearch/marvin/MolStructure.jsp?monomerid=50630769

> <Link to Ligand-Target Pair in BindingDB>
http://www.bindingdb.org/jsp/dbsearch/PrimarySearch_ki.jsp?energyterm=kJ/mole&tag=pol&polymerid=50007050&target=Protein+cereblon&column=ki&startPg=0&Increment=50&submit=Search

> <Link to Ligand-Target Pair in BindingDB>
http://www.bindingdb.org/jsp/dbsearch/PrimarySearch_ki.jsp?energyterm=kJ/mole&tag=r21&monomerid=50630769&enzyme=Protein+cereblon&column=ki&startPg=0&Increment=50&submit=Search

> <Ligand HET ID in PDB>


> <PDB ID(s) for Ligand-Target Complex>


> <PubChem CID of Ligand>
168190700

> <PubChem SID of Ligand>
505048740

> <ChEBI ID of Ligand>


> <ChEMBL ID of Ligand>


> <DrugBank ID of Ligand>


> <IUPHAR_GRAC ID of Ligand>


> <KEGG ID of Ligand>


> <ZINC ID of Ligand>


> <Number of Protein Chains in Target (bigger than 1 implies a multichain complex)>
1

> <BindingDB Target Chain Sequence>
MAGEGDQQDAAHNMGNHLPLLPAESEEEDEMEVEDQDSKEAKKPNIINFDTSLPTSHTYLGADMEEFHGRTLHDDDSCQVIPVLPQVMMILIPGQTLPLQLFHPQEVSMVRNLIQKDRTFAVLAYSNVQEREAQFGTTAEIYAYREEQDFGIEIVKVKAIGRQRFKVLELRTQSDGIQQAKVQILPECVLPSTMSAVQLESLNKCQIFPSKPVSREDQCSYKWWQKYQKRKFHCANLTSWPRWLYSLYDAETLMDRIKKQLREWDENLKDDSLPSNPIDFSYRVAACLPIDDVLRIQLLKIGSAIQRLRCELDIMNKCTSLCCKQCQETEITTKNEIFSLSLCGPMAAYVNPHGYVHETLTVYKACNLNLIGRPSTEHSWFPGYAWTVAQCKICASHIGWKFTATKKDMSPQKFWGLTRSALLPTIPDTEDEISPDKVILCL

> <PDB ID(s) of Target Chain>
8TNR,8TNQ,8TNP,8D81,8D80,8D7Z,8D7Y,8D7X,8D7W,8D7V,8D7U,8CVP,9DQD,8UH6,6BOY,6BNB,6BN9,6BN8,6BN7,6XK9,6UML,5V3O,5HXB,7U8F,8OJH,8OIZ,7LPS,4TZ4,9DJX,9DJT,8U17,8U16,8U15,8TZX,8DEY,9CUO,4M91

> <UniProt (SwissProt) Recommended Name of Target Chain>
Protein cereblon

> <UniProt (SwissProt) Entry Name of Target Chain>
CRBN_HUMAN

> <UniProt (SwissProt) Primary ID of Target Chain>
Q96SW2

> <UniProt (SwissProt) Secondary ID(s) of Target Chain>
B2R6H4 C9IZA9 C9JAH6 Q6AI62 Q6NVZ0 Q9UHW4

> <UniProt (SwissProt) Alternative ID(s) of Target Chain>


> <UniProt (TrEMBL) Submitted Name of Target Chain>


> <UniProt (TrEMBL) Entry Name of Target Chain>


> <UniProt (TrEMBL) Primary ID of Target Chain>


> <UniProt (TrEMBL) Secondary ID(s) of Target Chain>


> <UniProt (TrEMBL) Alternative ID(s) of Target Chain>


$$$$

     RDKit          2D

 63 70  0  0  0  0  0  0  0  0999 V2000
   11.8713   -6.4952    0.0000 C   0  0  0  0  0  0  0  0  0  0  0  0
   11.1213   -5.1962    0.0000 N   0  0  0  0  0  0  0  0  0  0  0  0
    9.6213   -5.1962    0.0000 C   0  0  0  0  0  0  0  0  0  0  0  0
    8.8713   -3.8971    0.0000 C   0  0  0  0  0  0  0  0  0  0  0  0
    7.3713   -3.8971    0.0000 C   0  0  0  0  0  0  0  0  0  0  0  0
    6.6213   -2.5981    0.0000 O   0  0  0  0  0  0  0  0  0  0  0  0
    5.1213   -2.5981    0.0000 C   0  0  0  0  0  0  0  0  0  0  0  0
    4.0607   -1.5374    0.0000 C   0  0  0  0  0  0  0  0  0  0  0  0
    3.0000   -2.5981    0.0000 C   0  0  0  0  0  0  0  0  0  0  0  0
    1.5000   -2.5981    0.0000 N   0  0  0  0  0  0  0  0  0  0  0  0
    0.7500   -1.2990    0.0000 C   0  0  0  0  0  0  0  0  0  0  0  0
    1.5000    0.0000    0.0000 C   0  0  0  0  0  0  0  0  0  0  0  0
    0.7500    1.2990    0.0000 C   0  0  0  0  0  0  0  0  0  0  0  0
   -0.7500    1.2990    0.0000 C   0  0  0  0  0  0  0  0  0  0  0  0
   -1.5000    0.0000    0.0000 C   0  0  0  0  0  0  0  0  0  0  0  0
   -0.7500   -1.2990    0.0000 C   0  0  0  0  0  0  0  0  0  0  0  0
   -1.7537   -2.4138    0.0000 C   0  0  0  0  0  0  0  0  0  0  0  0
   -1.4418   -3.8810    0.0000 O   0  0  0  0  0  0  0  0  0  0  0  0
   -3.1240   -1.8037    0.0000 N   0  0  0  0  0  0  0  0  0  0  0  0
   -4.4231   -2.5537    0.0000 C   0  0  0  0  0  0  0  0  0  0  0  0
   -5.7221   -1.8037    0.0000 C   0  0  0  0  0  0  0  0  0  0  0  0
   -7.0211   -2.5537    0.0000 C   0  0  0  0  0  0  0  0  0  0  0  0
   -7.0211   -4.0537    0.0000 C   0  0  0  0  0  0  0  0  0  0  0  0
   -8.3202   -4.8037    0.0000 O   0  0  0  0  0  0  0  0  0  0  0  0
   -5.7221   -4.8037    0.0000 N   0  0  0  0  0  0  0  0  0  0  0  0
   -4.4231   -4.0537    0.0000 C   0  0  0  0  0  0  0  0  0  0  0  0
   -3.1240   -4.8037    0.0000 O   0  0  0  0  0  0  0  0  0  0  0  0
   -2.9672   -0.3119    0.0000 C   0  0  0  0  0  0  0  0  0  0  0  0
   -4.0819    0.6918    0.0000 O   0  0  0  0  0  0  0  0  0  0  0  0
    4.0607   -3.6587    0.0000 C   0  0  0  0  0  0  0  0  0  0  0  0
   11.8713   -3.8971    0.0000 C   0  0  0  0  0  0  0  0  0  0  0  0
   13.3713   -3.8971    0.0000 C   0  0  0  0  0  0  0  0  0  0  0  0
   14.1213   -5.1962    0.0000 C   0  0  0  0  0  0  0  0  0  0  0  0
   15.6213   -5.1962    0.0000 C   0  0  0  0  0  0  0  0  0  0  0  0
   16.3713   -3.8971    0.0000 C   0  0  0  0  0  0  0  0  0  0  0  0
   17.8713   -3.8971    0.0000 N   0  0  0  0  0  0  0  0  0  0  0  0
   18.7530   -2.6836    0.0000 C   0  0  0  0  0  0  0  0  0  0  0  0
   20.1796   -3.1471    0.0000 C   0  0  0  0  0  0  0  0  0  0  0  0
   21.4786   -2.3971    0.0000 C   0  0  0  0  0  0  0  0  0  0  0  0
   22.7777   -3.1471    0.0000 C   0  0  0  0  0  0  0  0  0  0  0  0
   24.0767   -2.3971    0.0000 N   0  0  0  0  0  0  0  0  0  0  0  0
   24.0767   -0.8971    0.0000 C   0  0  0  0  0  0  0  0  0  0  0  0
   22.7777   -0.1471    0.0000 O   0  0  0  0  0  0  0  0  0  0  0  0
   25.3757   -0.1471    0.0000 C   0  0  0  0  0  0  0  0  0  0  0  0
   25.3757    1.3529    0.0000 C   0  0  0  0  0  0  0  0  0  0  0  0
   26.6748    2.1029    0.0000 C   0  0  0  0  0  0  0  0  0  0  0  0
   27.9738    1.3529    0.0000 C   0  0  0  0  0  0  0  0  0  0  0  0
   27.9738   -0.1471    0.0000 C   0  0  0  0  0  0  0  0  0  0  0  0
   29.2728   -0.8971    0.0000 C   0  0  0  0  0  0  0  0  0  0  0  0
   30.5719   -1.6471    0.0000 F   0  0  0  0  0  0  0  0  0  0  0  0
   30.0228    0.4019    0.0000 F   0  0  0  0  0  0  0  0  0  0  0  0
   28.5228   -2.1962    0.0000 F   0  0  0  0  0  0  0  0  0  0  0  0
   26.6748   -0.8971    0.0000 N   0  0  0  0  0  0  0  0  0  0  0  0
   22.7777   -4.6471    0.0000 C   0  0  0  0  0  0  0  0  0  0  0  0
   24.0767   -5.3971    0.0000 C   0  0  0  0  0  0  0  0  0  0  0  0
   24.8267   -4.0981    0.0000 C   0  0  0  0  0  0  0  0  0  0  0  0
   23.3267   -6.6962    0.0000 C   0  0  0  0  0  0  0  0  0  0  0  0
   25.3757   -6.1471    0.0000 O   0  0  0  0  0  0  0  0  0  0  0  0
   21.4786   -5.3971    0.0000 C   0  0  0  0  0  0  0  0  0  0  0  0
   20.1796   -4.6471    0.0000 C   0  0  0  0  0  0  0  0  0  0  0  0
   18.7530   -5.1106    0.0000 N   0  0  0  0  0  0  0  0  0  0  0  0
   15.6213   -2.5981    0.0000 C   0  0  0  0  0  0  0  0  0  0  0  0
   14.1213   -2.5981    0.0000 C   0  0  0  0  0  0  0  0  0  0  0  0
  1  2  1  0
  2  3  1  0
  3  4  1  0
  4  5  1  0
  5  6  1  0
  7  6  1  6
  7  8  1  0
  8  9  1  0
  9 10  1  1
 10 11  1  0
 11 12  2  0
 12 13  1  0
 13 14  2  0
 14 15  1  0
 15 16  2  0
 16 17  1  0
 17 18  2  0
 17 19  1  0
 19 20  1  0
 20 21  1  0
 21 22  1  0
 22 23  1  0
 23 24  2  0
 23 25  1  0
 25 26  1  0
 26 27  2  0
 19 28  1  0
 28 29  2  0
  9 30  1  0
  2 31  1  0
 32 31  1  6
 32 33  1  0
 33 34  1  0
 34 35  1  0
 35 36  1  1
 36 37  1  0
 37 38  2  0
 38 39  1  0
 39 40  2  0
 40 41  1  0
 41 42  1  0
 42 43  2  0
 42 44  1  0
 44 45  2  0
 45 46  1  0
 46 47  2  0
 47 48  1  0
 48 49  1  0
 49 50  1  0
 49 51  1  0
 49 52  1  0
 48 53  2  0
 40 54  1  0
 54 55  1  0
 55 56  1  0
 55 57  1  0
 55 58  1  0
 54 59  2  0
 59 60  1  0
 60 61  2  0
 35 62  1  0
 62 63  1  0
 30  7  1  0
 63 32  1  0
 16 11  1  0
 26 20  1  0
 61 36  1  0
 28 15  1  0
 60 38  1  0
 53 44  1  0
M  END
> <From>
www.bindingDB.org

> <BindingDB Reactant_set_id>
51589157

> <Ligand InChI>
InChI=1S/C45H51F3N8O7/c1-44(2,62)31-22-34-26(19-35(31)51-40(58)33-9-5-10-37(50-33)45(46,47)48)24-55(53-34)28-13-11-25(12-14-28)23-54(3)17-6-18-63-29-20-27(21-29)49-32-8-4-7-30-39(32)43(61)56(42(30)60)36-15-16-38(57)52-41(36)59/h4-5,7-10,19,22,24-25,27-29,36,49,62H,6,11-18,20-21,23H2,1-3H3,(H,51,58)(H,52,57,59)

> <Ligand InChI Key>
CKFOAVDINFHZIR-UHFFFAOYSA-N

> <BindingDB MonomerID>
50639841

> <BindingDB Ligand Name>
CHEMBL5568202

> <Target Name>
Protein cereblon

> <Target Source Organism According to Curator or DataSource>
Human

> <Ki (nM)>


> <IC50 (nM)>
 21

> <Kd (nM)>


> <EC50 (nM)>


> <kon (M-1-s-1)>


> <koff (s-1)>


> <pH>


> <Temp C>


> <Curation/DataSource>
ChEMBL

> <Article DOI>


> <BindingDB Entry DOI>
10.7270/Q23F4V8G

> <PMID>
38920289

> <PubChem AID>


> <Patent Number>


> <Authors>
Weiss, MM; Zheng, X; Ji, N; Browne, CM; Campbell, V; Chen, D; Enerson, B; Fei, X; Huang, X; Klaus, CR; Li, H; Mayo, M; McDonald, AA; Paul, A; Rong, H; Sharma, K; Shi, Y; Slavin, A; Walther, DM; Yuan, K; Zhang, Y; Zhu, X; Kelleher, J; Walker, D; Mainolfi, N

> <Date of publication>
//0

> <Date in BindingDB>
10/11/2025

> <Institution>
Kymera Therapeutics

> <Link to Ligand in BindingDB>
http://www.bindingdb.org/bind/chemsearch/marvin/MolStructure.jsp?monomerid=50639841

> <Link to Ligand-Target Pair in BindingDB>
http://www.bindingdb.org/rwd/jsp/dbsearch/PrimarySearch_ki.jsp?energyterm=kJ/mole&tag=pol&polymerid=50007050&target=Protein+cereblon&column=ki&startPg=0&Increment=50&submit=Search

> <Link to Ligand-Target Pair in BindingDB>
http://www.bindingdb.org/rwd/jsp/dbsearch/PrimarySearch_ki.jsp?energyterm=kJ/mole&tag=r21&monomerid=50639841&enzyme=Protein+cereblon&column=ki&startPg=0&Increment=50&submit=Search

> <Ligand HET ID in PDB>


> <PDB ID(s) for Ligand-Target Complex>


> <PubChem CID of Ligand>
165437238

> <PubChem SID of Ligand>
519660244

> <ChEBI ID of Ligand>


> <ChEMBL ID of Ligand>


> <DrugBank ID of Ligand>


> <IUPHAR_GRAC ID of Ligand>


> <KEGG ID of Ligand>


> <ZINC ID of Ligand>


> <Number of Protein Chains in Target (bigger than 1 implies a multichain complex)>
1

> <BindingDB Target Chain Sequence>
MAGEGDQQDAAHNMGNHLPLLPAESEEEDEMEVEDQDSKEAKKPNIINFDTSLPTSHTYLGADMEEFHGRTLHDDDSCQVIPVLPQVMMILIPGQTLPLQLFHPQEVSMVRNLIQKDRTFAVLAYSNVQEREAQFGTTAEIYAYREEQDFGIEIVKVKAIGRQRFKVLELRTQSDGIQQAKVQILPECVLPSTMSAVQLESLNKCQIFPSKPVSREDQCSYKWWQKYQKRKFHCANLTSWPRWLYSLYDAETLMDRIKKQLREWDENLKDDSLPSNPIDFSYRVAACLPIDDVLRIQLLKIGSAIQRLRCELDIMNKCTSLCCKQCQETEITTKNEIFSLSLCGPMAAYVNPHGYVHETLTVYKACNLNLIGRPSTEHSWFPGYAWTVAQCKICASHIGWKFTATKKDMSPQKFWGLTRSALLPTIPDTEDEISPDKVILCL

> <PDB ID(s) of Target Chain>
9DUR,8TNR,8TNQ,8TNP,9DWW,9DWV,9NGT,9NFR,9NFQ,8D81,8D80,8D7Z,8D7Y,8D7X,8D7W,8D7V,8D7U,8CVP,9Q2D,9Q03,9DQD,8UH6,9SAI,9SAF,9H59,9E2U,6BOY,6BNB,6BN9,6BN8,6BN7,9OUL,9Y7D,6XK9,6UML,5V3O,5HXB,9HNE,9D0X,9D0W,7U8F,9FJX,8OJH,8OIZ,7LPS,9SFM,9OTY,4TZ4,9DJX,9DJT,8U17,8U16,8U15,8TZX,8DEY,9CUO,4M91

> <UniProt (SwissProt) Recommended Name of Target Chain>
Protein cereblon

> <UniProt (SwissProt) Entry Name of Target Chain>
CRBN_HUMAN

> <UniProt (SwissProt) Primary ID of Target Chain>
Q96SW2

> <UniProt (SwissProt) Secondary ID(s) of Target Chain>
B2R6H4 C9IZA9 C9JAH6 Q6AI62 Q6NVZ0 Q9UHW4

> <UniProt (SwissProt) Alternative ID(s) of Target Chain>


> <UniProt (TrEMBL) Submitted Name of Target Chain>


> <UniProt (TrEMBL) Entry Name of Target Chain>


> <UniProt (TrEMBL) Primary ID of Target Chain>


> <UniProt (TrEMBL) Secondary ID(s) of Target Chain>


> <UniProt (TrEMBL) Alternative ID(s) of Target Chain>


$$$$

     RDKit          2D

 61 68  0  0  0  0  0  0  0  0999 V2000
    1.3299    5.6152    0.0000 C   0  0  0  0  0  0  0  0  0  0  0  0
   -0.0967    5.1517    0.0000 O   0  0  0  0  0  0  0  0  0  0  0  0
   -0.4086    3.6844    0.0000 C   0  0  0  0  0  0  0  0  0  0  0  0
    0.7062    2.6807    0.0000 C   0  0  0  0  0  0  0  0  0  0  0  0
    0.3943    1.2135    0.0000 C   0  0  0  0  0  0  0  0  0  0  0  0
    1.2760    0.0000    0.0000 N   0  0  0  0  0  0  0  0  0  0  0  0
    0.3943   -1.2135    0.0000 N   0  0  0  0  0  0  0  0  0  0  0  0
    0.8578   -2.6401    0.0000 C   0  0  0  0  0  0  0  0  0  0  0  0
   -0.1459   -3.7548    0.0000 C   0  0  0  0  0  0  0  0  0  0  0  0
    0.3177   -5.1814    0.0000 C   0  0  0  0  0  0  0  0  0  0  0  0
    1.7849   -5.4933    0.0000 C   0  0  0  0  0  0  0  0  0  0  0  0
    2.2484   -6.9199    0.0000 C   0  0  0  0  0  0  0  0  0  0  0  0
    1.2447   -8.0346    0.0000 N   0  0  0  0  0  0  0  0  0  0  0  0
    1.7082   -9.4612    0.0000 C   0  0  0  0  0  0  0  0  0  0  0  0
   -0.2225   -7.7227    0.0000 C   0  0  0  0  0  0  0  0  0  0  0  0
   -1.2262   -8.8374    0.0000 C   0  0  0  0  0  0  0  0  0  0  0  0
   -2.6934   -8.5256    0.0000 C   0  0  0  0  0  0  0  0  0  0  0  0
   -3.6971   -9.6403    0.0000 O   0  0  0  0  0  0  0  0  0  0  0  0
   -5.1644   -9.3284    0.0000 C   0  0  0  0  0  0  0  0  0  0  0  0
   -5.9813   -8.0704    0.0000 C   0  0  0  0  0  0  0  0  0  0  0  0
   -7.2393   -8.8874    0.0000 C   0  0  0  0  0  0  0  0  0  0  0  0
   -8.7065   -8.5755    0.0000 N   0  0  0  0  0  0  0  0  0  0  0  0
   -9.1701   -7.1489    0.0000 C   0  0  0  0  0  0  0  0  0  0  0  0
   -8.1664   -6.0342    0.0000 C   0  0  0  0  0  0  0  0  0  0  0  0
   -8.6299   -4.6076    0.0000 C   0  0  0  0  0  0  0  0  0  0  0  0
  -10.0971   -4.2957    0.0000 C   0  0  0  0  0  0  0  0  0  0  0  0
  -11.1008   -5.4105    0.0000 C   0  0  0  0  0  0  0  0  0  0  0  0
  -10.6373   -6.8370    0.0000 C   0  0  0  0  0  0  0  0  0  0  0  0
  -11.8508   -7.7187    0.0000 C   0  0  0  0  0  0  0  0  0  0  0  0
  -11.8508   -9.2187    0.0000 O   0  0  0  0  0  0  0  0  0  0  0  0
  -13.0643   -6.8370    0.0000 N   0  0  0  0  0  0  0  0  0  0  0  0
  -14.4909   -7.3006    0.0000 C   0  0  0  0  0  0  0  0  0  0  0  0
  -15.6056   -6.2969    0.0000 C   0  0  0  0  0  0  0  0  0  0  0  0
  -17.0322   -6.7604    0.0000 C   0  0  0  0  0  0  0  0  0  0  0  0
  -17.3441   -8.2276    0.0000 C   0  0  0  0  0  0  0  0  0  0  0  0
  -18.7707   -8.6911    0.0000 O   0  0  0  0  0  0  0  0  0  0  0  0
  -16.2294   -9.2313    0.0000 N   0  0  0  0  0  0  0  0  0  0  0  0
  -14.8028   -8.7678    0.0000 C   0  0  0  0  0  0  0  0  0  0  0  0
  -13.6881   -9.7715    0.0000 O   0  0  0  0  0  0  0  0  0  0  0  0
  -12.6008   -5.4105    0.0000 C   0  0  0  0  0  0  0  0  0  0  0  0
  -13.4825   -4.1969    0.0000 O   0  0  0  0  0  0  0  0  0  0  0  0
   -6.4224  -10.1454    0.0000 C   0  0  0  0  0  0  0  0  0  0  0  0
    2.7886   -4.3786    0.0000 C   0  0  0  0  0  0  0  0  0  0  0  0
    2.3250   -2.9520    0.0000 C   0  0  0  0  0  0  0  0  0  0  0  0
   -1.0323   -0.7500    0.0000 C   0  0  0  0  0  0  0  0  0  0  0  0
   -1.0323    0.7500    0.0000 C   0  0  0  0  0  0  0  0  0  0  0  0
   -2.1470    1.7537    0.0000 C   0  0  0  0  0  0  0  0  0  0  0  0
   -1.8351    3.2209    0.0000 C   0  0  0  0  0  0  0  0  0  0  0  0
   -2.9499    4.2246    0.0000 N   0  0  0  0  0  0  0  0  0  0  0  0
   -2.6380    5.6918    0.0000 C   0  0  0  0  0  0  0  0  0  0  0  0
   -1.2114    6.1554    0.0000 O   0  0  0  0  0  0  0  0  0  0  0  0
   -3.7527    6.6955    0.0000 C   0  0  0  0  0  0  0  0  0  0  0  0
   -3.4408    8.1628    0.0000 C   0  0  0  0  0  0  0  0  0  0  0  0
   -4.5556    9.1664    0.0000 C   0  0  0  0  0  0  0  0  0  0  0  0
   -5.9821    8.7029    0.0000 C   0  0  0  0  0  0  0  0  0  0  0  0
   -6.2940    7.2357    0.0000 C   0  0  0  0  0  0  0  0  0  0  0  0
   -7.7206    6.7722    0.0000 C   0  0  0  0  0  0  0  0  0  0  0  0
   -9.1472    6.3086    0.0000 F   0  0  0  0  0  0  0  0  0  0  0  0
   -8.1841    8.1988    0.0000 F   0  0  0  0  0  0  0  0  0  0  0  0
   -7.2571    5.3456    0.0000 F   0  0  0  0  0  0  0  0  0  0  0  0
   -5.1793    6.2320    0.0000 N   0  0  0  0  0  0  0  0  0  0  0  0
  1  2  1  0
  2  3  1  0
  3  4  2  0
  4  5  1  0
  5  6  2  0
  6  7  1  0
  8  7  1  6
  8  9  1  0
  9 10  1  0
 10 11  1  0
 11 12  1  1
 12 13  1  0
 13 14  1  0
 13 15  1  0
 15 16  1  0
 16 17  1  0
 17 18  1  0
 19 18  1  6
 19 20  1  0
 20 21  1  0
 21 22  1  1
 22 23  1  0
 23 24  2  0
 24 25  1  0
 25 26  2  0
 26 27  1  0
 27 28  2  0
 28 29  1  0
 29 30  2  0
 29 31  1  0
 31 32  1  0
 32 33  1  0
 33 34  1  0
 34 35  1  0
 35 36  2  0
 35 37  1  0
 37 38  1  0
 38 39  2  0
 31 40  1  0
 40 41  2  0
 21 42  1  0
 11 43  1  0
 43 44  1  0
  7 45  1  0
 45 46  2  0
 46 47  1  0
 47 48  2  0
 48 49  1  0
 49 50  1  0
 50 51  2  0
 50 52  1  0
 52 53  2  0
 53 54  1  0
 54 55  2  0
 55 56  1  0
 56 57  1  0
 57 58  1  0
 57 59  1  0
 57 60  1  0
 56 61  2  0
 48  3  1  0
 61 52  1  0
 46  5  1  0
 44  8  1  0
 42 19  1  0
 28 23  1  0
 38 32  1  0
 40 27  1  0
M  END
> <From>
www.bindingDB.org

> <BindingDB Reactant_set_id>
51589158

> <Ligand InChI>
InChI=1S/C43H47F3N8O7/c1-52(16-5-17-61-28-19-26(20-28)47-30-7-3-6-29-38(30)42(59)54(41(29)58)34-14-15-37(55)50-40(34)57)22-24-10-12-27(13-11-24)53-23-25-18-33(35(60-2)21-32(25)51-53)49-39(56)31-8-4-9-36(48-31)43(44,45)46/h3-4,6-9,18,21,23-24,26-28,34,47H,5,10-17,19-20,22H2,1-2H3,(H,49,56)(H,50,55,57)

> <Ligand InChI Key>
VPXGVLREMMWXOO-UHFFFAOYSA-N

> <BindingDB MonomerID>
50639842

> <BindingDB Ligand Name>
CHEMBL5559977

> <Target Name>
Protein cereblon

> <Target Source Organism According to Curator or DataSource>
Human

> <Ki (nM)>


> <IC50 (nM)>
 23

> <Kd (nM)>


> <EC50 (nM)>


> <kon (M-1-s-1)>


> <koff (s-1)>


> <pH>


> <Temp C>


> <Curation/DataSource>
ChEMBL

> <Article DOI>


> <BindingDB Entry DOI>
10.7270/Q23F4V8G

> <PMID>
38920289

> <PubChem AID>


> <Patent Number>


> <Authors>
Weiss, MM; Zheng, X; Ji, N; Browne, CM; Campbell, V; Chen, D; Enerson, B; Fei, X; Huang, X; Klaus, CR; Li, H; Mayo, M; McDonald, AA; Paul, A; Rong, H; Sharma, K; Shi, Y; Slavin, A; Walther, DM; Yuan, K; Zhang, Y; Zhu, X; Kelleher, J; Walker, D; Mainolfi, N

> <Date of publication>
//0

> <Date in BindingDB>
10/11/2025

> <Institution>
Kymera Therapeutics

> <Link to Ligand in BindingDB>
http://www.bindingdb.org/bind/chemsearch/marvin/MolStructure.jsp?monomerid=50639842

> <Link to Ligand-Target Pair in BindingDB>
http://www.bindingdb.org/rwd/jsp/dbsearch/PrimarySearch_ki.jsp?energyterm=kJ/mole&tag=pol&polymerid=50007050&target=Protein+cereblon&column=ki&startPg=0&Increment=50&submit=Search

> <Link to Ligand-Target Pair in BindingDB>
http://www.bindingdb.org/rwd/jsp/dbsearch/PrimarySearch_ki.jsp?energyterm=kJ/mole&tag=r21&monomerid=50639842&enzyme=Protein+cereblon&column=ki&startPg=0&Increment=50&submit=Search

> <Ligand HET ID in PDB>


> <PDB ID(s) for Ligand-Target Complex>


> <PubChem CID of Ligand>
155448699

> <PubChem SID of Ligand>
519660245

> <ChEBI ID of Ligand>


> <ChEMBL ID of Ligand>


> <DrugBank ID of Ligand>


> <IUPHAR_GRAC ID of Ligand>


> <KEGG ID of Ligand>


> <ZINC ID of Ligand>


> <Number of Protein Chains in Target (bigger than 1 implies a multichain complex)>
1

> <BindingDB Target Chain Sequence>
MAGEGDQQDAAHNMGNHLPLLPAESEEEDEMEVEDQDSKEAKKPNIINFDTSLPTSHTYLGADMEEFHGRTLHDDDSCQVIPVLPQVMMILIPGQTLPLQLFHPQEVSMVRNLIQKDRTFAVLAYSNVQEREAQFGTTAEIYAYREEQDFGIEIVKVKAIGRQRFKVLELRTQSDGIQQAKVQILPECVLPSTMSAVQLESLNKCQIFPSKPVSREDQCSYKWWQKYQKRKFHCANLTSWPRWLYSLYDAETLMDRIKKQLREWDENLKDDSLPSNPIDFSYRVAACLPIDDVLRIQLLKIGSAIQRLRCELDIMNKCTSLCCKQCQETEITTKNEIFSLSLCGPMAAYVNPHGYVHETLTVYKACNLNLIGRPSTEHSWFPGYAWTVAQCKICASHIGWKFTATKKDMSPQKFWGLTRSALLPTIPDTEDEISPDKVILCL

> <PDB ID(s) of Target Chain>
9DUR,8TNR,8TNQ,8TNP,9DWW,9DWV,9NGT,9NFR,9NFQ,8D81,8D80,8D7Z,8D7Y,8D7X,8D7W,8D7V,8D7U,8CVP,9Q2D,9Q03,9DQD,8UH6,9SAI,9SAF,9H59,9E2U,6BOY,6BNB,6BN9,6BN8,6BN7,9OUL,9Y7D,6XK9,6UML,5V3O,5HXB,9HNE,9D0X,9D0W,7U8F,9FJX,8OJH,8OIZ,7LPS,9SFM,9OTY,4TZ4,9DJX,9DJT,8U17,8U16,8U15,8TZX,8DEY,9CUO,4M91

> <UniProt (SwissProt) Recommended Name of Target Chain>
Protein cereblon

> <UniProt (SwissProt) Entry Name of Target Chain>
CRBN_HUMAN

> <UniProt (SwissProt) Primary ID of Target Chain>
Q96SW2

> <UniProt (SwissProt) Secondary ID(s) of Target Chain>
B2R6H4 C9IZA9 C9JAH6 Q6AI62 Q6NVZ0 Q9UHW4

> <UniProt (SwissProt) Alternative ID(s) of Target Chain>


> <UniProt (TrEMBL) Submitted Name of Target Chain>


> <UniProt (TrEMBL) Entry Name of Target Chain>


> <UniProt (TrEMBL) Primary ID of Target Chain>


> <UniProt (TrEMBL) Secondary ID(s) of Target Chain>


> <UniProt (TrEMBL) Alternative ID(s) of Target Chain>


$$$$
 
     RDKit          2D

 60 68  0  0  0  0  0  0  0  0999 V2000
   18.3166  -22.0477    0.0000 O   0  0  0  0  0  0  0  0  0  0  0  0
   18.8986  -22.6296    0.0000 S   0  0  0  0  0  0  0  0  0  0  0  0
   19.1116  -21.8347    0.0000 O   0  0  0  0  0  0  0  0  0  0  0  0
   16.1608  -27.3759    0.0000 N   0  0  0  0  0  0  0  0  0  0  0  0
   16.1597  -28.1954    0.0000 C   0  0  0  0  0  0  0  0  0  0  0  0
   16.8677  -28.6044    0.0000 N   0  0  0  0  0  0  0  0  0  0  0  0
   16.8659  -26.9670    0.0000 C   0  0  0  0  0  0  0  0  0  0  0  0
   17.5745  -27.3723    0.0000 C   0  0  0  0  0  0  0  0  0  0  0  0
   17.5793  -28.1909    0.0000 C   0  0  0  0  0  0  0  0  0  0  0  0
   18.3594  -28.4393    0.0000 N   0  0  0  0  0  0  0  0  0  0  0  0
   18.8367  -27.7742    0.0000 C   0  0  0  0  0  0  0  0  0  0  0  0
   18.3516  -27.1148    0.0000 C   0  0  0  0  0  0  0  0  0  0  0  0
   16.8603  -26.1526    0.0000 C   0  0  0  0  0  0  0  0  0  0  0  0
   17.5200  -25.6702    0.0000 C   0  0  0  0  0  0  0  0  0  0  0  0
   17.2651  -24.8938    0.0000 N   0  0  0  0  0  0  0  0  0  0  0  0
   16.4479  -24.8962    0.0000 N   0  0  0  0  0  0  0  0  0  0  0  0
   16.1978  -25.6742    0.0000 C   0  0  0  0  0  0  0  0  0  0  0  0
   15.4516  -28.6034    0.0000 N   0  0  0  0  0  0  0  0  0  0  0  0
   14.7443  -28.1943    0.0000 C   0  0  0  0  0  0  0  0  0  0  0  0
   14.7494  -27.3772    0.0000 C   0  0  0  0  0  0  0  0  0  0  0  0
   14.0429  -26.9681    0.0000 C   0  0  0  0  0  0  0  0  0  0  0  0
   13.3339  -27.3762    0.0000 C   0  0  0  0  0  0  0  0  0  0  0  0
   13.3358  -28.1977    0.0000 C   0  0  0  0  0  0  0  0  0  0  0  0
   14.0430  -28.6030    0.0000 C   0  0  0  0  0  0  0  0  0  0  0  0
   12.6259  -26.9680    0.0000 C   0  0  0  0  0  0  0  0  0  0  0  0
   12.6255  -26.1508    0.0000 O   0  0  0  0  0  0  0  0  0  0  0  0
   11.9185  -27.3770    0.0000 N   0  0  0  0  0  0  0  0  0  0  0  0
   11.2105  -26.9688    0.0000 C   0  0  0  0  0  0  0  0  0  0  0  0
   17.7435  -24.2313    0.0000 C   0  0  0  0  0  0  0  0  0  0  0  0
   18.5545  -24.1010    0.0000 C   0  0  0  0  0  0  0  0  0  0  0  0
   18.4242  -23.2942    0.0000 N   0  0  0  0  0  0  0  0  0  0  0  0
   17.6175  -23.4245    0.0000 C   0  0  0  0  0  0  0  0  0  0  0  0
   19.7156  -22.7147    0.0000 C   0  0  0  0  0  0  0  0  0  0  0  0
   20.1952  -22.0531    0.0000 C   0  0  0  0  0  0  0  0  0  0  0  0
   18.3208  -24.8088    0.0000 C   0  0  0  0  0  0  0  0  0  0  0  0
   19.1102  -24.5974    0.0000 C   0  0  0  0  0  0  0  0  0  0  0  0
   19.8986  -24.3873    0.0000 N   0  0  0  0  0  0  0  0  0  0  0  0
   10.5030  -27.3778    0.0000 C   0  0  0  0  0  0  0  0  0  0  0  0
    9.7951  -26.9695    0.0000 C   0  0  0  0  0  0  0  0  0  0  0  0
    9.0876  -27.3785    0.0000 N   0  0  0  0  0  0  0  0  0  0  0  0
    8.3797  -26.9703    0.0000 C   0  0  0  0  0  0  0  0  0  0  0  0
    9.0881  -28.1957    0.0000 C   0  0  0  0  0  0  0  0  0  0  0  0
    8.3806  -28.6047    0.0000 C   0  0  0  0  0  0  0  0  0  0  0  0
    7.6726  -28.1965    0.0000 N   0  0  0  0  0  0  0  0  0  0  0  0
    6.9652  -28.6054    0.0000 C   0  0  0  0  0  0  0  0  0  0  0  0
    7.6722  -27.3793    0.0000 C   0  0  0  0  0  0  0  0  0  0  0  0
    6.2622  -28.1940    0.0000 C   0  0  0  0  0  0  0  0  0  0  0  0
    5.5552  -28.6023    0.0000 C   0  0  0  0  0  0  0  0  0  0  0  0
    5.5552  -29.4204    0.0000 C   0  0  0  0  0  0  0  0  0  0  0  0
    6.2681  -29.8284    0.0000 C   0  0  0  0  0  0  0  0  0  0  0  0
    6.9722  -29.4178    0.0000 C   0  0  0  0  0  0  0  0  0  0  0  0
    4.8482  -29.8303    0.0000 C   0  0  0  0  0  0  0  0  0  0  0  0
    4.1398  -29.4230    0.0000 C   0  0  0  0  0  0  0  0  0  0  0  0
    3.4328  -29.8329    0.0000 N   0  0  0  0  0  0  0  0  0  0  0  0
    3.4343  -30.6501    0.0000 C   0  0  0  0  0  0  0  0  0  0  0  0
    4.8498  -30.6475    0.0000 C   0  0  0  0  0  0  0  0  0  0  0  0
    4.1428  -31.0574    0.0000 C   0  0  0  0  0  0  0  0  0  0  0  0
    2.7274  -31.0600    0.0000 O   0  0  0  0  0  0  0  0  0  0  0  0
    4.1382  -28.6058    0.0000 O   0  0  0  0  0  0  0  0  0  0  0  0
    8.0481  -27.8423    0.0000 C   0  0  0  0  0  0  0  0  0  0  0  0
  2  1  2  0
  3  2  2  0
  4  5  2  0
  5  6  1  0
  6  9  2  0
  8  7  2  0
  7  4  1  0
  8  9  1  0
  9 10  1  0
 10 11  1  0
 11 12  2  0
 12  8  1  0
 13 14  2  0
 14 15  1  0
 15 16  1  0
 16 17  2  0
 17 13  1  0
  7 13  1  0
  5 18  1  0
 18 19  1  0
 19 20  2  0
 20 21  1  0
 21 22  2  0
 22 23  1  0
 23 24  2  0
 24 19  1  0
 22 25  1  0
 25 26  2  0
 25 27  1  0
 27 28  1  0
 15 29  1  0
 29 30  1  0
 30 31  1  0
 31 32  1  0
 32 29  1  0
 31  2  1  0
  2 33  1  0
 33 34  1  0
 29 35  1  0
 35 36  1  0
 36 37  3  0
 28 38  1  0
 38 39  1  0
 39 40  1  0
 40 41  1  0
 40 42  1  0
 42 43  1  0
 41 46  1  0
 43 44  1  0
 44 45  1  0
 44 46  1  0
 45 47  2  0
 47 48  1  0
 48 49  2  0
 49 50  1  0
 50 51  2  0
 51 45  1  0
 49 52  1  0
 52 53  1  0
 53 54  1  0
 54 55  1  0
 52 56  1  0
 56 57  1  0
 55 57  1  0
 55 58  2  0
 53 59  2  0
 41 60  1  0
 43 60  1  0
M  END
> <From>
www.bindingDB.org

> <BindingDB Reactant_set_id>
51451991

> <Ligand InChI>


> <Ligand InChI Key>


> <BindingDB MonomerID>
50586186

> <BindingDB Ligand Name>
CHEMBL5077200

> <Target Name>
Protein cereblon

> <Target Source Organism According to Curator or DataSource>
Human

> <Ki (nM)>


> <IC50 (nM)>
 24

> <Kd (nM)>


> <EC50 (nM)>


> <kon (M-1-s-1)>


> <koff (s-1)>


> <pH>


> <Temp C>


> <Curation/DataSource>
ChEMBL

> <Article DOI>
10.1021/acsmedchemlett.1c00650

> <BindingDB Entry DOI>
10.7270/Q2D79GBF

> <PMID>
35300081

> <PubChem AID>


> <Patent Number>


> <Authors>
Alcock, LJ; Chang, Y; Jarusiewicz, JA; Actis, M; Nithianantham, S; Mayasundari, A; Min, J; Maxwell, D; Hunt, J; Smart, B; Yang, JJ; Nishiguchi, G; Fischer, M; Mullighan, CG; Rankovic, Z

> <Date of publication>
3/10/2022

> <Date in BindingDB>
3/7/2023

> <Institution>
St. Jude Children's Research Hospital

> <Link to Ligand in BindingDB>
http://www.bindingdb.org/bind/chemsearch/marvin/MolStructure.jsp?monomerid=50586186

> <Link to Ligand-Target Pair in BindingDB>
http://www.bindingdb.org/jsp/dbsearch/PrimarySearch_ki.jsp?energyterm=kJ/mole&tag=pol&polymerid=50007050&target=Protein+cereblon&column=ki&startPg=0&Increment=50&submit=Search

> <Link to Ligand-Target Pair in BindingDB>
http://www.bindingdb.org/jsp/dbsearch/PrimarySearch_ki.jsp?energyterm=kJ/mole&tag=r21&monomerid=50586186&enzyme=Protein+cereblon&column=ki&startPg=0&Increment=50&submit=Search

> <Ligand HET ID in PDB>


> <PDB ID(s) for Ligand-Target Complex>


> <PubChem CID of Ligand>
164540865

> <PubChem SID of Ligand>
476022273

> <ChEBI ID of Ligand>


> <ChEMBL ID of Ligand>


> <DrugBank ID of Ligand>


> <IUPHAR_GRAC ID of Ligand>


> <KEGG ID of Ligand>


> <ZINC ID of Ligand>


> <Number of Protein Chains in Target (bigger than 1 implies a multichain complex)>
1

> <BindingDB Target Chain Sequence>
MAGEGDQQDAAHNMGNHLPLLPAESEEEDEMEVEDQDSKEAKKPNIINFDTSLPTSHTYLGADMEEFHGRTLHDDDSCQVIPVLPQVMMILIPGQTLPLQLFHPQEVSMVRNLIQKDRTFAVLAYSNVQEREAQFGTTAEIYAYREEQDFGIEIVKVKAIGRQRFKVLELRTQSDGIQQAKVQILPECVLPSTMSAVQLESLNKCQIFPSKPVSREDQCSYKWWQKYQKRKFHCANLTSWPRWLYSLYDAETLMDRIKKQLREWDENLKDDSLPSNPIDFSYRVAACLPIDDVLRIQLLKIGSAIQRLRCELDIMNKCTSLCCKQCQETEITTKNEIFSLSLCGPMAAYVNPHGYVHETLTVYKACNLNLIGRPSTEHSWFPGYAWTVAQCKICASHIGWKFTATKKDMSPQKFWGLTRSALLPTIPDTEDEISPDKVILCL

> <PDB ID(s) of Target Chain>
4TZ4,5HXB,5V3O,6UML,6XK9,7LPS,7U8F,8CVP,8D7U,8D7V,8D7W,8D7X,8D7Y,8D7Z,8D80,8D81,8DEY,8OIZ,8OJH

> <UniProt (SwissProt) Recommended Name of Target Chain>
Protein cereblon

> <UniProt (SwissProt) Entry Name of Target Chain>
CRBN_HUMAN

> <UniProt (SwissProt) Primary ID of Target Chain>
Q96SW2

> <UniProt (SwissProt) Secondary ID(s) of Target Chain>
B2R6H4 C9IZA9 C9JAH6 Q6AI62 Q6NVZ0 Q9UHW4

> <UniProt (SwissProt) Alternative ID(s) of Target Chain>


> <UniProt (TrEMBL) Submitted Name of Target Chain>


> <UniProt (TrEMBL) Entry Name of Target Chain>


> <UniProt (TrEMBL) Primary ID of Target Chain>


> <UniProt (TrEMBL) Secondary ID(s) of Target Chain>


> <UniProt (TrEMBL) Alternative ID(s) of Target Chain>


$$$$

     RDKit          2D

 59 66  0  0  0  0  0  0  0  0999 V2000
   11.8713   -6.4952    0.0000 C   0  0  0  0  0  0  0  0  0  0  0  0
   11.1213   -5.1962    0.0000 N   0  0  0  0  0  0  0  0  0  0  0  0
    9.6213   -5.1962    0.0000 C   0  0  0  0  0  0  0  0  0  0  0  0
    8.8713   -3.8971    0.0000 C   0  0  0  0  0  0  0  0  0  0  0  0
    7.3713   -3.8971    0.0000 C   0  0  0  0  0  0  0  0  0  0  0  0
    6.6213   -2.5981    0.0000 O   0  0  0  0  0  0  0  0  0  0  0  0
    5.1213   -2.5981    0.0000 C   0  0  0  0  0  0  0  0  0  0  0  0
    4.0607   -1.5374    0.0000 C   0  0  0  0  0  0  0  0  0  0  0  0
    3.0000   -2.5981    0.0000 C   0  0  0  0  0  0  0  0  0  0  0  0
    1.5000   -2.5981    0.0000 N   0  0  0  0  0  0  0  0  0  0  0  0
    0.7500   -1.2990    0.0000 C   0  0  0  0  0  0  0  0  0  0  0  0
    1.5000    0.0000    0.0000 C   0  0  0  0  0  0  0  0  0  0  0  0
    0.7500    1.2990    0.0000 C   0  0  0  0  0  0  0  0  0  0  0  0
   -0.7500    1.2990    0.0000 C   0  0  0  0  0  0  0  0  0  0  0  0
   -1.5000    0.0000    0.0000 C   0  0  0  0  0  0  0  0  0  0  0  0
   -0.7500   -1.2990    0.0000 C   0  0  0  0  0  0  0  0  0  0  0  0
   -1.7537   -2.4138    0.0000 C   0  0  0  0  0  0  0  0  0  0  0  0
   -1.4418   -3.8810    0.0000 O   0  0  0  0  0  0  0  0  0  0  0  0
   -3.1240   -1.8037    0.0000 N   0  0  0  0  0  0  0  0  0  0  0  0
   -4.4231   -2.5537    0.0000 C   0  0  0  0  0  0  0  0  0  0  0  0
   -5.7221   -1.8037    0.0000 C   0  0  0  0  0  0  0  0  0  0  0  0
   -7.0211   -2.5537    0.0000 C   0  0  0  0  0  0  0  0  0  0  0  0
   -7.0211   -4.0537    0.0000 C   0  0  0  0  0  0  0  0  0  0  0  0
   -8.3202   -4.8037    0.0000 O   0  0  0  0  0  0  0  0  0  0  0  0
   -5.7221   -4.8037    0.0000 N   0  0  0  0  0  0  0  0  0  0  0  0
   -4.4231   -4.0537    0.0000 C   0  0  0  0  0  0  0  0  0  0  0  0
   -3.1240   -4.8037    0.0000 O   0  0  0  0  0  0  0  0  0  0  0  0
   -2.9672   -0.3119    0.0000 C   0  0  0  0  0  0  0  0  0  0  0  0
   -4.0819    0.6918    0.0000 O   0  0  0  0  0  0  0  0  0  0  0  0
    4.0607   -3.6587    0.0000 C   0  0  0  0  0  0  0  0  0  0  0  0
   11.8713   -3.8971    0.0000 C   0  0  0  0  0  0  0  0  0  0  0  0
   13.3713   -3.8971    0.0000 C   0  0  0  0  0  0  0  0  0  0  0  0
   14.1213   -5.1962    0.0000 C   0  0  0  0  0  0  0  0  0  0  0  0
   15.6213   -5.1962    0.0000 C   0  0  0  0  0  0  0  0  0  0  0  0
   16.3713   -3.8971    0.0000 C   0  0  0  0  0  0  0  0  0  0  0  0
   17.8713   -3.8971    0.0000 N   0  0  0  0  0  0  0  0  0  0  0  0
   18.7530   -5.1106    0.0000 C   0  0  0  0  0  0  0  0  0  0  0  0
   20.1796   -4.6471    0.0000 C   0  0  0  0  0  0  0  0  0  0  0  0
   21.4786   -5.3971    0.0000 C   0  0  0  0  0  0  0  0  0  0  0  0
   22.7777   -4.6471    0.0000 C   0  0  0  0  0  0  0  0  0  0  0  0
   24.0767   -5.3971    0.0000 N   0  0  0  0  0  0  0  0  0  0  0  0
   24.0767   -6.8971    0.0000 C   0  0  0  0  0  0  0  0  0  0  0  0
   22.7777   -7.6471    0.0000 O   0  0  0  0  0  0  0  0  0  0  0  0
   25.3757   -7.6471    0.0000 C   0  0  0  0  0  0  0  0  0  0  0  0
   25.3757   -9.1471    0.0000 C   0  0  0  0  0  0  0  0  0  0  0  0
   26.6748   -9.8971    0.0000 C   0  0  0  0  0  0  0  0  0  0  0  0
   27.9738   -9.1471    0.0000 C   0  0  0  0  0  0  0  0  0  0  0  0
   27.9738   -7.6471    0.0000 C   0  0  0  0  0  0  0  0  0  0  0  0
   29.2728   -6.8971    0.0000 C   0  0  0  0  0  0  0  0  0  0  0  0
   30.5719   -6.1471    0.0000 F   0  0  0  0  0  0  0  0  0  0  0  0
   30.0228   -8.1962    0.0000 F   0  0  0  0  0  0  0  0  0  0  0  0
   28.5228   -5.5981    0.0000 F   0  0  0  0  0  0  0  0  0  0  0  0
   26.6748   -6.8971    0.0000 N   0  0  0  0  0  0  0  0  0  0  0  0
   22.7777   -3.1471    0.0000 C   0  0  0  0  0  0  0  0  0  0  0  0
   21.4786   -2.3971    0.0000 C   0  0  0  0  0  0  0  0  0  0  0  0
   20.1796   -3.1471    0.0000 C   0  0  0  0  0  0  0  0  0  0  0  0
   18.7530   -2.6836    0.0000 N   0  0  0  0  0  0  0  0  0  0  0  0
   15.6213   -2.5981    0.0000 C   0  0  0  0  0  0  0  0  0  0  0  0
   14.1213   -2.5981    0.0000 C   0  0  0  0  0  0  0  0  0  0  0  0
  1  2  1  0
  2  3  1  0
  3  4  1  0
  4  5  1  0
  5  6  1  0
  7  6  1  6
  7  8  1  0
  8  9  1  0
  9 10  1  1
 10 11  1  0
 11 12  2  0
 12 13  1  0
 13 14  2  0
 14 15  1  0
 15 16  2  0
 16 17  1  0
 17 18  2  0
 17 19  1  0
 19 20  1  0
 20 21  1  0
 21 22  1  0
 22 23  1  0
 23 24  2  0
 23 25  1  0
 25 26  1  0
 26 27  2  0
 19 28  1  0
 28 29  2  0
  9 30  1  0
  2 31  1  0
 32 31  1  6
 32 33  1  0
 33 34  1  0
 34 35  1  0
 35 36  1  1
 36 37  1  0
 37 38  2  0
 38 39  1  0
 39 40  2  0
 40 41  1  0
 41 42  1  0
 42 43  2  0
 42 44  1  0
 44 45  2  0
 45 46  1  0
 46 47  2  0
 47 48  1  0
 48 49  1  0
 49 50  1  0
 49 51  1  0
 49 52  1  0
 48 53  2  0
 40 54  1  0
 54 55  2  0
 55 56  1  0
 56 57  2  0
 35 58  1  0
 58 59  1  0
 30  7  1  0
 59 32  1  0
 16 11  1  0
 26 20  1  0
 57 36  1  0
 28 15  1  0
 56 38  1  0
 53 44  1  0
M  END
> <From>
www.bindingDB.org

> <BindingDB Reactant_set_id>
51589159

> <Ligand InChI>
InChI=1S/C42H45F3N8O6/c1-51(17-4-18-59-29-20-27(21-29)46-32-6-2-5-30-37(32)41(58)53(40(30)57)34-15-16-36(54)49-39(34)56)22-24-9-12-28(13-10-24)52-23-25-19-26(11-14-31(25)50-52)47-38(55)33-7-3-8-35(48-33)42(43,44)45/h2-3,5-8,11,14,19,23-24,27-29,34,46H,4,9-10,12-13,15-18,20-22H2,1H3,(H,47,55)(H,49,54,56)

> <Ligand InChI Key>
IPHIYOXVUOYUTO-UHFFFAOYSA-N

> <BindingDB MonomerID>
50639843

> <BindingDB Ligand Name>
CHEMBL5565490

> <Target Name>
Protein cereblon

> <Target Source Organism According to Curator or DataSource>
Human

> <Ki (nM)>


> <IC50 (nM)>
 24

> <Kd (nM)>


> <EC50 (nM)>


> <kon (M-1-s-1)>


> <koff (s-1)>


> <pH>


> <Temp C>


> <Curation/DataSource>
ChEMBL

> <Article DOI>


> <BindingDB Entry DOI>
10.7270/Q23F4V8G

> <PMID>
38920289

> <PubChem AID>


> <Patent Number>


> <Authors>
Weiss, MM; Zheng, X; Ji, N; Browne, CM; Campbell, V; Chen, D; Enerson, B; Fei, X; Huang, X; Klaus, CR; Li, H; Mayo, M; McDonald, AA; Paul, A; Rong, H; Sharma, K; Shi, Y; Slavin, A; Walther, DM; Yuan, K; Zhang, Y; Zhu, X; Kelleher, J; Walker, D; Mainolfi, N

> <Date of publication>
//0

> <Date in BindingDB>
10/11/2025

> <Institution>
Kymera Therapeutics

> <Link to Ligand in BindingDB>
http://www.bindingdb.org/bind/chemsearch/marvin/MolStructure.jsp?monomerid=50639843

> <Link to Ligand-Target Pair in BindingDB>
http://www.bindingdb.org/rwd/jsp/dbsearch/PrimarySearch_ki.jsp?energyterm=kJ/mole&tag=pol&polymerid=50007050&target=Protein+cereblon&column=ki&startPg=0&Increment=50&submit=Search

> <Link to Ligand-Target Pair in BindingDB>
http://www.bindingdb.org/rwd/jsp/dbsearch/PrimarySearch_ki.jsp?energyterm=kJ/mole&tag=r21&monomerid=50639843&enzyme=Protein+cereblon&column=ki&startPg=0&Increment=50&submit=Search

> <Ligand HET ID in PDB>


> <PDB ID(s) for Ligand-Target Complex>


> <PubChem CID of Ligand>
168079892

> <PubChem SID of Ligand>
519660246

> <ChEBI ID of Ligand>


> <ChEMBL ID of Ligand>


> <DrugBank ID of Ligand>


> <IUPHAR_GRAC ID of Ligand>


> <KEGG ID of Ligand>


> <ZINC ID of Ligand>


> <Number of Protein Chains in Target (bigger than 1 implies a multichain complex)>
1

> <BindingDB Target Chain Sequence>
MAGEGDQQDAAHNMGNHLPLLPAESEEEDEMEVEDQDSKEAKKPNIINFDTSLPTSHTYLGADMEEFHGRTLHDDDSCQVIPVLPQVMMILIPGQTLPLQLFHPQEVSMVRNLIQKDRTFAVLAYSNVQEREAQFGTTAEIYAYREEQDFGIEIVKVKAIGRQRFKVLELRTQSDGIQQAKVQILPECVLPSTMSAVQLESLNKCQIFPSKPVSREDQCSYKWWQKYQKRKFHCANLTSWPRWLYSLYDAETLMDRIKKQLREWDENLKDDSLPSNPIDFSYRVAACLPIDDVLRIQLLKIGSAIQRLRCELDIMNKCTSLCCKQCQETEITTKNEIFSLSLCGPMAAYVNPHGYVHETLTVYKACNLNLIGRPSTEHSWFPGYAWTVAQCKICASHIGWKFTATKKDMSPQKFWGLTRSALLPTIPDTEDEISPDKVILCL

> <PDB ID(s) of Target Chain>
9DUR,8TNR,8TNQ,8TNP,9DWW,9DWV,9NGT,9NFR,9NFQ,8D81,8D80,8D7Z,8D7Y,8D7X,8D7W,8D7V,8D7U,8CVP,9Q2D,9Q03,9DQD,8UH6,9SAI,9SAF,9H59,9E2U,6BOY,6BNB,6BN9,6BN8,6BN7,9OUL,9Y7D,6XK9,6UML,5V3O,5HXB,9HNE,9D0X,9D0W,7U8F,9FJX,8OJH,8OIZ,7LPS,9SFM,9OTY,4TZ4,9DJX,9DJT,8U17,8U16,8U15,8TZX,8DEY,9CUO,4M91

> <UniProt (SwissProt) Recommended Name of Target Chain>
Protein cereblon

> <UniProt (SwissProt) Entry Name of Target Chain>
CRBN_HUMAN

> <UniProt (SwissProt) Primary ID of Target Chain>
Q96SW2

> <UniProt (SwissProt) Secondary ID(s) of Target Chain>
B2R6H4 C9IZA9 C9JAH6 Q6AI62 Q6NVZ0 Q9UHW4

> <UniProt (SwissProt) Alternative ID(s) of Target Chain>


> <UniProt (TrEMBL) Submitted Name of Target Chain>


> <UniProt (TrEMBL) Entry Name of Target Chain>


> <UniProt (TrEMBL) Primary ID of Target Chain>


> <UniProt (TrEMBL) Secondary ID(s) of Target Chain>


> <UniProt (TrEMBL) Alternative ID(s) of Target Chain>


$$$$

     RDKit          2D

 62 69  0  0  0  0  0  0  0  0999 V2000
   11.8713   -6.4952    0.0000 C   0  0  0  0  0  0  0  0  0  0  0  0
   11.1213   -5.1962    0.0000 N   0  0  0  0  0  0  0  0  0  0  0  0
    9.6213   -5.1962    0.0000 C   0  0  0  0  0  0  0  0  0  0  0  0
    8.8713   -3.8971    0.0000 C   0  0  0  0  0  0  0  0  0  0  0  0
    7.3713   -3.8971    0.0000 C   0  0  0  0  0  0  0  0  0  0  0  0
    6.6213   -2.5981    0.0000 O   0  0  0  0  0  0  0  0  0  0  0  0
    5.1213   -2.5981    0.0000 C   0  0  0  0  0  0  0  0  0  0  0  0
    4.0607   -1.5374    0.0000 C   0  0  0  0  0  0  0  0  0  0  0  0
    3.0000   -2.5981    0.0000 C   0  0  0  0  0  0  0  0  0  0  0  0
    1.5000   -2.5981    0.0000 N   0  0  0  0  0  0  0  0  0  0  0  0
    0.7500   -1.2990    0.0000 C   0  0  0  0  0  0  0  0  0  0  0  0
    1.5000    0.0000    0.0000 C   0  0  0  0  0  0  0  0  0  0  0  0
    0.7500    1.2990    0.0000 C   0  0  0  0  0  0  0  0  0  0  0  0
   -0.7500    1.2990    0.0000 C   0  0  0  0  0  0  0  0  0  0  0  0
   -1.5000    0.0000    0.0000 C   0  0  0  0  0  0  0  0  0  0  0  0
   -0.7500   -1.2990    0.0000 C   0  0  0  0  0  0  0  0  0  0  0  0
   -1.7537   -2.4138    0.0000 C   0  0  0  0  0  0  0  0  0  0  0  0
   -1.4418   -3.8810    0.0000 O   0  0  0  0  0  0  0  0  0  0  0  0
   -3.1240   -1.8037    0.0000 N   0  0  0  0  0  0  0  0  0  0  0  0
   -4.4231   -2.5537    0.0000 C   0  0  0  0  0  0  0  0  0  0  0  0
   -5.7221   -1.8037    0.0000 C   0  0  0  0  0  0  0  0  0  0  0  0
   -7.0211   -2.5537    0.0000 C   0  0  0  0  0  0  0  0  0  0  0  0
   -7.0211   -4.0537    0.0000 C   0  0  0  0  0  0  0  0  0  0  0  0
   -8.3202   -4.8037    0.0000 O   0  0  0  0  0  0  0  0  0  0  0  0
   -5.7221   -4.8037    0.0000 N   0  0  0  0  0  0  0  0  0  0  0  0
   -4.4231   -4.0537    0.0000 C   0  0  0  0  0  0  0  0  0  0  0  0
   -3.1240   -4.8037    0.0000 O   0  0  0  0  0  0  0  0  0  0  0  0
   -2.9672   -0.3119    0.0000 C   0  0  0  0  0  0  0  0  0  0  0  0
   -4.0819    0.6918    0.0000 O   0  0  0  0  0  0  0  0  0  0  0  0
    4.0607   -3.6587    0.0000 C   0  0  0  0  0  0  0  0  0  0  0  0
   11.8713   -3.8971    0.0000 C   0  0  0  0  0  0  0  0  0  0  0  0
   13.3713   -3.8971    0.0000 C   0  0  0  0  0  0  0  0  0  0  0  0
   14.1213   -5.1962    0.0000 C   0  0  0  0  0  0  0  0  0  0  0  0
   15.6213   -5.1962    0.0000 C   0  0  0  0  0  0  0  0  0  0  0  0
   16.3713   -3.8971    0.0000 C   0  0  0  0  0  0  0  0  0  0  0  0
   17.8713   -3.8971    0.0000 N   0  0  0  0  0  0  0  0  0  0  0  0
   18.7530   -2.6836    0.0000 C   0  0  0  0  0  0  0  0  0  0  0  0
   20.1796   -3.1471    0.0000 C   0  0  0  0  0  0  0  0  0  0  0  0
   21.4786   -2.3971    0.0000 C   0  0  0  0  0  0  0  0  0  0  0  0
   22.7777   -3.1471    0.0000 C   0  0  0  0  0  0  0  0  0  0  0  0
   24.0767   -2.3971    0.0000 N   0  0  0  0  0  0  0  0  0  0  0  0
   24.0767   -0.8971    0.0000 C   0  0  0  0  0  0  0  0  0  0  0  0
   22.7777   -0.1471    0.0000 O   0  0  0  0  0  0  0  0  0  0  0  0
   25.3757   -0.1471    0.0000 C   0  0  0  0  0  0  0  0  0  0  0  0
   25.3757    1.3529    0.0000 C   0  0  0  0  0  0  0  0  0  0  0  0
   26.6748    2.1029    0.0000 C   0  0  0  0  0  0  0  0  0  0  0  0
   27.9738    1.3529    0.0000 C   0  0  0  0  0  0  0  0  0  0  0  0
   27.9738   -0.1471    0.0000 C   0  0  0  0  0  0  0  0  0  0  0  0
   29.2728   -0.8971    0.0000 C   0  0  0  0  0  0  0  0  0  0  0  0
   30.5719   -1.6471    0.0000 F   0  0  0  0  0  0  0  0  0  0  0  0
   30.0228    0.4019    0.0000 F   0  0  0  0  0  0  0  0  0  0  0  0
   28.5228   -2.1962    0.0000 F   0  0  0  0  0  0  0  0  0  0  0  0
   26.6748   -0.8971    0.0000 N   0  0  0  0  0  0  0  0  0  0  0  0
   22.7777   -4.6471    0.0000 C   0  0  0  0  0  0  0  0  0  0  0  0
   24.0767   -5.3971    0.0000 C   0  0  0  0  0  0  0  0  0  0  0  0
   25.3757   -4.6471    0.0000 F   0  0  0  0  0  0  0  0  0  0  0  0
   24.0767   -6.8971    0.0000 F   0  0  0  0  0  0  0  0  0  0  0  0
   21.4786   -5.3971    0.0000 C   0  0  0  0  0  0  0  0  0  0  0  0
   20.1796   -4.6471    0.0000 C   0  0  0  0  0  0  0  0  0  0  0  0
   18.7530   -5.1106    0.0000 N   0  0  0  0  0  0  0  0  0  0  0  0
   15.6213   -2.5981    0.0000 C   0  0  0  0  0  0  0  0  0  0  0  0
   14.1213   -2.5981    0.0000 C   0  0  0  0  0  0  0  0  0  0  0  0
  1  2  1  0
  2  3  1  0
  3  4  1  0
  4  5  1  0
  5  6  1  0
  7  6  1  6
  7  8  1  0
  8  9  1  0
  9 10  1  1
 10 11  1  0
 11 12  2  0
 12 13  1  0
 13 14  2  0
 14 15  1  0
 15 16  2  0
 16 17  1  0
 17 18  2  0
 17 19  1  0
 19 20  1  0
 20 21  1  0
 21 22  1  0
 22 23  1  0
 23 24  2  0
 23 25  1  0
 25 26  1  0
 26 27  2  0
 19 28  1  0
 28 29  2  0
  9 30  1  0
  2 31  1  0
 32 31  1  6
 32 33  1  0
 33 34  1  0
 34 35  1  0
 35 36  1  1
 36 37  1  0
 37 38  2  0
 38 39  1  0
 39 40  2  0
 40 41  1  0
 41 42  1  0
 42 43  2  0
 42 44  1  0
 44 45  2  0
 45 46  1  0
 46 47  2  0
 47 48  1  0
 48 49  1  0
 49 50  1  0
 49 51  1  0
 49 52  1  0
 48 53  2  0
 40 54  1  0
 54 55  1  0
 55 56  1  0
 55 57  1  0
 54 58  2  0
 58 59  1  0
 59 60  2  0
 35 61  1  0
 61 62  1  0
 30  7  1  0
 62 32  1  0
 16 11  1  0
 26 20  1  0
 60 36  1  0
 28 15  1  0
 59 38  1  0
 53 44  1  0
M  END
> <From>
www.bindingDB.org

> <BindingDB Reactant_set_id>
51589160

> <Ligand InChI>
InChI=1S/C43H45F5N8O6/c1-54(15-4-16-62-27-18-25(19-27)49-30-6-2-5-28-37(30)42(61)56(41(28)60)34-13-14-36(57)52-40(34)59)21-23-9-11-26(12-10-23)55-22-24-17-33(29(38(44)45)20-32(24)53-55)51-39(58)31-7-3-8-35(50-31)43(46,47)48/h2-3,5-8,17,20,22-23,25-27,34,38,49H,4,9-16,18-19,21H2,1H3,(H,51,58)(H,52,57,59)

> <Ligand InChI Key>
PBFNLOLLNOCFFN-UHFFFAOYSA-N

> <BindingDB MonomerID>
50639844

> <BindingDB Ligand Name>
CHEMBL5557630

> <Target Name>
Protein cereblon

> <Target Source Organism According to Curator or DataSource>
Human

> <Ki (nM)>


> <IC50 (nM)>
 24

> <Kd (nM)>


> <EC50 (nM)>


> <kon (M-1-s-1)>


> <koff (s-1)>


> <pH>


> <Temp C>


> <Curation/DataSource>
ChEMBL

> <Article DOI>


> <BindingDB Entry DOI>
10.7270/Q23F4V8G

> <PMID>
38920289

> <PubChem AID>


> <Patent Number>


> <Authors>
Weiss, MM; Zheng, X; Ji, N; Browne, CM; Campbell, V; Chen, D; Enerson, B; Fei, X; Huang, X; Klaus, CR; Li, H; Mayo, M; McDonald, AA; Paul, A; Rong, H; Sharma, K; Shi, Y; Slavin, A; Walther, DM; Yuan, K; Zhang, Y; Zhu, X; Kelleher, J; Walker, D; Mainolfi, N

> <Date of publication>
//0

> <Date in BindingDB>
10/11/2025

> <Institution>
Kymera Therapeutics

> <Link to Ligand in BindingDB>
http://www.bindingdb.org/bind/chemsearch/marvin/MolStructure.jsp?monomerid=50639844

> <Link to Ligand-Target Pair in BindingDB>
http://www.bindingdb.org/rwd/jsp/dbsearch/PrimarySearch_ki.jsp?energyterm=kJ/mole&tag=pol&polymerid=50007050&target=Protein+cereblon&column=ki&startPg=0&Increment=50&submit=Search

> <Link to Ligand-Target Pair in BindingDB>
http://www.bindingdb.org/rwd/jsp/dbsearch/PrimarySearch_ki.jsp?energyterm=kJ/mole&tag=r21&monomerid=50639844&enzyme=Protein+cereblon&column=ki&startPg=0&Increment=50&submit=Search

> <Ligand HET ID in PDB>


> <PDB ID(s) for Ligand-Target Complex>


> <PubChem CID of Ligand>
168079965

> <PubChem SID of Ligand>
519660247

> <ChEBI ID of Ligand>


> <ChEMBL ID of Ligand>


> <DrugBank ID of Ligand>


> <IUPHAR_GRAC ID of Ligand>


> <KEGG ID of Ligand>


> <ZINC ID of Ligand>


> <Number of Protein Chains in Target (bigger than 1 implies a multichain complex)>
1

> <BindingDB Target Chain Sequence>
MAGEGDQQDAAHNMGNHLPLLPAESEEEDEMEVEDQDSKEAKKPNIINFDTSLPTSHTYLGADMEEFHGRTLHDDDSCQVIPVLPQVMMILIPGQTLPLQLFHPQEVSMVRNLIQKDRTFAVLAYSNVQEREAQFGTTAEIYAYREEQDFGIEIVKVKAIGRQRFKVLELRTQSDGIQQAKVQILPECVLPSTMSAVQLESLNKCQIFPSKPVSREDQCSYKWWQKYQKRKFHCANLTSWPRWLYSLYDAETLMDRIKKQLREWDENLKDDSLPSNPIDFSYRVAACLPIDDVLRIQLLKIGSAIQRLRCELDIMNKCTSLCCKQCQETEITTKNEIFSLSLCGPMAAYVNPHGYVHETLTVYKACNLNLIGRPSTEHSWFPGYAWTVAQCKICASHIGWKFTATKKDMSPQKFWGLTRSALLPTIPDTEDEISPDKVILCL

> <PDB ID(s) of Target Chain>
9DUR,8TNR,8TNQ,8TNP,9DWW,9DWV,9NGT,9NFR,9NFQ,8D81,8D80,8D7Z,8D7Y,8D7X,8D7W,8D7V,8D7U,8CVP,9Q2D,9Q03,9DQD,8UH6,9SAI,9SAF,9H59,9E2U,6BOY,6BNB,6BN9,6BN8,6BN7,9OUL,9Y7D,6XK9,6UML,5V3O,5HXB,9HNE,9D0X,9D0W,7U8F,9FJX,8OJH,8OIZ,7LPS,9SFM,9OTY,4TZ4,9DJX,9DJT,8U17,8U16,8U15,8TZX,8DEY,9CUO,4M91

> <UniProt (SwissProt) Recommended Name of Target Chain>
Protein cereblon

> <UniProt (SwissProt) Entry Name of Target Chain>
CRBN_HUMAN

> <UniProt (SwissProt) Primary ID of Target Chain>
Q96SW2

> <UniProt (SwissProt) Secondary ID(s) of Target Chain>
B2R6H4 C9IZA9 C9JAH6 Q6AI62 Q6NVZ0 Q9UHW4

> <UniProt (SwissProt) Alternative ID(s) of Target Chain>


> <UniProt (TrEMBL) Submitted Name of Target Chain>


> <UniProt (TrEMBL) Entry Name of Target Chain>


> <UniProt (TrEMBL) Primary ID of Target Chain>


> <UniProt (TrEMBL) Secondary ID(s) of Target Chain>


> <UniProt (TrEMBL) Alternative ID(s) of Target Chain>


$$$$
 
     RDKit          2D

 57 64  0  0  0  0  0  0  0  0999 V2000
   -0.1249    0.2614    0.0000 N   0  0  0  0  0  0  0  0  0  0  0  0
   -0.7463    0.8040    0.0000 C   0  0  0  0  0  0  0  0  0  0  0  0
   -1.5268    0.5370    0.0000 C   0  0  0  0  0  0  0  0  0  0  0  0
   -2.1484    1.0795    0.0000 C   0  0  0  0  0  0  0  0  0  0  0  0
   -2.9289    0.8126    0.0000 C   0  0  0  0  0  0  0  0  0  0  0  0
   -3.5504    1.3552    0.0000 N   0  0  0  0  0  0  0  0  0  0  0  0
   -4.3310    1.0883    0.0000 C   0  0  0  0  0  0  0  0  0  0  0  0
   -4.9525    1.6308    0.0000 C   0  0  0  0  0  0  0  0  0  0  0  0
   -5.7331    1.3638    0.0000 C   0  0  0  0  0  0  0  0  0  0  0  0
   -5.8313    0.5449    0.0000 N   0  0  0  0  0  0  0  0  0  0  0  0
   -6.5329    0.1109    0.0000 C   0  0  0  0  0  0  0  0  0  0  0  0
   -6.4463   -0.7094    0.0000 C   0  0  0  0  0  0  0  0  0  0  0  0
   -7.1136   -1.1944    0.0000 C   0  0  0  0  0  0  0  0  0  0  0  0
   -7.0270   -2.0149    0.0000 C   0  0  0  0  0  0  0  0  0  0  0  0
   -6.2732   -2.3502    0.0000 C   0  0  0  0  0  0  0  0  0  0  0  0
   -6.1868   -3.1706    0.0000 Cl  0  0  0  0  0  0  0  0  0  0  0  0
   -5.6061   -1.8651    0.0000 C   0  0  0  0  0  0  0  0  0  0  0  0
   -5.6925   -1.0447    0.0000 C   0  0  0  0  0  0  0  0  0  0  0  0
   -7.3095    0.3888    0.0000 C   0  0  0  0  0  0  0  0  0  0  0  0
   -7.9694   -0.1061    0.0000 C   0  0  0  0  0  0  0  0  0  0  0  0
   -7.9568   -0.9309    0.0000 C   0  0  0  0  0  0  0  0  0  0  0  0
   -8.6442    0.3685    0.0000 C   0  0  0  0  0  0  0  0  0  0  0  0
   -9.4248    0.1015    0.0000 C   0  0  0  0  0  0  0  0  0  0  0  0
   -8.4013    1.1568    0.0000 S   0  0  0  0  0  0  0  0  0  0  0  0
   -7.5765    1.1695    0.0000 C   0  0  0  0  0  0  0  0  0  0  0  0
   -7.1326    1.8649    0.0000 N   0  0  0  0  0  0  0  0  0  0  0  0
   -7.4684    2.6184    0.0000 C   0  0  0  0  0  0  0  0  0  0  0  0
   -8.2754    2.7896    0.0000 C   0  0  0  0  0  0  0  0  0  0  0  0
   -6.8555    3.1706    0.0000 N   0  0  0  0  0  0  0  0  0  0  0  0
   -6.1410    2.7584    0.0000 N   0  0  0  0  0  0  0  0  0  0  0  0
   -6.3122    1.9514    0.0000 C   0  0  0  0  0  0  0  0  0  0  0  0
   -4.4901    0.2788    0.0000 O   0  0  0  0  0  0  0  0  0  0  0  0
    0.6555    0.5284    0.0000 C   0  0  0  0  0  0  0  0  0  0  0  0
    0.8146    1.3378    0.0000 C   0  0  0  0  0  0  0  0  0  0  0  0
    1.5952    1.6048    0.0000 C   0  0  0  0  0  0  0  0  0  0  0  0
    2.2167    1.0623    0.0000 C   0  0  0  0  0  0  0  0  0  0  0  0
    2.9972    1.3294    0.0000 C   0  0  0  0  0  0  0  0  0  0  0  0
    3.6187    0.7869    0.0000 C   0  0  0  0  0  0  0  0  0  0  0  0
    3.4596   -0.0225    0.0000 C   0  0  0  0  0  0  0  0  0  0  0  0
    4.0811   -0.5649    0.0000 C   0  0  0  0  0  0  0  0  0  0  0  0
    4.8617   -0.2980    0.0000 C   0  0  0  0  0  0  0  0  0  0  0  0
    5.0207    0.5113    0.0000 C   0  0  0  0  0  0  0  0  0  0  0  0
    5.8397    0.6101    0.0000 C   0  0  0  0  0  0  0  0  0  0  0  0
    6.1868   -0.1381    0.0000 N   0  0  0  0  0  0  0  0  0  0  0  0
    5.5824   -0.6994    0.0000 C   0  0  0  0  0  0  0  0  0  0  0  0
    5.6811   -1.5184    0.0000 O   0  0  0  0  0  0  0  0  0  0  0  0
    6.9964   -0.2970    0.0000 C   0  0  0  0  0  0  0  0  0  0  0  0
    7.2633   -1.0775    0.0000 C   0  0  0  0  0  0  0  0  0  0  0  0
    8.0728   -1.2367    0.0000 C   0  0  0  0  0  0  0  0  0  0  0  0
    8.6152   -0.6153    0.0000 C   0  0  0  0  0  0  0  0  0  0  0  0
    9.4248   -0.7744    0.0000 O   0  0  0  0  0  0  0  0  0  0  0  0
    8.3483    0.1652    0.0000 N   0  0  0  0  0  0  0  0  0  0  0  0
    7.5388    0.3242    0.0000 C   0  0  0  0  0  0  0  0  0  0  0  0
    7.2718    1.1048    0.0000 O   0  0  0  0  0  0  0  0  0  0  0  0
    4.3993    1.0538    0.0000 C   0  0  0  0  0  0  0  0  0  0  0  0
    2.0575    0.2529    0.0000 C   0  0  0  0  0  0  0  0  0  0  0  0
    1.2770   -0.0140    0.0000 C   0  0  0  0  0  0  0  0  0  0  0  0
  1  2  1  0
  3  2  1  0
  4  3  1  0
  5  4  1  0
  6  5  1  0
  7  6  1  0
  7  8  1  0
  9  8  1  6
  9 10  1  0
 10 11  2  0
 11 12  1  0
 12 13  1  0
 13 14  2  0
 14 15  1  0
 15 16  1  0
 15 17  2  0
 17 18  1  0
 18 12  2  0
 11 19  1  0
 19 20  1  0
 20 21  1  0
 20 22  2  0
 22 23  1  0
 22 24  1  0
 25 24  1  0
 19 25  2  0
 26 25  1  0
 26 27  1  0
 27 28  1  0
 27 29  2  0
 29 30  1  0
 31 30  2  0
 31 26  1  0
 31  9  1  0
  7 32  2  0
  1 33  1  0
 33 34  1  0
 34 35  2  0
 35 36  1  0
 36 37  1  0
 37 38  1  0
 39 38  2  0
 40 39  1  0
 41 40  2  0
 42 41  1  0
 42 43  1  0
 44 43  1  0
 41 45  1  0
 45 44  1  0
 45 46  2  0
 44 47  1  0
 48 47  1  0
 49 48  1  0
 50 49  1  0
 50 51  2  0
 52 50  1  0
 53 52  1  0
 47 53  1  0
 53 54  2  0
 55 42  2  0
 38 55  1  0
 36 56  2  0
 56 57  1  0
 57 33  2  0
M  END
> <From>
www.bindingDB.org

> <BindingDB Reactant_set_id>
51570527

> <Ligand InChI>
InChI=1S/C43H43ClN8O4S/c1-24-25(2)57-43-38(24)39(29-9-11-31(44)12-10-29)47-34(40-50-49-26(3)52(40)43)22-37(54)46-19-5-4-18-45-32-13-6-27(7-14-32)20-28-8-15-33-30(21-28)23-51(42(33)56)35-16-17-36(53)48-41(35)55/h6-15,21,34-35,45H,4-5,16-20,22-23H2,1-3H3,(H,46,54)(H,48,53,55)/t34-,35?/m0/s1

> <Ligand InChI Key>
MFAVXSAHTAKLRF-SFCXHYMASA-N

> <BindingDB MonomerID>
50631631

> <BindingDB Ligand Name>
CHEMBL5431364

> <Target Name>
Protein cereblon

> <Target Source Organism According to Curator or DataSource>
Homo sapiens

> <Ki (nM)>


> <IC50 (nM)>
 25

> <Kd (nM)>


> <EC50 (nM)>


> <kon (M-1-s-1)>


> <koff (s-1)>


> <pH>


> <Temp C>


> <Curation/DataSource>
ChEMBL

> <Article DOI>
10.1021/acs.jmedchem.3c01613

> <BindingDB Entry DOI>
10.7270/Q2T1583Z

> <PMID>
38096359

> <PubChem AID>


> <Patent Number>


> <Authors>
Arndt, CM; Bitai, J; Brunner, J; Opatz, T; Martinelli, P; Gollner, A; Sokol, KR; Krumb, M

> <Date of publication>
12/28/2023

> <Date in BindingDB>
12/21/2024

> <Institution>
Boehringer Ingelheim Rcv

> <Link to Ligand in BindingDB>
http://www.bindingdb.org/bind/chemsearch/marvin/MolStructure.jsp?monomerid=50631631

> <Link to Ligand-Target Pair in BindingDB>
http://www.bindingdb.org/jsp/dbsearch/PrimarySearch_ki.jsp?energyterm=kJ/mole&tag=pol&polymerid=50007050&target=Protein+cereblon&column=ki&startPg=0&Increment=50&submit=Search

> <Link to Ligand-Target Pair in BindingDB>
http://www.bindingdb.org/jsp/dbsearch/PrimarySearch_ki.jsp?energyterm=kJ/mole&tag=r21&monomerid=50631631&enzyme=Protein+cereblon&column=ki&startPg=0&Increment=50&submit=Search

> <Ligand HET ID in PDB>


> <PDB ID(s) for Ligand-Target Complex>


> <PubChem CID of Ligand>
172464638

> <PubChem SID of Ligand>
505035965

> <ChEBI ID of Ligand>


> <ChEMBL ID of Ligand>


> <DrugBank ID of Ligand>


> <IUPHAR_GRAC ID of Ligand>


> <KEGG ID of Ligand>


> <ZINC ID of Ligand>


> <Number of Protein Chains in Target (bigger than 1 implies a multichain complex)>
1

> <BindingDB Target Chain Sequence>
MAGEGDQQDAAHNMGNHLPLLPAESEEEDEMEVEDQDSKEAKKPNIINFDTSLPTSHTYLGADMEEFHGRTLHDDDSCQVIPVLPQVMMILIPGQTLPLQLFHPQEVSMVRNLIQKDRTFAVLAYSNVQEREAQFGTTAEIYAYREEQDFGIEIVKVKAIGRQRFKVLELRTQSDGIQQAKVQILPECVLPSTMSAVQLESLNKCQIFPSKPVSREDQCSYKWWQKYQKRKFHCANLTSWPRWLYSLYDAETLMDRIKKQLREWDENLKDDSLPSNPIDFSYRVAACLPIDDVLRIQLLKIGSAIQRLRCELDIMNKCTSLCCKQCQETEITTKNEIFSLSLCGPMAAYVNPHGYVHETLTVYKACNLNLIGRPSTEHSWFPGYAWTVAQCKICASHIGWKFTATKKDMSPQKFWGLTRSALLPTIPDTEDEISPDKVILCL

> <PDB ID(s) of Target Chain>
8TNR,8TNQ,8TNP,8D81,8D80,8D7Z,8D7Y,8D7X,8D7W,8D7V,8D7U,8CVP,9DQD,8UH6,6BOY,6BNB,6BN9,6BN8,6BN7,6XK9,6UML,5V3O,5HXB,7U8F,8OJH,8OIZ,7LPS,4TZ4,9DJX,9DJT,8U17,8U16,8U15,8TZX,8DEY,9CUO,4M91

> <UniProt (SwissProt) Recommended Name of Target Chain>
Protein cereblon

> <UniProt (SwissProt) Entry Name of Target Chain>
CRBN_HUMAN

> <UniProt (SwissProt) Primary ID of Target Chain>
Q96SW2

> <UniProt (SwissProt) Secondary ID(s) of Target Chain>
B2R6H4 C9IZA9 C9JAH6 Q6AI62 Q6NVZ0 Q9UHW4

> <UniProt (SwissProt) Alternative ID(s) of Target Chain>


> <UniProt (TrEMBL) Submitted Name of Target Chain>


> <UniProt (TrEMBL) Entry Name of Target Chain>


> <UniProt (TrEMBL) Primary ID of Target Chain>


> <UniProt (TrEMBL) Secondary ID(s) of Target Chain>


> <UniProt (TrEMBL) Alternative ID(s) of Target Chain>


$$$$
 
     RDKit          2D

 57 64  0  0  0  0  0  0  0  0999 V2000
   -0.1249    0.2614    0.0000 N   0  0  0  0  0  0  0  0  0  0  0  0
   -0.7463    0.8040    0.0000 C   0  0  0  0  0  0  0  0  0  0  0  0
   -1.5268    0.5370    0.0000 C   0  0  0  0  0  0  0  0  0  0  0  0
   -2.1484    1.0795    0.0000 C   0  0  0  0  0  0  0  0  0  0  0  0
   -2.9289    0.8126    0.0000 C   0  0  0  0  0  0  0  0  0  0  0  0
   -3.5504    1.3552    0.0000 N   0  0  0  0  0  0  0  0  0  0  0  0
   -4.3310    1.0883    0.0000 C   0  0  0  0  0  0  0  0  0  0  0  0
   -4.9525    1.6308    0.0000 C   0  0  0  0  0  0  0  0  0  0  0  0
   -5.7331    1.3638    0.0000 C   0  0  0  0  0  0  0  0  0  0  0  0
   -5.8313    0.5449    0.0000 N   0  0  0  0  0  0  0  0  0  0  0  0
   -6.5329    0.1109    0.0000 C   0  0  0  0  0  0  0  0  0  0  0  0
   -6.4463   -0.7094    0.0000 C   0  0  0  0  0  0  0  0  0  0  0  0
   -7.1136   -1.1944    0.0000 C   0  0  0  0  0  0  0  0  0  0  0  0
   -7.0270   -2.0149    0.0000 C   0  0  0  0  0  0  0  0  0  0  0  0
   -6.2732   -2.3502    0.0000 C   0  0  0  0  0  0  0  0  0  0  0  0
   -6.1868   -3.1706    0.0000 Cl  0  0  0  0  0  0  0  0  0  0  0  0
   -5.6061   -1.8651    0.0000 C   0  0  0  0  0  0  0  0  0  0  0  0
   -5.6925   -1.0447    0.0000 C   0  0  0  0  0  0  0  0  0  0  0  0
   -7.3095    0.3888    0.0000 C   0  0  0  0  0  0  0  0  0  0  0  0
   -7.9694   -0.1061    0.0000 C   0  0  0  0  0  0  0  0  0  0  0  0
   -7.9568   -0.9309    0.0000 C   0  0  0  0  0  0  0  0  0  0  0  0
   -8.6442    0.3685    0.0000 C   0  0  0  0  0  0  0  0  0  0  0  0
   -9.4248    0.1015    0.0000 C   0  0  0  0  0  0  0  0  0  0  0  0
   -8.4013    1.1568    0.0000 S   0  0  0  0  0  0  0  0  0  0  0  0
   -7.5765    1.1695    0.0000 C   0  0  0  0  0  0  0  0  0  0  0  0
   -7.1326    1.8649    0.0000 N   0  0  0  0  0  0  0  0  0  0  0  0
   -7.4684    2.6184    0.0000 C   0  0  0  0  0  0  0  0  0  0  0  0
   -8.2754    2.7896    0.0000 C   0  0  0  0  0  0  0  0  0  0  0  0
   -6.8555    3.1706    0.0000 N   0  0  0  0  0  0  0  0  0  0  0  0
   -6.1410    2.7584    0.0000 N   0  0  0  0  0  0  0  0  0  0  0  0
   -6.3122    1.9514    0.0000 C   0  0  0  0  0  0  0  0  0  0  0  0
   -4.4901    0.2788    0.0000 O   0  0  0  0  0  0  0  0  0  0  0  0
    0.6555    0.5284    0.0000 C   0  0  0  0  0  0  0  0  0  0  0  0
    0.8146    1.3378    0.0000 C   0  0  0  0  0  0  0  0  0  0  0  0
    1.5952    1.6048    0.0000 C   0  0  0  0  0  0  0  0  0  0  0  0
    2.2167    1.0623    0.0000 C   0  0  0  0  0  0  0  0  0  0  0  0
    2.9972    1.3294    0.0000 C   0  0  0  0  0  0  0  0  0  0  0  0
    3.6187    0.7869    0.0000 C   0  0  0  0  0  0  0  0  0  0  0  0
    3.4596   -0.0225    0.0000 C   0  0  0  0  0  0  0  0  0  0  0  0
    4.0811   -0.5649    0.0000 C   0  0  0  0  0  0  0  0  0  0  0  0
    4.8617   -0.2980    0.0000 C   0  0  0  0  0  0  0  0  0  0  0  0
    5.0207    0.5113    0.0000 C   0  0  0  0  0  0  0  0  0  0  0  0
    5.8397    0.6101    0.0000 C   0  0  0  0  0  0  0  0  0  0  0  0
    6.1868   -0.1381    0.0000 N   0  0  0  0  0  0  0  0  0  0  0  0
    5.5824   -0.6994    0.0000 C   0  0  0  0  0  0  0  0  0  0  0  0
    5.6811   -1.5184    0.0000 O   0  0  0  0  0  0  0  0  0  0  0  0
    6.9964   -0.2970    0.0000 C   0  0  0  0  0  0  0  0  0  0  0  0
    7.2633   -1.0775    0.0000 C   0  0  0  0  0  0  0  0  0  0  0  0
    8.0728   -1.2367    0.0000 C   0  0  0  0  0  0  0  0  0  0  0  0
    8.6152   -0.6153    0.0000 C   0  0  0  0  0  0  0  0  0  0  0  0
    9.4248   -0.7744    0.0000 O   0  0  0  0  0  0  0  0  0  0  0  0
    8.3483    0.1652    0.0000 N   0  0  0  0  0  0  0  0  0  0  0  0
    7.5388    0.3242    0.0000 C   0  0  0  0  0  0  0  0  0  0  0  0
    7.2718    1.1048    0.0000 O   0  0  0  0  0  0  0  0  0  0  0  0
    4.3993    1.0538    0.0000 C   0  0  0  0  0  0  0  0  0  0  0  0
    2.0575    0.2529    0.0000 C   0  0  0  0  0  0  0  0  0  0  0  0
    1.2770   -0.0140    0.0000 C   0  0  0  0  0  0  0  0  0  0  0  0
  1  2  1  0
  3  2  1  0
  4  3  1  0
  5  4  1  0
  6  5  1  0
  7  6  1  0
  7  8  1  0
  9  8  1  6
  9 10  1  0
 10 11  2  0
 11 12  1  0
 12 13  1  0
 13 14  2  0
 14 15  1  0
 15 16  1  0
 15 17  2  0
 17 18  1  0
 18 12  2  0
 11 19  1  0
 19 20  1  0
 20 21  1  0
 20 22  2  0
 22 23  1  0
 22 24  1  0
 25 24  1  0
 19 25  2  0
 26 25  1  0
 26 27  1  0
 27 28  1  0
 27 29  2  0
 29 30  1  0
 31 30  2  0
 31 26  1  0
 31  9  1  0
  7 32  2  0
  1 33  1  0
 33 34  1  0
 34 35  2  0
 35 36  1  0
 36 37  1  0
 37 38  1  0
 39 38  2  0
 40 39  1  0
 41 40  2  0
 42 41  1  0
 42 43  1  0
 44 43  1  0
 41 45  1  0
 45 44  1  0
 45 46  2  0
 44 47  1  0
 48 47  1  0
 49 48  1  0
 50 49  1  0
 50 51  2  0
 52 50  1  0
 53 52  1  0
 47 53  1  0
 53 54  2  0
 55 42  2  0
 38 55  1  0
 36 56  2  0
 56 57  1  0
 57 33  2  0
M  END
> <From>
www.bindingDB.org

> <BindingDB Reactant_set_id>
51570542

> <Ligand InChI>
InChI=1S/C43H43ClN8O4S/c1-24-25(2)57-43-38(24)39(29-9-11-31(44)12-10-29)47-34(40-50-49-26(3)52(40)43)22-37(54)46-19-5-4-18-45-32-13-6-27(7-14-32)20-28-8-15-33-30(21-28)23-51(42(33)56)35-16-17-36(53)48-41(35)55/h6-15,21,34-35,45H,4-5,16-20,22-23H2,1-3H3,(H,46,54)(H,48,53,55)/t34-,35?/m0/s1

> <Ligand InChI Key>
MFAVXSAHTAKLRF-SFCXHYMASA-N

> <BindingDB MonomerID>
50631631

> <BindingDB Ligand Name>
CHEMBL5431364

> <Target Name>
Protein cereblon

> <Target Source Organism According to Curator or DataSource>
Homo sapiens

> <Ki (nM)>


> <IC50 (nM)>
 25

> <Kd (nM)>


> <EC50 (nM)>


> <kon (M-1-s-1)>


> <koff (s-1)>


> <pH>


> <Temp C>


> <Curation/DataSource>
ChEMBL

> <Article DOI>
10.1021/acs.jmedchem.3c01613

> <BindingDB Entry DOI>
10.7270/Q2T1583Z

> <PMID>
38096359

> <PubChem AID>


> <Patent Number>


> <Authors>
Arndt, CM; Bitai, J; Brunner, J; Opatz, T; Martinelli, P; Gollner, A; Sokol, KR; Krumb, M

> <Date of publication>
12/28/2023

> <Date in BindingDB>
12/21/2024

> <Institution>
Boehringer Ingelheim Rcv

> <Link to Ligand in BindingDB>
http://www.bindingdb.org/bind/chemsearch/marvin/MolStructure.jsp?monomerid=50631631

> <Link to Ligand-Target Pair in BindingDB>
http://www.bindingdb.org/jsp/dbsearch/PrimarySearch_ki.jsp?energyterm=kJ/mole&tag=pol&polymerid=50007050&target=Protein+cereblon&column=ki&startPg=0&Increment=50&submit=Search

> <Link to Ligand-Target Pair in BindingDB>
http://www.bindingdb.org/jsp/dbsearch/PrimarySearch_ki.jsp?energyterm=kJ/mole&tag=r21&monomerid=50631631&enzyme=Protein+cereblon&column=ki&startPg=0&Increment=50&submit=Search

> <Ligand HET ID in PDB>


> <PDB ID(s) for Ligand-Target Complex>


> <PubChem CID of Ligand>
172464638

> <PubChem SID of Ligand>
505035965

> <ChEBI ID of Ligand>


> <ChEMBL ID of Ligand>


> <DrugBank ID of Ligand>


> <IUPHAR_GRAC ID of Ligand>


> <KEGG ID of Ligand>


> <ZINC ID of Ligand>


> <Number of Protein Chains in Target (bigger than 1 implies a multichain complex)>
1

> <BindingDB Target Chain Sequence>
MAGEGDQQDAAHNMGNHLPLLPAESEEEDEMEVEDQDSKEAKKPNIINFDTSLPTSHTYLGADMEEFHGRTLHDDDSCQVIPVLPQVMMILIPGQTLPLQLFHPQEVSMVRNLIQKDRTFAVLAYSNVQEREAQFGTTAEIYAYREEQDFGIEIVKVKAIGRQRFKVLELRTQSDGIQQAKVQILPECVLPSTMSAVQLESLNKCQIFPSKPVSREDQCSYKWWQKYQKRKFHCANLTSWPRWLYSLYDAETLMDRIKKQLREWDENLKDDSLPSNPIDFSYRVAACLPIDDVLRIQLLKIGSAIQRLRCELDIMNKCTSLCCKQCQETEITTKNEIFSLSLCGPMAAYVNPHGYVHETLTVYKACNLNLIGRPSTEHSWFPGYAWTVAQCKICASHIGWKFTATKKDMSPQKFWGLTRSALLPTIPDTEDEISPDKVILCL

> <PDB ID(s) of Target Chain>
8TNR,8TNQ,8TNP,8D81,8D80,8D7Z,8D7Y,8D7X,8D7W,8D7V,8D7U,8CVP,9DQD,8UH6,6BOY,6BNB,6BN9,6BN8,6BN7,6XK9,6UML,5V3O,5HXB,7U8F,8OJH,8OIZ,7LPS,4TZ4,9DJX,9DJT,8U17,8U16,8U15,8TZX,8DEY,9CUO,4M91

> <UniProt (SwissProt) Recommended Name of Target Chain>
Protein cereblon

> <UniProt (SwissProt) Entry Name of Target Chain>
CRBN_HUMAN

> <UniProt (SwissProt) Primary ID of Target Chain>
Q96SW2

> <UniProt (SwissProt) Secondary ID(s) of Target Chain>
B2R6H4 C9IZA9 C9JAH6 Q6AI62 Q6NVZ0 Q9UHW4

> <UniProt (SwissProt) Alternative ID(s) of Target Chain>


> <UniProt (TrEMBL) Submitted Name of Target Chain>


> <UniProt (TrEMBL) Entry Name of Target Chain>


> <UniProt (TrEMBL) Primary ID of Target Chain>


> <UniProt (TrEMBL) Secondary ID(s) of Target Chain>


> <UniProt (TrEMBL) Alternative ID(s) of Target Chain>


$$$$
 
     RDKit          2D

 56 63  0  0  0  0  0  0  0  0999 V2000
   -0.2765    0.8040    0.0000 N   0  0  0  0  0  0  0  0  0  0  0  0
   -1.0572    0.5371    0.0000 C   0  0  0  0  0  0  0  0  0  0  0  0
   -1.6787    1.0797    0.0000 C   0  0  0  0  0  0  0  0  0  0  0  0
   -2.4594    0.8128    0.0000 C   0  0  0  0  0  0  0  0  0  0  0  0
   -3.0809    1.3553    0.0000 N   0  0  0  0  0  0  0  0  0  0  0  0
   -3.8616    1.0884    0.0000 C   0  0  0  0  0  0  0  0  0  0  0  0
   -4.0207    0.2789    0.0000 O   0  0  0  0  0  0  0  0  0  0  0  0
   -4.4831    1.6311    0.0000 C   0  0  0  0  0  0  0  0  0  0  0  0
   -5.2638    1.3641    0.0000 C   0  0  0  0  0  0  0  0  0  0  0  0
   -5.8430    1.9516    0.0000 C   0  0  0  0  0  0  0  0  0  0  0  0
   -6.6635    1.8651    0.0000 N   0  0  0  0  0  0  0  0  0  0  0  0
   -6.9994    2.6187    0.0000 C   0  0  0  0  0  0  0  0  0  0  0  0
   -6.3865    3.1710    0.0000 N   0  0  0  0  0  0  0  0  0  0  0  0
   -5.6718    2.7587    0.0000 N   0  0  0  0  0  0  0  0  0  0  0  0
   -7.8065    2.7900    0.0000 C   0  0  0  0  0  0  0  0  0  0  0  0
   -7.1074    1.1696    0.0000 C   0  0  0  0  0  0  0  0  0  0  0  0
   -6.8405    0.3890    0.0000 C   0  0  0  0  0  0  0  0  0  0  0  0
   -7.5004   -0.1061    0.0000 C   0  0  0  0  0  0  0  0  0  0  0  0
   -8.1753    0.3685    0.0000 C   0  0  0  0  0  0  0  0  0  0  0  0
   -7.9324    1.1570    0.0000 S   0  0  0  0  0  0  0  0  0  0  0  0
   -8.9560    0.1015    0.0000 C   0  0  0  0  0  0  0  0  0  0  0  0
   -7.4878   -0.9310    0.0000 C   0  0  0  0  0  0  0  0  0  0  0  0
   -6.0637    0.1109    0.0000 C   0  0  0  0  0  0  0  0  0  0  0  0
   -5.9771   -0.7095    0.0000 C   0  0  0  0  0  0  0  0  0  0  0  0
   -5.2232   -1.0448    0.0000 C   0  0  0  0  0  0  0  0  0  0  0  0
   -5.1368   -1.8653    0.0000 C   0  0  0  0  0  0  0  0  0  0  0  0
   -5.8041   -2.3504    0.0000 C   0  0  0  0  0  0  0  0  0  0  0  0
   -5.7175   -3.1710    0.0000 Cl  0  0  0  0  0  0  0  0  0  0  0  0
   -6.5579   -2.0152    0.0000 C   0  0  0  0  0  0  0  0  0  0  0  0
   -6.6443   -1.1947    0.0000 C   0  0  0  0  0  0  0  0  0  0  0  0
   -5.3620    0.5449    0.0000 N   0  0  0  0  0  0  0  0  0  0  0  0
    0.3449    0.2615    0.0000 C   0  0  0  0  0  0  0  0  0  0  0  0
    1.1256    0.5284    0.0000 C   0  0  0  0  0  0  0  0  0  0  0  0
    1.7471   -0.0141    0.0000 C   0  0  0  0  0  0  0  0  0  0  0  0
    1.5879   -0.8237    0.0000 C   0  0  0  0  0  0  0  0  0  0  0  0
    2.2094   -1.3663    0.0000 C   0  0  0  0  0  0  0  0  0  0  0  0
    2.9902   -1.0993    0.0000 C   0  0  0  0  0  0  0  0  0  0  0  0
    3.6117   -1.6420    0.0000 C   0  0  0  0  0  0  0  0  0  0  0  0
    4.3924   -1.3750    0.0000 C   0  0  0  0  0  0  0  0  0  0  0  0
    5.1132   -1.7765    0.0000 C   0  0  0  0  0  0  0  0  0  0  0  0
    5.7177   -1.2151    0.0000 N   0  0  0  0  0  0  0  0  0  0  0  0
    6.5273   -1.3743    0.0000 C   0  0  0  0  0  0  0  0  0  0  0  0
    6.7942   -2.1549    0.0000 C   0  0  0  0  0  0  0  0  0  0  0  0
    6.2516   -2.7765    0.0000 O   0  0  0  0  0  0  0  0  0  0  0  0
    7.6038   -2.3141    0.0000 N   0  0  0  0  0  0  0  0  0  0  0  0
    8.1464   -1.6926    0.0000 C   0  0  0  0  0  0  0  0  0  0  0  0
    8.9560   -1.8517    0.0000 O   0  0  0  0  0  0  0  0  0  0  0  0
    7.8795   -0.9119    0.0000 C   0  0  0  0  0  0  0  0  0  0  0  0
    7.0699   -0.7528    0.0000 C   0  0  0  0  0  0  0  0  0  0  0  0
    5.3705   -0.4667    0.0000 C   0  0  0  0  0  0  0  0  0  0  0  0
    5.7722    0.2540    0.0000 O   0  0  0  0  0  0  0  0  0  0  0  0
    4.5515   -0.5654    0.0000 C   0  0  0  0  0  0  0  0  0  0  0  0
    3.9300   -0.0228    0.0000 C   0  0  0  0  0  0  0  0  0  0  0  0
    3.1493   -0.2898    0.0000 C   0  0  0  0  0  0  0  0  0  0  0  0
    0.8073   -1.0906    0.0000 C   0  0  0  0  0  0  0  0  0  0  0  0
    0.1857   -0.5480    0.0000 C   0  0  0  0  0  0  0  0  0  0  0  0
  2  1  1  0
  3  2  1  0
  4  3  1  0
  5  4  1  0
  6  5  1  0
  6  7  2  0
  6  8  1  0
  9  8  1  6
 10  9  1  0
 10 11  1  0
 11 12  1  0
 12 13  2  0
 13 14  1  0
 10 14  2  0
 12 15  1  0
 11 16  1  0
 17 16  2  0
 17 18  1  0
 18 19  2  0
 19 20  1  0
 16 20  1  0
 19 21  1  0
 18 22  1  0
 23 17  1  0
 23 24  1  0
 25 24  2  0
 26 25  1  0
 27 26  2  0
 27 28  1  0
 29 27  1  0
 30 29  2  0
 24 30  1  0
 31 23  2  0
  9 31  1  0
  1 32  1  0
 33 32  2  0
 34 33  1  0
 35 34  2  0
 35 36  1  0
 36 37  1  0
 37 38  1  0
 38 39  2  0
 39 40  1  0
 41 40  1  0
 41 42  1  0
 42 43  1  0
 43 44  2  0
 43 45  1  0
 45 46  1  0
 46 47  2  0
 46 48  1  0
 48 49  1  0
 49 42  1  0
 50 41  1  0
 50 51  2  0
 52 50  1  0
 39 52  1  0
 52 53  2  0
 53 54  1  0
 54 37  2  0
 55 35  1  0
 56 55  2  0
 32 56  1  0
M  END
> <From>
www.bindingDB.org

> <BindingDB Reactant_set_id>
51570541

> <Ligand InChI>
InChI=1S/C42H41ClN8O4S/c1-23-24(2)56-42-37(23)38(28-8-10-30(43)11-9-28)46-33(39-49-48-25(3)51(39)42)21-36(53)45-18-4-17-44-31-12-5-26(6-13-31)19-27-7-14-32-29(20-27)22-50(41(32)55)34-15-16-35(52)47-40(34)54/h5-14,20,33-34,44H,4,15-19,21-22H2,1-3H3,(H,45,53)(H,47,52,54)/t33-,34?/m0/s1

> <Ligand InChI Key>
BNZBBHXKCFPTND-CDRRMRQFSA-N

> <BindingDB MonomerID>
50631630

> <BindingDB Ligand Name>
CHEMBL5405431

> <Target Name>
Protein cereblon

> <Target Source Organism According to Curator or DataSource>
Homo sapiens

> <Ki (nM)>


> <IC50 (nM)>
 26

> <Kd (nM)>


> <EC50 (nM)>


> <kon (M-1-s-1)>


> <koff (s-1)>


> <pH>


> <Temp C>


> <Curation/DataSource>
ChEMBL

> <Article DOI>
10.1021/acs.jmedchem.3c01613

> <BindingDB Entry DOI>
10.7270/Q2T1583Z

> <PMID>
38096359

> <PubChem AID>


> <Patent Number>


> <Authors>
Arndt, CM; Bitai, J; Brunner, J; Opatz, T; Martinelli, P; Gollner, A; Sokol, KR; Krumb, M

> <Date of publication>
12/28/2023

> <Date in BindingDB>
12/21/2024

> <Institution>
Boehringer Ingelheim Rcv

> <Link to Ligand in BindingDB>
http://www.bindingdb.org/bind/chemsearch/marvin/MolStructure.jsp?monomerid=50631630

> <Link to Ligand-Target Pair in BindingDB>
http://www.bindingdb.org/jsp/dbsearch/PrimarySearch_ki.jsp?energyterm=kJ/mole&tag=pol&polymerid=50007050&target=Protein+cereblon&column=ki&startPg=0&Increment=50&submit=Search

> <Link to Ligand-Target Pair in BindingDB>
http://www.bindingdb.org/jsp/dbsearch/PrimarySearch_ki.jsp?energyterm=kJ/mole&tag=r21&monomerid=50631630&enzyme=Protein+cereblon&column=ki&startPg=0&Increment=50&submit=Search

> <Ligand HET ID in PDB>


> <PDB ID(s) for Ligand-Target Complex>


> <PubChem CID of Ligand>
172445033

> <PubChem SID of Ligand>
505035964

> <ChEBI ID of Ligand>


> <ChEMBL ID of Ligand>


> <DrugBank ID of Ligand>


> <IUPHAR_GRAC ID of Ligand>


> <KEGG ID of Ligand>


> <ZINC ID of Ligand>


> <Number of Protein Chains in Target (bigger than 1 implies a multichain complex)>
1

> <BindingDB Target Chain Sequence>
MAGEGDQQDAAHNMGNHLPLLPAESEEEDEMEVEDQDSKEAKKPNIINFDTSLPTSHTYLGADMEEFHGRTLHDDDSCQVIPVLPQVMMILIPGQTLPLQLFHPQEVSMVRNLIQKDRTFAVLAYSNVQEREAQFGTTAEIYAYREEQDFGIEIVKVKAIGRQRFKVLELRTQSDGIQQAKVQILPECVLPSTMSAVQLESLNKCQIFPSKPVSREDQCSYKWWQKYQKRKFHCANLTSWPRWLYSLYDAETLMDRIKKQLREWDENLKDDSLPSNPIDFSYRVAACLPIDDVLRIQLLKIGSAIQRLRCELDIMNKCTSLCCKQCQETEITTKNEIFSLSLCGPMAAYVNPHGYVHETLTVYKACNLNLIGRPSTEHSWFPGYAWTVAQCKICASHIGWKFTATKKDMSPQKFWGLTRSALLPTIPDTEDEISPDKVILCL

> <PDB ID(s) of Target Chain>
8TNR,8TNQ,8TNP,8D81,8D80,8D7Z,8D7Y,8D7X,8D7W,8D7V,8D7U,8CVP,9DQD,8UH6,6BOY,6BNB,6BN9,6BN8,6BN7,6XK9,6UML,5V3O,5HXB,7U8F,8OJH,8OIZ,7LPS,4TZ4,9DJX,9DJT,8U17,8U16,8U15,8TZX,8DEY,9CUO,4M91

> <UniProt (SwissProt) Recommended Name of Target Chain>
Protein cereblon

> <UniProt (SwissProt) Entry Name of Target Chain>
CRBN_HUMAN

> <UniProt (SwissProt) Primary ID of Target Chain>
Q96SW2

> <UniProt (SwissProt) Secondary ID(s) of Target Chain>
B2R6H4 C9IZA9 C9JAH6 Q6AI62 Q6NVZ0 Q9UHW4

> <UniProt (SwissProt) Alternative ID(s) of Target Chain>


> <UniProt (TrEMBL) Submitted Name of Target Chain>


> <UniProt (TrEMBL) Entry Name of Target Chain>


> <UniProt (TrEMBL) Primary ID of Target Chain>


> <UniProt (TrEMBL) Secondary ID(s) of Target Chain>


> <UniProt (TrEMBL) Alternative ID(s) of Target Chain>


$$$$

     RDKit          2D

 64 72  0  0  0  0  0  0  0  0999 V2000
   -1.5639    5.4635    0.0000 C   0  0  0  0  0  0  0  0  0  0  0  0
   -0.0967    5.1517    0.0000 C   0  0  0  0  0  0  0  0  0  0  0  0
    1.3705    4.8398    0.0000 C   0  0  0  0  0  0  0  0  0  0  0  0
    0.2152    6.6189    0.0000 O   0  0  0  0  0  0  0  0  0  0  0  0
   -0.4086    3.6844    0.0000 C   0  0  0  0  0  0  0  0  0  0  0  0
    0.7062    2.6807    0.0000 C   0  0  0  0  0  0  0  0  0  0  0  0
    0.3943    1.2135    0.0000 C   0  0  0  0  0  0  0  0  0  0  0  0
    1.2760    0.0000    0.0000 N   0  0  0  0  0  0  0  0  0  0  0  0
    0.3943   -1.2135    0.0000 N   0  0  0  0  0  0  0  0  0  0  0  0
    0.8578   -2.6401    0.0000 C   0  0  0  0  0  0  0  0  0  0  0  0
   -0.1459   -3.7548    0.0000 C   0  0  0  0  0  0  0  0  0  0  0  0
    0.3177   -5.1814    0.0000 C   0  0  0  0  0  0  0  0  0  0  0  0
    1.7849   -5.4933    0.0000 C   0  0  0  0  0  0  0  0  0  0  0  0
    2.2484   -6.9199    0.0000 C   0  0  0  0  0  0  0  0  0  0  0  0
    1.2447   -8.0346    0.0000 N   0  0  0  0  0  0  0  0  0  0  0  0
   -0.2225   -7.7227    0.0000 C   0  0  0  0  0  0  0  0  0  0  0  0
   -1.2262   -8.8374    0.0000 C   0  0  0  0  0  0  0  0  0  0  0  0
   -0.7627  -10.2640    0.0000 C   0  0  0  0  0  0  0  0  0  0  0  0
   -1.7664  -11.3787    0.0000 O   0  0  0  0  0  0  0  0  0  0  0  0
   -3.2336  -11.0669    0.0000 C   0  0  0  0  0  0  0  0  0  0  0  0
   -4.0506   -9.8089    0.0000 C   0  0  0  0  0  0  0  0  0  0  0  0
   -5.3086  -10.6258    0.0000 C   0  0  0  0  0  0  0  0  0  0  0  0
   -6.7758  -10.3140    0.0000 N   0  0  0  0  0  0  0  0  0  0  0  0
   -7.2393   -8.8874    0.0000 C   0  0  0  0  0  0  0  0  0  0  0  0
   -6.2356   -7.7726    0.0000 C   0  0  0  0  0  0  0  0  0  0  0  0
   -6.6991   -6.3461    0.0000 C   0  0  0  0  0  0  0  0  0  0  0  0
   -8.1664   -6.0342    0.0000 C   0  0  0  0  0  0  0  0  0  0  0  0
   -9.1701   -7.1489    0.0000 C   0  0  0  0  0  0  0  0  0  0  0  0
   -8.7065   -8.5755    0.0000 C   0  0  0  0  0  0  0  0  0  0  0  0
   -9.9201   -9.4572    0.0000 C   0  0  0  0  0  0  0  0  0  0  0  0
   -9.9201  -10.9572    0.0000 O   0  0  0  0  0  0  0  0  0  0  0  0
  -11.1336   -8.5755    0.0000 N   0  0  0  0  0  0  0  0  0  0  0  0
  -12.5602   -9.0390    0.0000 C   0  0  0  0  0  0  0  0  0  0  0  0
  -13.6749   -8.0353    0.0000 C   0  0  0  0  0  0  0  0  0  0  0  0
  -15.1015   -8.4989    0.0000 C   0  0  0  0  0  0  0  0  0  0  0  0
  -15.4133   -9.9661    0.0000 C   0  0  0  0  0  0  0  0  0  0  0  0
  -16.8399  -10.4296    0.0000 O   0  0  0  0  0  0  0  0  0  0  0  0
  -14.2986  -10.9698    0.0000 N   0  0  0  0  0  0  0  0  0  0  0  0
  -12.8720  -10.5062    0.0000 C   0  0  0  0  0  0  0  0  0  0  0  0
  -11.7573  -11.5099    0.0000 O   0  0  0  0  0  0  0  0  0  0  0  0
  -10.6701   -7.1489    0.0000 C   0  0  0  0  0  0  0  0  0  0  0  0
  -11.5517   -5.9354    0.0000 O   0  0  0  0  0  0  0  0  0  0  0  0
   -4.4916  -11.8838    0.0000 C   0  0  0  0  0  0  0  0  0  0  0  0
    0.7045  -10.5759    0.0000 C   0  0  0  0  0  0  0  0  0  0  0  0
    1.7082   -9.4612    0.0000 C   0  0  0  0  0  0  0  0  0  0  0  0
    2.7886   -4.3786    0.0000 C   0  0  0  0  0  0  0  0  0  0  0  0
    2.3250   -2.9520    0.0000 C   0  0  0  0  0  0  0  0  0  0  0  0
   -1.0323   -0.7500    0.0000 C   0  0  0  0  0  0  0  0  0  0  0  0
   -1.0323    0.7500    0.0000 C   0  0  0  0  0  0  0  0  0  0  0  0
   -2.1470    1.7537    0.0000 C   0  0  0  0  0  0  0  0  0  0  0  0
   -1.8351    3.2209    0.0000 C   0  0  0  0  0  0  0  0  0  0  0  0
   -2.9499    4.2246    0.0000 N   0  0  0  0  0  0  0  0  0  0  0  0
   -4.3764    3.7611    0.0000 C   0  0  0  0  0  0  0  0  0  0  0  0
   -4.6883    2.2939    0.0000 O   0  0  0  0  0  0  0  0  0  0  0  0
   -5.4912    4.7648    0.0000 C   0  0  0  0  0  0  0  0  0  0  0  0
   -5.1793    6.2320    0.0000 C   0  0  0  0  0  0  0  0  0  0  0  0
   -6.2940    7.2357    0.0000 C   0  0  0  0  0  0  0  0  0  0  0  0
   -7.7206    6.7722    0.0000 C   0  0  0  0  0  0  0  0  0  0  0  0
   -8.0325    5.3050    0.0000 C   0  0  0  0  0  0  0  0  0  0  0  0
   -9.4590    4.8414    0.0000 C   0  0  0  0  0  0  0  0  0  0  0  0
  -10.8856    4.3779    0.0000 F   0  0  0  0  0  0  0  0  0  0  0  0
   -9.9226    6.2680    0.0000 F   0  0  0  0  0  0  0  0  0  0  0  0
   -8.9955    3.4148    0.0000 F   0  0  0  0  0  0  0  0  0  0  0  0
   -6.9177    4.3013    0.0000 N   0  0  0  0  0  0  0  0  0  0  0  0
  1  2  1  0
  2  3  1  0
  2  4  1  0
  2  5  1  0
  5  6  2  0
  6  7  1  0
  7  8  2  0
  8  9  1  0
 10  9  1  6
 10 11  1  0
 11 12  1  0
 12 13  1  0
 13 14  1  1
 14 15  1  0
 15 16  1  0
 16 17  1  0
 17 18  1  0
 18 19  1  0
 20 19  1  6
 20 21  1  0
 21 22  1  0
 22 23  1  1
 23 24  1  0
 24 25  2  0
 25 26  1  0
 26 27  2  0
 27 28  1  0
 28 29  2  0
 29 30  1  0
 30 31  2  0
 30 32  1  0
 32 33  1  0
 33 34  1  0
 34 35  1  0
 35 36  1  0
 36 37  2  0
 36 38  1  0
 38 39  1  0
 39 40  2  0
 32 41  1  0
 41 42  2  0
 22 43  1  0
 18 44  1  0
 44 45  1  0
 13 46  1  0
 46 47  1  0
  9 48  1  0
 48 49  2  0
 49 50  1  0
 50 51  2  0
 51 52  1  0
 52 53  1  0
 53 54  2  0
 53 55  1  0
 55 56  2  0
 56 57  1  0
 57 58  2  0
 58 59  1  0
 59 60  1  0
 60 61  1  0
 60 62  1  0
 60 63  1  0
 59 64  2  0
 51  5  1  0
 64 55  1  0
 49  7  1  0
 47 10  1  0
 45 15  1  0
 43 20  1  0
 29 24  1  0
 39 33  1  0
 41 28  1  0
M  END
> <From>
www.bindingDB.org

> <BindingDB Reactant_set_id>
51589161

> <Ligand InChI>
InChI=1S/C46H51F3N8O7/c1-45(2,63)32-22-35-26(19-36(32)52-41(59)34-7-4-8-38(51-34)46(47,48)49)24-56(54-35)28-11-9-25(10-12-28)23-55-17-15-29(16-18-55)64-30-20-27(21-30)50-33-6-3-5-31-40(33)44(62)57(43(31)61)37-13-14-39(58)53-42(37)60/h3-8,19,22,24-25,27-30,37,50,63H,9-18,20-21,23H2,1-2H3,(H,52,59)(H,53,58,60)

> <Ligand InChI Key>
KLKZEZBWHOQDRM-UHFFFAOYSA-N

> <BindingDB MonomerID>
50639845

> <BindingDB Ligand Name>
CHEMBL5561380

> <Target Name>
Protein cereblon

> <Target Source Organism According to Curator or DataSource>
Human

> <Ki (nM)>


> <IC50 (nM)>
 26

> <Kd (nM)>


> <EC50 (nM)>


> <kon (M-1-s-1)>


> <koff (s-1)>


> <pH>


> <Temp C>


> <Curation/DataSource>
ChEMBL

> <Article DOI>


> <BindingDB Entry DOI>
10.7270/Q23F4V8G

> <PMID>
38920289

> <PubChem AID>


> <Patent Number>


> <Authors>
Weiss, MM; Zheng, X; Ji, N; Browne, CM; Campbell, V; Chen, D; Enerson, B; Fei, X; Huang, X; Klaus, CR; Li, H; Mayo, M; McDonald, AA; Paul, A; Rong, H; Sharma, K; Shi, Y; Slavin, A; Walther, DM; Yuan, K; Zhang, Y; Zhu, X; Kelleher, J; Walker, D; Mainolfi, N

> <Date of publication>
//0

> <Date in BindingDB>
10/11/2025

> <Institution>
Kymera Therapeutics

> <Link to Ligand in BindingDB>
http://www.bindingdb.org/bind/chemsearch/marvin/MolStructure.jsp?monomerid=50639845

> <Link to Ligand-Target Pair in BindingDB>
http://www.bindingdb.org/rwd/jsp/dbsearch/PrimarySearch_ki.jsp?energyterm=kJ/mole&tag=pol&polymerid=50007050&target=Protein+cereblon&column=ki&startPg=0&Increment=50&submit=Search

> <Link to Ligand-Target Pair in BindingDB>
http://www.bindingdb.org/rwd/jsp/dbsearch/PrimarySearch_ki.jsp?energyterm=kJ/mole&tag=r21&monomerid=50639845&enzyme=Protein+cereblon&column=ki&startPg=0&Increment=50&submit=Search

> <Ligand HET ID in PDB>


> <PDB ID(s) for Ligand-Target Complex>


> <PubChem CID of Ligand>
165437239

> <PubChem SID of Ligand>
519660248

> <ChEBI ID of Ligand>


> <ChEMBL ID of Ligand>


> <DrugBank ID of Ligand>


> <IUPHAR_GRAC ID of Ligand>


> <KEGG ID of Ligand>


> <ZINC ID of Ligand>


> <Number of Protein Chains in Target (bigger than 1 implies a multichain complex)>
1

> <BindingDB Target Chain Sequence>
MAGEGDQQDAAHNMGNHLPLLPAESEEEDEMEVEDQDSKEAKKPNIINFDTSLPTSHTYLGADMEEFHGRTLHDDDSCQVIPVLPQVMMILIPGQTLPLQLFHPQEVSMVRNLIQKDRTFAVLAYSNVQEREAQFGTTAEIYAYREEQDFGIEIVKVKAIGRQRFKVLELRTQSDGIQQAKVQILPECVLPSTMSAVQLESLNKCQIFPSKPVSREDQCSYKWWQKYQKRKFHCANLTSWPRWLYSLYDAETLMDRIKKQLREWDENLKDDSLPSNPIDFSYRVAACLPIDDVLRIQLLKIGSAIQRLRCELDIMNKCTSLCCKQCQETEITTKNEIFSLSLCGPMAAYVNPHGYVHETLTVYKACNLNLIGRPSTEHSWFPGYAWTVAQCKICASHIGWKFTATKKDMSPQKFWGLTRSALLPTIPDTEDEISPDKVILCL

> <PDB ID(s) of Target Chain>
9DUR,8TNR,8TNQ,8TNP,9DWW,9DWV,9NGT,9NFR,9NFQ,8D81,8D80,8D7Z,8D7Y,8D7X,8D7W,8D7V,8D7U,8CVP,9Q2D,9Q03,9DQD,8UH6,9SAI,9SAF,9H59,9E2U,6BOY,6BNB,6BN9,6BN8,6BN7,9OUL,9Y7D,6XK9,6UML,5V3O,5HXB,9HNE,9D0X,9D0W,7U8F,9FJX,8OJH,8OIZ,7LPS,9SFM,9OTY,4TZ4,9DJX,9DJT,8U17,8U16,8U15,8TZX,8DEY,9CUO,4M91

> <UniProt (SwissProt) Recommended Name of Target Chain>
Protein cereblon

> <UniProt (SwissProt) Entry Name of Target Chain>
CRBN_HUMAN

> <UniProt (SwissProt) Primary ID of Target Chain>
Q96SW2

> <UniProt (SwissProt) Secondary ID(s) of Target Chain>
B2R6H4 C9IZA9 C9JAH6 Q6AI62 Q6NVZ0 Q9UHW4

> <UniProt (SwissProt) Alternative ID(s) of Target Chain>


> <UniProt (TrEMBL) Submitted Name of Target Chain>


> <UniProt (TrEMBL) Entry Name of Target Chain>


> <UniProt (TrEMBL) Primary ID of Target Chain>


> <UniProt (TrEMBL) Secondary ID(s) of Target Chain>


> <UniProt (TrEMBL) Alternative ID(s) of Target Chain>


$$$$

     RDKit          2D

 60 68  0  0  0  0  0  0  0  0999 V2000
    1.3299    5.6152    0.0000 C   0  0  0  0  0  0  0  0  0  0  0  0
   -0.0967    5.1517    0.0000 O   0  0  0  0  0  0  0  0  0  0  0  0
   -0.4086    3.6844    0.0000 C   0  0  0  0  0  0  0  0  0  0  0  0
    0.7062    2.6807    0.0000 C   0  0  0  0  0  0  0  0  0  0  0  0
    0.3943    1.2135    0.0000 C   0  0  0  0  0  0  0  0  0  0  0  0
    1.2760    0.0000    0.0000 N   0  0  0  0  0  0  0  0  0  0  0  0
    0.3943   -1.2135    0.0000 N   0  0  0  0  0  0  0  0  0  0  0  0
    0.8578   -2.6401    0.0000 C   0  0  0  0  0  0  0  0  0  0  0  0
   -0.1459   -3.7548    0.0000 C   0  0  0  0  0  0  0  0  0  0  0  0
    0.3177   -5.1814    0.0000 C   0  0  0  0  0  0  0  0  0  0  0  0
    1.7849   -5.4933    0.0000 C   0  0  0  0  0  0  0  0  0  0  0  0
    2.2484   -6.9199    0.0000 C   0  0  0  0  0  0  0  0  0  0  0  0
    1.2447   -8.0346    0.0000 N   0  0  0  0  0  0  0  0  0  0  0  0
   -0.2532   -8.1131    0.0000 C   0  0  0  0  0  0  0  0  0  0  0  0
   -0.1747   -9.6110    0.0000 C   0  0  0  0  0  0  0  0  0  0  0  0
   -1.6727   -9.6895    0.0000 C   0  0  0  0  0  0  0  0  0  0  0  0
   -1.5942  -11.1875    0.0000 C   0  0  0  0  0  0  0  0  0  0  0  0
   -2.5979  -12.3022    0.0000 C   0  0  0  0  0  0  0  0  0  0  0  0
   -4.0651  -11.9903    0.0000 C   0  0  0  0  0  0  0  0  0  0  0  0
   -5.0688  -13.1050    0.0000 N   0  0  0  0  0  0  0  0  0  0  0  0
   -6.5360  -12.7932    0.0000 C   0  0  0  0  0  0  0  0  0  0  0  0
   -6.9995  -11.3666    0.0000 C   0  0  0  0  0  0  0  0  0  0  0  0
   -8.4668  -11.0547    0.0000 C   0  0  0  0  0  0  0  0  0  0  0  0
   -9.4705  -12.1694    0.0000 C   0  0  0  0  0  0  0  0  0  0  0  0
   -9.0069  -13.5960    0.0000 C   0  0  0  0  0  0  0  0  0  0  0  0
   -7.5397  -13.9079    0.0000 C   0  0  0  0  0  0  0  0  0  0  0  0
   -7.3829  -15.3997    0.0000 C   0  0  0  0  0  0  0  0  0  0  0  0
   -6.0839  -16.1497    0.0000 O   0  0  0  0  0  0  0  0  0  0  0  0
   -8.7532  -16.0098    0.0000 N   0  0  0  0  0  0  0  0  0  0  0  0
   -9.0651  -17.4770    0.0000 C   0  0  0  0  0  0  0  0  0  0  0  0
  -10.4917  -17.9405    0.0000 C   0  0  0  0  0  0  0  0  0  0  0  0
  -10.8036  -19.4078    0.0000 C   0  0  0  0  0  0  0  0  0  0  0  0
   -9.6888  -20.4114    0.0000 C   0  0  0  0  0  0  0  0  0  0  0  0
  -10.0007  -21.8787    0.0000 O   0  0  0  0  0  0  0  0  0  0  0  0
   -8.2623  -19.9479    0.0000 N   0  0  0  0  0  0  0  0  0  0  0  0
   -7.9504  -18.4807    0.0000 C   0  0  0  0  0  0  0  0  0  0  0  0
   -6.5238  -18.0172    0.0000 O   0  0  0  0  0  0  0  0  0  0  0  0
   -9.7569  -14.8951    0.0000 C   0  0  0  0  0  0  0  0  0  0  0  0
  -11.2487  -15.0519    0.0000 O   0  0  0  0  0  0  0  0  0  0  0  0
   -0.0962  -11.1090    0.0000 C   0  0  0  0  0  0  0  0  0  0  0  0
    1.3232   -9.5325    0.0000 C   0  0  0  0  0  0  0  0  0  0  0  0
    2.7886   -4.3786    0.0000 C   0  0  0  0  0  0  0  0  0  0  0  0
    2.3250   -2.9520    0.0000 C   0  0  0  0  0  0  0  0  0  0  0  0
   -1.0323   -0.7500    0.0000 C   0  0  0  0  0  0  0  0  0  0  0  0
   -1.0323    0.7500    0.0000 C   0  0  0  0  0  0  0  0  0  0  0  0
   -2.1470    1.7537    0.0000 C   0  0  0  0  0  0  0  0  0  0  0  0
   -1.8351    3.2209    0.0000 C   0  0  0  0  0  0  0  0  0  0  0  0
   -2.9499    4.2246    0.0000 N   0  0  0  0  0  0  0  0  0  0  0  0
   -2.6380    5.6918    0.0000 C   0  0  0  0  0  0  0  0  0  0  0  0
   -1.2114    6.1554    0.0000 O   0  0  0  0  0  0  0  0  0  0  0  0
   -3.7527    6.6955    0.0000 C   0  0  0  0  0  0  0  0  0  0  0  0
   -3.4408    8.1628    0.0000 C   0  0  0  0  0  0  0  0  0  0  0  0
   -4.5556    9.1664    0.0000 C   0  0  0  0  0  0  0  0  0  0  0  0
   -5.9821    8.7029    0.0000 C   0  0  0  0  0  0  0  0  0  0  0  0
   -6.2940    7.2357    0.0000 C   0  0  0  0  0  0  0  0  0  0  0  0
   -7.7206    6.7722    0.0000 C   0  0  0  0  0  0  0  0  0  0  0  0
   -9.1472    6.3086    0.0000 F   0  0  0  0  0  0  0  0  0  0  0  0
   -8.1841    8.1988    0.0000 F   0  0  0  0  0  0  0  0  0  0  0  0
   -7.2571    5.3456    0.0000 F   0  0  0  0  0  0  0  0  0  0  0  0
   -5.1793    6.2320    0.0000 N   0  0  0  0  0  0  0  0  0  0  0  0
  1  2  1  0
  2  3  1  0
  3  4  2  0
  4  5  1  0
  5  6  2  0
  6  7  1  0
  8  7  1  6
  8  9  1  0
  9 10  1  0
 10 11  1  0
 11 12  1  1
 12 13  1  0
 13 14  1  0
 14 15  1  0
 15 16  1  0
 16 17  1  0
 17 18  1  0
 18 19  1  0
 19 20  1  0
 20 21  1  0
 21 22  2  0
 22 23  1  0
 23 24  2  0
 24 25  1  0
 25 26  2  0
 26 27  1  0
 27 28  2  0
 27 29  1  0
 29 30  1  0
 30 31  1  0
 31 32  1  0
 32 33  1  0
 33 34  2  0
 33 35  1  0
 35 36  1  0
 36 37  2  0
 29 38  1  0
 38 39  2  0
 17 40  1  0
 15 41  1  0
 11 42  1  0
 42 43  1  0
  7 44  1  0
 44 45  2  0
 45 46  1  0
 46 47  2  0
 47 48  1  0
 48 49  1  0
 49 50  2  0
 49 51  1  0
 51 52  2  0
 52 53  1  0
 53 54  2  0
 54 55  1  0
 55 56  1  0
 56 57  1  0
 56 58  1  0
 56 59  1  0
 55 60  2  0
 47  3  1  0
 60 51  1  0
 45  5  1  0
 43  8  1  0
 41 13  1  0
 40 15  1  0
 26 21  1  0
 36 30  1  0
 38 25  1  0
M  END
> <From>
www.bindingDB.org

> <BindingDB Reactant_set_id>
51589168

> <Ligand InChI>
InChI=1S/C43H45F3N8O6/c1-60-34-17-31-26(16-32(34)49-38(56)30-6-3-7-35(48-30)43(44,45)46)21-53(51-31)27-10-8-24(9-11-27)20-52-22-42(23-52)18-25(19-42)14-15-47-29-5-2-4-28-37(29)41(59)54(40(28)58)33-12-13-36(55)50-39(33)57/h2-7,16-17,21,24-25,27,33,47H,8-15,18-20,22-23H2,1H3,(H,49,56)(H,50,55,57)

> <Ligand InChI Key>
JSUPGKUFXBNOPG-UHFFFAOYSA-N

> <BindingDB MonomerID>
50639851

> <BindingDB Ligand Name>
CHEMBL5565777

> <Target Name>
Protein cereblon

> <Target Source Organism According to Curator or DataSource>
Human

> <Ki (nM)>


> <IC50 (nM)>
 27

> <Kd (nM)>


> <EC50 (nM)>


> <kon (M-1-s-1)>


> <koff (s-1)>


> <pH>


> <Temp C>


> <Curation/DataSource>
ChEMBL

> <Article DOI>


> <BindingDB Entry DOI>
10.7270/Q23F4V8G

> <PMID>
38920289

> <PubChem AID>


> <Patent Number>


> <Authors>
Weiss, MM; Zheng, X; Ji, N; Browne, CM; Campbell, V; Chen, D; Enerson, B; Fei, X; Huang, X; Klaus, CR; Li, H; Mayo, M; McDonald, AA; Paul, A; Rong, H; Sharma, K; Shi, Y; Slavin, A; Walther, DM; Yuan, K; Zhang, Y; Zhu, X; Kelleher, J; Walker, D; Mainolfi, N

> <Date of publication>
//0

> <Date in BindingDB>
10/11/2025

> <Institution>
Kymera Therapeutics

> <Link to Ligand in BindingDB>
http://www.bindingdb.org/bind/chemsearch/marvin/MolStructure.jsp?monomerid=50639851

> <Link to Ligand-Target Pair in BindingDB>
http://www.bindingdb.org/rwd/jsp/dbsearch/PrimarySearch_ki.jsp?energyterm=kJ/mole&tag=pol&polymerid=50007050&target=Protein+cereblon&column=ki&startPg=0&Increment=50&submit=Search

> <Link to Ligand-Target Pair in BindingDB>
http://www.bindingdb.org/rwd/jsp/dbsearch/PrimarySearch_ki.jsp?energyterm=kJ/mole&tag=r21&monomerid=50639851&enzyme=Protein+cereblon&column=ki&startPg=0&Increment=50&submit=Search

> <Ligand HET ID in PDB>


> <PDB ID(s) for Ligand-Target Complex>


> <PubChem CID of Ligand>
167375523

> <PubChem SID of Ligand>
519660254

> <ChEBI ID of Ligand>


> <ChEMBL ID of Ligand>


> <DrugBank ID of Ligand>


> <IUPHAR_GRAC ID of Ligand>


> <KEGG ID of Ligand>


> <ZINC ID of Ligand>


> <Number of Protein Chains in Target (bigger than 1 implies a multichain complex)>
1

> <BindingDB Target Chain Sequence>
MAGEGDQQDAAHNMGNHLPLLPAESEEEDEMEVEDQDSKEAKKPNIINFDTSLPTSHTYLGADMEEFHGRTLHDDDSCQVIPVLPQVMMILIPGQTLPLQLFHPQEVSMVRNLIQKDRTFAVLAYSNVQEREAQFGTTAEIYAYREEQDFGIEIVKVKAIGRQRFKVLELRTQSDGIQQAKVQILPECVLPSTMSAVQLESLNKCQIFPSKPVSREDQCSYKWWQKYQKRKFHCANLTSWPRWLYSLYDAETLMDRIKKQLREWDENLKDDSLPSNPIDFSYRVAACLPIDDVLRIQLLKIGSAIQRLRCELDIMNKCTSLCCKQCQETEITTKNEIFSLSLCGPMAAYVNPHGYVHETLTVYKACNLNLIGRPSTEHSWFPGYAWTVAQCKICASHIGWKFTATKKDMSPQKFWGLTRSALLPTIPDTEDEISPDKVILCL

> <PDB ID(s) of Target Chain>
9DUR,8TNR,8TNQ,8TNP,9DWW,9DWV,9NGT,9NFR,9NFQ,8D81,8D80,8D7Z,8D7Y,8D7X,8D7W,8D7V,8D7U,8CVP,9Q2D,9Q03,9DQD,8UH6,9SAI,9SAF,9H59,9E2U,6BOY,6BNB,6BN9,6BN8,6BN7,9OUL,9Y7D,6XK9,6UML,5V3O,5HXB,9HNE,9D0X,9D0W,7U8F,9FJX,8OJH,8OIZ,7LPS,9SFM,9OTY,4TZ4,9DJX,9DJT,8U17,8U16,8U15,8TZX,8DEY,9CUO,4M91

> <UniProt (SwissProt) Recommended Name of Target Chain>
Protein cereblon

> <UniProt (SwissProt) Entry Name of Target Chain>
CRBN_HUMAN

> <UniProt (SwissProt) Primary ID of Target Chain>
Q96SW2

> <UniProt (SwissProt) Secondary ID(s) of Target Chain>
B2R6H4 C9IZA9 C9JAH6 Q6AI62 Q6NVZ0 Q9UHW4

> <UniProt (SwissProt) Alternative ID(s) of Target Chain>


> <UniProt (TrEMBL) Submitted Name of Target Chain>


> <UniProt (TrEMBL) Entry Name of Target Chain>


> <UniProt (TrEMBL) Primary ID of Target Chain>


> <UniProt (TrEMBL) Secondary ID(s) of Target Chain>


> <UniProt (TrEMBL) Alternative ID(s) of Target Chain>


$$$$
 
     RDKit          2D

 58 66  0  0  0  0  0  0  0  0999 V2000
    3.9408    0.6848    0.0000 C   0  0  0  0  0  0  0  0  0  0  0  0
    3.2263    1.0973    0.0000 C   0  0  0  0  0  0  0  0  0  0  0  0
    3.2263    1.9223    0.0000 C   0  0  0  0  0  0  0  0  0  0  0  0
    2.5118    2.3349    0.0000 C   0  0  0  0  0  0  0  0  0  0  0  0
    1.7974    1.9223    0.0000 C   0  0  0  0  0  0  0  0  0  0  0  0
    1.7974    2.7473    0.0000 C   0  0  0  0  0  0  0  0  0  0  0  0
    1.0829    3.1598    0.0000 C   0  0  0  0  0  0  0  0  0  0  0  0
    0.3684    2.7473    0.0000 N   0  0  0  0  0  0  0  0  0  0  0  0
   -0.3459    3.1598    0.0000 C   0  0  0  0  0  0  0  0  0  0  0  0
   -1.0604    2.7473    0.0000 C   0  0  0  0  0  0  0  0  0  0  0  0
   -1.7748    3.1598    0.0000 N   0  0  0  0  0  0  0  0  0  0  0  0
   -2.4893    2.7473    0.0000 C   0  0  0  0  0  0  0  0  0  0  0  0
   -2.4893    1.9223    0.0000 O   0  0  0  0  0  0  0  0  0  0  0  0
   -3.2038    3.1598    0.0000 C   0  0  0  0  0  0  0  0  0  0  0  0
   -3.9182    2.7473    0.0000 C   0  0  0  0  0  0  0  0  0  0  0  0
   -4.5999    3.2120    0.0000 C   0  0  0  0  0  0  0  0  0  0  0  0
   -5.3882    2.9689    0.0000 N   0  0  0  0  0  0  0  0  0  0  0  0
   -5.8631    3.6435    0.0000 C   0  0  0  0  0  0  0  0  0  0  0  0
   -5.3683    4.3036    0.0000 N   0  0  0  0  0  0  0  0  0  0  0  0
   -4.5875    4.0369    0.0000 N   0  0  0  0  0  0  0  0  0  0  0  0
   -6.6880    3.6558    0.0000 C   0  0  0  0  0  0  0  0  0  0  0  0
   -5.6896    2.2008    0.0000 C   0  0  0  0  0  0  0  0  0  0  0  0
   -5.2771    1.4865    0.0000 C   0  0  0  0  0  0  0  0  0  0  0  0
   -5.8292    0.8733    0.0000 C   0  0  0  0  0  0  0  0  0  0  0  0
   -6.5828    1.2089    0.0000 C   0  0  0  0  0  0  0  0  0  0  0  0
   -6.4966    2.0294    0.0000 S   0  0  0  0  0  0  0  0  0  0  0  0
   -7.2973    0.7964    0.0000 C   0  0  0  0  0  0  0  0  0  0  0  0
   -5.6576    0.0664    0.0000 C   0  0  0  0  0  0  0  0  0  0  0  0
   -4.4614    1.3635    0.0000 C   0  0  0  0  0  0  0  0  0  0  0  0
   -4.2181    0.5750    0.0000 C   0  0  0  0  0  0  0  0  0  0  0  0
   -3.4139    0.3915    0.0000 C   0  0  0  0  0  0  0  0  0  0  0  0
   -3.1707   -0.3967    0.0000 C   0  0  0  0  0  0  0  0  0  0  0  0
   -3.7318   -1.0014    0.0000 C   0  0  0  0  0  0  0  0  0  0  0  0
   -3.4886   -1.7898    0.0000 Cl  0  0  0  0  0  0  0  0  0  0  0  0
   -4.5362   -0.8179    0.0000 C   0  0  0  0  0  0  0  0  0  0  0  0
   -4.7793   -0.0295    0.0000 C   0  0  0  0  0  0  0  0  0  0  0  0
   -3.8565    1.9246    0.0000 N   0  0  0  0  0  0  0  0  0  0  0  0
    0.3685    1.9223    0.0000 C   0  0  0  0  0  0  0  0  0  0  0  0
    1.0829    1.5099    0.0000 C   0  0  0  0  0  0  0  0  0  0  0  0
    1.7974    1.0973    0.0000 C   0  0  0  0  0  0  0  0  0  0  0  0
    2.5118    0.6848    0.0000 C   0  0  0  0  0  0  0  0  0  0  0  0
    3.9408   -0.1400    0.0000 C   0  0  0  0  0  0  0  0  0  0  0  0
    4.6553   -0.5526    0.0000 C   0  0  0  0  0  0  0  0  0  0  0  0
    4.8268   -1.3595    0.0000 C   0  0  0  0  0  0  0  0  0  0  0  0
    5.6473   -1.4457    0.0000 N   0  0  0  0  0  0  0  0  0  0  0  0
    6.0598   -2.1602    0.0000 C   0  0  0  0  0  0  0  0  0  0  0  0
    5.6473   -2.8746    0.0000 C   0  0  0  0  0  0  0  0  0  0  0  0
    4.8223   -2.8746    0.0000 O   0  0  0  0  0  0  0  0  0  0  0  0
    6.0598   -3.5891    0.0000 N   0  0  0  0  0  0  0  0  0  0  0  0
    6.8848   -3.5891    0.0000 C   0  0  0  0  0  0  0  0  0  0  0  0
    7.2973   -4.3036    0.0000 O   0  0  0  0  0  0  0  0  0  0  0  0
    7.2973   -2.8746    0.0000 C   0  0  0  0  0  0  0  0  0  0  0  0
    6.8848   -2.1602    0.0000 C   0  0  0  0  0  0  0  0  0  0  0  0
    5.9828   -0.6921    0.0000 C   0  0  0  0  0  0  0  0  0  0  0  0
    6.7898   -0.5205    0.0000 O   0  0  0  0  0  0  0  0  0  0  0  0
    5.3698   -0.1400    0.0000 C   0  0  0  0  0  0  0  0  0  0  0  0
    5.3698    0.6848    0.0000 C   0  0  0  0  0  0  0  0  0  0  0  0
    4.6553    1.0973    0.0000 C   0  0  0  0  0  0  0  0  0  0  0  0
  2  1  1  0
  2  3  1  0
  3  4  1  0
  5  4  1  0
  5  6  1  0
  6  7  1  0
  7  8  1  0
  9  8  1  0
 10  9  1  0
 11 10  1  0
 12 11  1  0
 12 13  2  0
 12 14  1  0
 15 14  1  6
 16 15  1  0
 16 17  1  0
 17 18  1  0
 18 19  2  0
 19 20  1  0
 16 20  2  0
 18 21  1  0
 17 22  1  0
 23 22  2  0
 23 24  1  0
 24 25  2  0
 25 26  1  0
 22 26  1  0
 25 27  1  0
 24 28  1  0
 29 23  1  0
 29 30  1  0
 31 30  2  0
 32 31  1  0
 33 32  2  0
 33 34  1  0
 35 33  1  0
 36 35  2  0
 30 36  1  0
 37 29  2  0
 15 37  1  0
  8 38  1  0
 39  5  1  0
 38 39  1  0
  5 40  1  0
 41  2  1  0
 40 41  1  0
  1 42  1  0
 42 43  2  0
 43 44  1  0
 45 44  1  0
 45 46  1  0
 46 47  1  0
 47 48  2  0
 47 49  1  0
 49 50  1  0
 50 51  2  0
 50 52  1  0
 52 53  1  0
 53 46  1  0
 54 45  1  0
 54 55  2  0
 56 54  1  0
 43 56  1  0
 56 57  2  0
 57 58  1  0
 58  1  2  0
M  END
> <From>
www.bindingDB.org

> <BindingDB Reactant_set_id>
51570545

> <Ligand InChI>
InChI=1S/C44H49ClN8O4S/c1-25-26(2)58-43-38(25)39(29-4-7-32(45)8-5-29)47-34(40-50-49-27(3)53(40)43)23-37(55)46-18-21-51-19-16-44(17-20-51)14-12-28(13-15-44)30-6-9-33-31(22-30)24-52(42(33)57)35-10-11-36(54)48-41(35)56/h4-9,22,28,34-35H,10-21,23-24H2,1-3H3,(H,46,55)(H,48,54,56)/t34-,35?/m0/s1

> <Ligand InChI Key>
ZKMPZGMDXOECHS-SFCXHYMASA-N

> <BindingDB MonomerID>
50631634

> <BindingDB Ligand Name>
CHEMBL5415959

> <Target Name>
Protein cereblon

> <Target Source Organism According to Curator or DataSource>
Homo sapiens

> <Ki (nM)>


> <IC50 (nM)>
 28

> <Kd (nM)>


> <EC50 (nM)>


> <kon (M-1-s-1)>


> <koff (s-1)>


> <pH>


> <Temp C>


> <Curation/DataSource>
ChEMBL

> <Article DOI>
10.1021/acs.jmedchem.3c01613

> <BindingDB Entry DOI>
10.7270/Q2T1583Z

> <PMID>
38096359

> <PubChem AID>


> <Patent Number>


> <Authors>
Arndt, CM; Bitai, J; Brunner, J; Opatz, T; Martinelli, P; Gollner, A; Sokol, KR; Krumb, M

> <Date of publication>
12/28/2023

> <Date in BindingDB>
12/21/2024

> <Institution>
Boehringer Ingelheim Rcv

> <Link to Ligand in BindingDB>
http://www.bindingdb.org/bind/chemsearch/marvin/MolStructure.jsp?monomerid=50631634

> <Link to Ligand-Target Pair in BindingDB>
http://www.bindingdb.org/jsp/dbsearch/PrimarySearch_ki.jsp?energyterm=kJ/mole&tag=pol&polymerid=50007050&target=Protein+cereblon&column=ki&startPg=0&Increment=50&submit=Search

> <Link to Ligand-Target Pair in BindingDB>
http://www.bindingdb.org/jsp/dbsearch/PrimarySearch_ki.jsp?energyterm=kJ/mole&tag=r21&monomerid=50631634&enzyme=Protein+cereblon&column=ki&startPg=0&Increment=50&submit=Search

> <Ligand HET ID in PDB>


> <PDB ID(s) for Ligand-Target Complex>


> <PubChem CID of Ligand>
172453430

> <PubChem SID of Ligand>
505035968

> <ChEBI ID of Ligand>


> <ChEMBL ID of Ligand>


> <DrugBank ID of Ligand>


> <IUPHAR_GRAC ID of Ligand>


> <KEGG ID of Ligand>


> <ZINC ID of Ligand>


> <Number of Protein Chains in Target (bigger than 1 implies a multichain complex)>
1

> <BindingDB Target Chain Sequence>
MAGEGDQQDAAHNMGNHLPLLPAESEEEDEMEVEDQDSKEAKKPNIINFDTSLPTSHTYLGADMEEFHGRTLHDDDSCQVIPVLPQVMMILIPGQTLPLQLFHPQEVSMVRNLIQKDRTFAVLAYSNVQEREAQFGTTAEIYAYREEQDFGIEIVKVKAIGRQRFKVLELRTQSDGIQQAKVQILPECVLPSTMSAVQLESLNKCQIFPSKPVSREDQCSYKWWQKYQKRKFHCANLTSWPRWLYSLYDAETLMDRIKKQLREWDENLKDDSLPSNPIDFSYRVAACLPIDDVLRIQLLKIGSAIQRLRCELDIMNKCTSLCCKQCQETEITTKNEIFSLSLCGPMAAYVNPHGYVHETLTVYKACNLNLIGRPSTEHSWFPGYAWTVAQCKICASHIGWKFTATKKDMSPQKFWGLTRSALLPTIPDTEDEISPDKVILCL

> <PDB ID(s) of Target Chain>
8TNR,8TNQ,8TNP,8D81,8D80,8D7Z,8D7Y,8D7X,8D7W,8D7V,8D7U,8CVP,9DQD,8UH6,6BOY,6BNB,6BN9,6BN8,6BN7,6XK9,6UML,5V3O,5HXB,7U8F,8OJH,8OIZ,7LPS,4TZ4,9DJX,9DJT,8U17,8U16,8U15,8TZX,8DEY,9CUO,4M91

> <UniProt (SwissProt) Recommended Name of Target Chain>
Protein cereblon

> <UniProt (SwissProt) Entry Name of Target Chain>
CRBN_HUMAN

> <UniProt (SwissProt) Primary ID of Target Chain>
Q96SW2

> <UniProt (SwissProt) Secondary ID(s) of Target Chain>
B2R6H4 C9IZA9 C9JAH6 Q6AI62 Q6NVZ0 Q9UHW4

> <UniProt (SwissProt) Alternative ID(s) of Target Chain>


> <UniProt (TrEMBL) Submitted Name of Target Chain>


> <UniProt (TrEMBL) Entry Name of Target Chain>


> <UniProt (TrEMBL) Primary ID of Target Chain>


> <UniProt (TrEMBL) Secondary ID(s) of Target Chain>


> <UniProt (TrEMBL) Alternative ID(s) of Target Chain>


$$$$
 
     RDKit          2D

 54 61  0  0  0  0  0  0  0  0999 V2000
   10.7339  -16.2570    0.0000 C   0  0  0  0  0  0  0  0  0  0  0  0
   11.8815  -15.0974    0.0000 C   0  0  0  0  0  0  0  0  0  0  0  0
   11.0866  -14.8905    0.0000 C   0  0  0  0  0  0  0  0  0  0  0  0
   10.5148  -15.4714    0.0000 C   0  0  0  0  0  0  0  0  0  0  0  0
   12.0960  -15.8868    0.0000 C   0  0  0  0  0  0  0  0  0  0  0  0
   11.5211  -16.4637    0.0000 C   0  0  0  0  0  0  0  0  0  0  0  0
   11.8920  -17.1889    0.0000 C   0  0  0  0  0  0  0  0  0  0  0  0
   12.6964  -17.0601    0.0000 N   0  0  0  0  0  0  0  0  0  0  0  0
   12.8223  -16.2554    0.0000 C   0  0  0  0  0  0  0  0  0  0  0  0
   13.5498  -15.8832    0.0000 O   0  0  0  0  0  0  0  0  0  0  0  0
   13.2734  -17.6350    0.0000 C   0  0  0  0  0  0  0  0  0  0  0  0
   13.0611  -18.4251    0.0000 C   0  0  0  0  0  0  0  0  0  0  0  0
   13.6361  -19.0008    0.0000 C   0  0  0  0  0  0  0  0  0  0  0  0
   14.4265  -18.7920    0.0000 C   0  0  0  0  0  0  0  0  0  0  0  0
   14.6388  -18.0018    0.0000 N   0  0  0  0  0  0  0  0  0  0  0  0
   14.0606  -17.4206    0.0000 C   0  0  0  0  0  0  0  0  0  0  0  0
   14.2716  -16.6311    0.0000 O   0  0  0  0  0  0  0  0  0  0  0  0
   15.0031  -19.3710    0.0000 O   0  0  0  0  0  0  0  0  0  0  0  0
    7.0039  -19.8437    0.0000 C   0  0  0  0  0  0  0  0  0  0  0  0
    7.2144  -20.6320    0.0000 C   0  0  0  0  0  0  0  0  0  0  0  0
    7.9980  -20.8427    0.0000 C   0  0  0  0  0  0  0  0  0  0  0  0
    8.5766  -20.2683    0.0000 C   0  0  0  0  0  0  0  0  0  0  0  0
    8.3661  -19.4800    0.0000 C   0  0  0  0  0  0  0  0  0  0  0  0
    7.5770  -19.2661    0.0000 C   0  0  0  0  0  0  0  0  0  0  0  0
    6.2158  -20.0613    0.0000 C   0  0  0  0  0  0  0  0  0  0  0  0
    7.0437  -19.0306    0.0000 N   0  0  0  0  0  0  0  0  0  0  0  0
    6.2797  -18.7409    0.0000 C   0  0  0  0  0  0  0  0  0  0  0  0
    5.7682  -19.3779    0.0000 C   0  0  0  0  0  0  0  0  0  0  0  0
    4.0226  -20.3224    0.0000 C   0  0  0  0  0  0  0  0  0  0  0  0
    4.0215  -21.1420    0.0000 C   0  0  0  0  0  0  0  0  0  0  0  0
    4.7295  -21.5509    0.0000 C   0  0  0  0  0  0  0  0  0  0  0  0
    4.7277  -19.9136    0.0000 C   0  0  0  0  0  0  0  0  0  0  0  0
    5.4364  -20.3188    0.0000 C   0  0  0  0  0  0  0  0  0  0  0  0
    5.4412  -21.1374    0.0000 C   0  0  0  0  0  0  0  0  0  0  0  0
    6.2212  -21.3859    0.0000 N   0  0  0  0  0  0  0  0  0  0  0  0
    6.6985  -20.7208    0.0000 C   0  0  0  0  0  0  0  0  0  0  0  0
    3.3135  -21.5500    0.0000 Cl  0  0  0  0  0  0  0  0  0  0  0  0
    7.4042  -21.1273    0.0000 O   0  0  0  0  0  0  0  0  0  0  0  0
    6.0650  -17.9524    0.0000 C   0  0  0  0  0  0  0  0  0  0  0  0
    6.6405  -17.3722    0.0000 N   0  0  0  0  0  0  0  0  0  0  0  0
    5.2748  -17.7441    0.0000 O   0  0  0  0  0  0  0  0  0  0  0  0
    4.9733  -19.1627    0.0000 C   0  0  0  0  0  0  0  0  0  0  0  0
    4.7646  -18.3650    0.0000 C   0  0  0  0  0  0  0  0  0  0  0  0
    3.9706  -18.1497    0.0000 C   0  0  0  0  0  0  0  0  0  0  0  0
    3.3859  -18.7308    0.0000 C   0  0  0  0  0  0  0  0  0  0  0  0
    3.6006  -19.5302    0.0000 C   0  0  0  0  0  0  0  0  0  0  0  0
    4.3943  -19.7418    0.0000 C   0  0  0  0  0  0  0  0  0  0  0  0
    4.7587  -17.5448    0.0000 F   0  0  0  0  0  0  0  0  0  0  0  0
    3.7615  -17.3597    0.0000 Cl  0  0  0  0  0  0  0  0  0  0  0  0
    7.4307  -17.5805    0.0000 C   0  0  0  0  0  0  0  0  0  0  0  0
    8.0062  -17.0003    0.0000 C   0  0  0  0  0  0  0  0  0  0  0  0
    8.7964  -17.2086    0.0000 C   0  0  0  0  0  0  0  0  0  0  0  0
    9.3719  -16.6285    0.0000 C   0  0  0  0  0  0  0  0  0  0  0  0
   10.1621  -16.8368    0.0000 C   0  0  0  0  0  0  0  0  0  0  0  0
  1  6  2  0
  5  2  2  0
  2  3  1  0
  3  4  2  0
  4  1  1  0
  5  6  1  0
  6  7  1  0
  7  8  1  0
  8  9  1  0
  9  5  1  0
  9 10  2  0
 11 12  1  0
 11 16  1  0
 12 13  1  0
 13 14  1  0
 14 15  1  0
 15 16  1  0
  8 11  1  0
 16 17  2  0
 14 18  2  0
 19 20  1  0
 19 24  1  0
 20 21  1  0
 21 22  1  0
 22 23  1  0
 23 24  1  0
 25 19  1  0
 19 26  1  0
 26 27  1  0
 27 28  1  0
 28 25  1  0
 29 30  2  0
 30 31  1  0
 31 34  2  0
 33 32  2  0
 32 29  1  0
 33 34  1  0
 34 35  1  0
 35 36  1  0
 25 36  1  1
 25 33  1  0
 30 37  1  0
 36 38  2  0
 27 39  1  6
 39 40  1  0
 39 41  2  0
 28 42  1  1
 42 43  2  0
 43 44  1  0
 44 45  2  0
 45 46  1  0
 46 47  2  0
 47 42  1  0
 43 48  1  0
 44 49  1  0
 40 50  1  0
 50 51  1  0
 51 52  1  0
 52 53  1  0
 53 54  1  0
 54  1  1  0
M  END
> <From>
www.bindingDB.org

> <BindingDB Reactant_set_id>
51235036

> <Ligand InChI>
InChI=1S/C41H42Cl2FN5O5/c42-24-14-15-28-30(21-24)46-39(54)41(28)33(26-12-8-13-29(43)34(26)44)35(48-40(41)18-4-2-5-19-40)37(52)45-20-6-1-3-9-23-10-7-11-25-27(23)22-49(38(25)53)31-16-17-32(50)47-36(31)51/h7-8,10-15,21,31,33,35,48H,1-6,9,16-20,22H2,(H,45,52)(H,46,54)(H,47,50,51)/t31?,33-,35+,41+/m0/s1

> <Ligand InChI Key>
BANRYGZZIMCKNA-OYGJEQPESA-N

> <BindingDB MonomerID>
50505628

> <BindingDB Ligand Name>
CHEMBL4449512

> <Target Name>
Protein cereblon

> <Target Source Organism According to Curator or DataSource>
Human

> <Ki (nM)>


> <IC50 (nM)>
 29

> <Kd (nM)>


> <EC50 (nM)>


> <kon (M-1-s-1)>


> <koff (s-1)>


> <pH>


> <Temp C>


> <Curation/DataSource>
ChEMBL

> <Article DOI>
10.1021/acs.jmedchem.9b00846

> <BindingDB Entry DOI>
10.7270/Q20C5026

> <PMID>
31560543

> <PubChem AID>


> <Patent Number>


> <Authors>
Yang, J; Li, Y; Aguilar, A; Liu, Z; Yang, CY; Wang, S

> <Date of publication>
11/14/2019

> <Date in BindingDB>
2/18/2021

> <Institution>
TBA

> <Link to Ligand in BindingDB>
http://www.bindingdb.org/bind/chemsearch/marvin/MolStructure.jsp?monomerid=50505628

> <Link to Ligand-Target Pair in BindingDB>
http://www.bindingdb.org/jsp/dbsearch/PrimarySearch_ki.jsp?energyterm=kJ/mole&tag=pol&polymerid=50007050&target=Protein+cereblon&column=ki&startPg=0&Increment=50&submit=Search

> <Link to Ligand-Target Pair in BindingDB>
http://www.bindingdb.org/jsp/dbsearch/PrimarySearch_ki.jsp?energyterm=kJ/mole&tag=r21&monomerid=50505628&enzyme=Protein+cereblon&column=ki&startPg=0&Increment=50&submit=Search

> <Ligand HET ID in PDB>


> <PDB ID(s) for Ligand-Target Complex>


> <PubChem CID of Ligand>
139600332

> <PubChem SID of Ligand>
440714213

> <ChEBI ID of Ligand>


> <ChEMBL ID of Ligand>


> <DrugBank ID of Ligand>


> <IUPHAR_GRAC ID of Ligand>


> <KEGG ID of Ligand>


> <ZINC ID of Ligand>


> <Number of Protein Chains in Target (bigger than 1 implies a multichain complex)>
1

> <BindingDB Target Chain Sequence>
MAGEGDQQDAAHNMGNHLPLLPAESEEEDEMEVEDQDSKEAKKPNIINFDTSLPTSHTYLGADMEEFHGRTLHDDDSCQVIPVLPQVMMILIPGQTLPLQLFHPQEVSMVRNLIQKDRTFAVLAYSNVQEREAQFGTTAEIYAYREEQDFGIEIVKVKAIGRQRFKVLELRTQSDGIQQAKVQILPECVLPSTMSAVQLESLNKCQIFPSKPVSREDQCSYKWWQKYQKRKFHCANLTSWPRWLYSLYDAETLMDRIKKQLREWDENLKDDSLPSNPIDFSYRVAACLPIDDVLRIQLLKIGSAIQRLRCELDIMNKCTSLCCKQCQETEITTKNEIFSLSLCGPMAAYVNPHGYVHETLTVYKACNLNLIGRPSTEHSWFPGYAWTVAQCKICASHIGWKFTATKKDMSPQKFWGLTRSALLPTIPDTEDEISPDKVILCL

> <PDB ID(s) of Target Chain>
4TZ4,5HXB,5V3O,6UML,6XK9,7LPS,7U8F,8CVP,8D7U,8D7V,8D7W,8D7X,8D7Y,8D7Z,8D80,8D81,8DEY,8OIZ,8OJH

> <UniProt (SwissProt) Recommended Name of Target Chain>
Protein cereblon

> <UniProt (SwissProt) Entry Name of Target Chain>
CRBN_HUMAN

> <UniProt (SwissProt) Primary ID of Target Chain>
Q96SW2

> <UniProt (SwissProt) Secondary ID(s) of Target Chain>
B2R6H4 C9IZA9 C9JAH6 Q6AI62 Q6NVZ0 Q9UHW4

> <UniProt (SwissProt) Alternative ID(s) of Target Chain>


> <UniProt (TrEMBL) Submitted Name of Target Chain>


> <UniProt (TrEMBL) Entry Name of Target Chain>


> <UniProt (TrEMBL) Primary ID of Target Chain>


> <UniProt (TrEMBL) Secondary ID(s) of Target Chain>


> <UniProt (TrEMBL) Alternative ID(s) of Target Chain>


$$$$
 
     RDKit          2D

 58 65  0  0  0  0  0  0  0  0999 V2000
   -2.3795    1.0795    0.0000 C   0  0  0  0  0  0  0  0  0  0  0  0
   -3.1600    0.8127    0.0000 C   0  0  0  0  0  0  0  0  0  0  0  0
   -3.7816    1.3552    0.0000 N   0  0  0  0  0  0  0  0  0  0  0  0
   -4.5621    1.0883    0.0000 C   0  0  0  0  0  0  0  0  0  0  0  0
   -4.7213    0.2788    0.0000 O   0  0  0  0  0  0  0  0  0  0  0  0
   -5.1836    1.6309    0.0000 C   0  0  0  0  0  0  0  0  0  0  0  0
   -5.9641    1.3640    0.0000 C   0  0  0  0  0  0  0  0  0  0  0  0
   -6.5434    1.9514    0.0000 C   0  0  0  0  0  0  0  0  0  0  0  0
   -7.3638    1.8649    0.0000 N   0  0  0  0  0  0  0  0  0  0  0  0
   -7.6996    2.6184    0.0000 C   0  0  0  0  0  0  0  0  0  0  0  0
   -7.0868    3.1706    0.0000 N   0  0  0  0  0  0  0  0  0  0  0  0
   -6.3722    2.7584    0.0000 N   0  0  0  0  0  0  0  0  0  0  0  0
   -8.5066    2.7896    0.0000 C   0  0  0  0  0  0  0  0  0  0  0  0
   -7.8077    1.1695    0.0000 C   0  0  0  0  0  0  0  0  0  0  0  0
   -7.5408    0.3888    0.0000 C   0  0  0  0  0  0  0  0  0  0  0  0
   -8.2007   -0.1061    0.0000 C   0  0  0  0  0  0  0  0  0  0  0  0
   -8.8754    0.3684    0.0000 C   0  0  0  0  0  0  0  0  0  0  0  0
   -8.6326    1.1569    0.0000 S   0  0  0  0  0  0  0  0  0  0  0  0
   -9.6560    0.1015    0.0000 C   0  0  0  0  0  0  0  0  0  0  0  0
   -8.1881   -0.9309    0.0000 C   0  0  0  0  0  0  0  0  0  0  0  0
   -6.7641    0.1109    0.0000 C   0  0  0  0  0  0  0  0  0  0  0  0
   -6.6775   -0.7094    0.0000 C   0  0  0  0  0  0  0  0  0  0  0  0
   -5.9237   -1.0446    0.0000 C   0  0  0  0  0  0  0  0  0  0  0  0
   -5.8372   -1.8651    0.0000 C   0  0  0  0  0  0  0  0  0  0  0  0
   -6.5045   -2.3502    0.0000 C   0  0  0  0  0  0  0  0  0  0  0  0
   -6.4179   -3.1706    0.0000 Cl  0  0  0  0  0  0  0  0  0  0  0  0
   -7.2582   -2.0149    0.0000 C   0  0  0  0  0  0  0  0  0  0  0  0
   -7.3447   -1.1944    0.0000 C   0  0  0  0  0  0  0  0  0  0  0  0
   -6.0624    0.5449    0.0000 N   0  0  0  0  0  0  0  0  0  0  0  0
   -1.7580    0.5370    0.0000 C   0  0  0  0  0  0  0  0  0  0  0  0
   -0.9774    0.8040    0.0000 C   0  0  0  0  0  0  0  0  0  0  0  0
   -0.3560    0.2614    0.0000 C   0  0  0  0  0  0  0  0  0  0  0  0
    0.4245    0.5283    0.0000 N   0  0  0  0  0  0  0  0  0  0  0  0
    1.0459   -0.0142    0.0000 C   0  0  0  0  0  0  0  0  0  0  0  0
    0.8868   -0.8236    0.0000 C   0  0  0  0  0  0  0  0  0  0  0  0
    1.5082   -1.3662    0.0000 C   0  0  0  0  0  0  0  0  0  0  0  0
    2.2888   -1.0992    0.0000 C   0  0  0  0  0  0  0  0  0  0  0  0
    2.9102   -1.6418    0.0000 C   0  0  0  0  0  0  0  0  0  0  0  0
    3.6909   -1.3749    0.0000 C   0  0  0  0  0  0  0  0  0  0  0  0
    3.8500   -0.5654    0.0000 C   0  0  0  0  0  0  0  0  0  0  0  0
    4.6306   -0.2985    0.0000 C   0  0  0  0  0  0  0  0  0  0  0  0
    5.2521   -0.8411    0.0000 C   0  0  0  0  0  0  0  0  0  0  0  0
    5.0929   -1.6505    0.0000 C   0  0  0  0  0  0  0  0  0  0  0  0
    5.8136   -2.0520    0.0000 C   0  0  0  0  0  0  0  0  0  0  0  0
    6.4181   -1.4907    0.0000 N   0  0  0  0  0  0  0  0  0  0  0  0
    6.0711   -0.7423    0.0000 C   0  0  0  0  0  0  0  0  0  0  0  0
    6.4726   -0.0216    0.0000 O   0  0  0  0  0  0  0  0  0  0  0  0
    7.2277   -1.6499    0.0000 C   0  0  0  0  0  0  0  0  0  0  0  0
    7.7701   -1.0284    0.0000 C   0  0  0  0  0  0  0  0  0  0  0  0
    8.5797   -1.1876    0.0000 C   0  0  0  0  0  0  0  0  0  0  0  0
    8.8466   -1.9682    0.0000 C   0  0  0  0  0  0  0  0  0  0  0  0
    9.6560   -2.1273    0.0000 O   0  0  0  0  0  0  0  0  0  0  0  0
    8.3040   -2.5896    0.0000 N   0  0  0  0  0  0  0  0  0  0  0  0
    7.4945   -2.4305    0.0000 C   0  0  0  0  0  0  0  0  0  0  0  0
    6.9520   -3.0519    0.0000 O   0  0  0  0  0  0  0  0  0  0  0  0
    4.3122   -1.9174    0.0000 C   0  0  0  0  0  0  0  0  0  0  0  0
    2.4480   -0.2898    0.0000 C   0  0  0  0  0  0  0  0  0  0  0  0
    1.8266    0.2527    0.0000 C   0  0  0  0  0  0  0  0  0  0  0  0
  2  1  1  0
  3  2  1  0
  4  3  1  0
  4  5  2  0
  4  6  1  0
  7  6  1  6
  8  7  1  0
  8  9  1  0
  9 10  1  0
 10 11  2  0
  8 12  2  0
 11 12  1  0
 10 13  1  0
  9 14  1  0
 15 14  2  0
 15 16  1  0
 16 17  2  0
 14 18  1  0
 17 18  1  0
 17 19  1  0
 16 20  1  0
 21 15  1  0
 21 22  1  0
 23 22  2  0
 24 23  1  0
 25 24  2  0
 25 26  1  0
 27 25  1  0
 28 27  2  0
 22 28  1  0
 29 21  2  0
  7 29  1  0
  1 30  1  0
 30 31  1  0
 31 32  1  0
 33 32  1  0
 33 34  1  0
 34 35  1  0
 35 36  2  0
 36 37  1  0
 37 38  1  0
 38 39  1  0
 40 39  2  0
 41 40  1  0
 42 41  2  0
 43 42  1  0
 43 44  1  0
 45 44  1  0
 46 45  1  0
 42 46  1  0
 46 47  2  0
 45 48  1  0
 49 48  1  0
 50 49  1  0
 51 50  1  0
 51 52  2  0
 53 51  1  0
 54 53  1  0
 48 54  1  0
 54 55  2  0
 56 43  2  0
 39 56  1  0
 37 57  2  0
 57 58  1  0
 58 34  2  0
M  END
> <From>
www.bindingDB.org

> <BindingDB Reactant_set_id>
51570543

> <Ligand InChI>
InChI=1S/C44H45ClN8O4S/c1-25-26(2)58-44-39(25)40(30-10-12-32(45)13-11-30)48-35(41-51-50-27(3)53(41)44)23-38(55)47-20-6-4-5-19-46-33-14-7-28(8-15-33)21-29-9-16-34-31(22-29)24-52(43(34)57)36-17-18-37(54)49-42(36)56/h7-16,22,35-36,46H,4-6,17-21,23-24H2,1-3H3,(H,47,55)(H,49,54,56)/t35-,36?/m0/s1

> <Ligand InChI Key>
GUKINEBETXGZNQ-TYIYNAFKSA-N

> <BindingDB MonomerID>
50631632

> <BindingDB Ligand Name>
CHEMBL5398776

> <Target Name>
Protein cereblon

> <Target Source Organism According to Curator or DataSource>
Homo sapiens

> <Ki (nM)>


> <IC50 (nM)>
 31

> <Kd (nM)>


> <EC50 (nM)>


> <kon (M-1-s-1)>


> <koff (s-1)>


> <pH>


> <Temp C>


> <Curation/DataSource>
ChEMBL

> <Article DOI>
10.1021/acs.jmedchem.3c01613

> <BindingDB Entry DOI>
10.7270/Q2T1583Z

> <PMID>
38096359

> <PubChem AID>


> <Patent Number>


> <Authors>
Arndt, CM; Bitai, J; Brunner, J; Opatz, T; Martinelli, P; Gollner, A; Sokol, KR; Krumb, M

> <Date of publication>
12/28/2023

> <Date in BindingDB>
12/21/2024

> <Institution>
Boehringer Ingelheim Rcv

> <Link to Ligand in BindingDB>
http://www.bindingdb.org/bind/chemsearch/marvin/MolStructure.jsp?monomerid=50631632

> <Link to Ligand-Target Pair in BindingDB>
http://www.bindingdb.org/jsp/dbsearch/PrimarySearch_ki.jsp?energyterm=kJ/mole&tag=pol&polymerid=50007050&target=Protein+cereblon&column=ki&startPg=0&Increment=50&submit=Search

> <Link to Ligand-Target Pair in BindingDB>
http://www.bindingdb.org/jsp/dbsearch/PrimarySearch_ki.jsp?energyterm=kJ/mole&tag=r21&monomerid=50631632&enzyme=Protein+cereblon&column=ki&startPg=0&Increment=50&submit=Search

> <Ligand HET ID in PDB>


> <PDB ID(s) for Ligand-Target Complex>


> <PubChem CID of Ligand>
172444910

> <PubChem SID of Ligand>
505035966

> <ChEBI ID of Ligand>


> <ChEMBL ID of Ligand>


> <DrugBank ID of Ligand>


> <IUPHAR_GRAC ID of Ligand>


> <KEGG ID of Ligand>


> <ZINC ID of Ligand>


> <Number of Protein Chains in Target (bigger than 1 implies a multichain complex)>
1

> <BindingDB Target Chain Sequence>
MAGEGDQQDAAHNMGNHLPLLPAESEEEDEMEVEDQDSKEAKKPNIINFDTSLPTSHTYLGADMEEFHGRTLHDDDSCQVIPVLPQVMMILIPGQTLPLQLFHPQEVSMVRNLIQKDRTFAVLAYSNVQEREAQFGTTAEIYAYREEQDFGIEIVKVKAIGRQRFKVLELRTQSDGIQQAKVQILPECVLPSTMSAVQLESLNKCQIFPSKPVSREDQCSYKWWQKYQKRKFHCANLTSWPRWLYSLYDAETLMDRIKKQLREWDENLKDDSLPSNPIDFSYRVAACLPIDDVLRIQLLKIGSAIQRLRCELDIMNKCTSLCCKQCQETEITTKNEIFSLSLCGPMAAYVNPHGYVHETLTVYKACNLNLIGRPSTEHSWFPGYAWTVAQCKICASHIGWKFTATKKDMSPQKFWGLTRSALLPTIPDTEDEISPDKVILCL

> <PDB ID(s) of Target Chain>
8TNR,8TNQ,8TNP,8D81,8D80,8D7Z,8D7Y,8D7X,8D7W,8D7V,8D7U,8CVP,9DQD,8UH6,6BOY,6BNB,6BN9,6BN8,6BN7,6XK9,6UML,5V3O,5HXB,7U8F,8OJH,8OIZ,7LPS,4TZ4,9DJX,9DJT,8U17,8U16,8U15,8TZX,8DEY,9CUO,4M91

> <UniProt (SwissProt) Recommended Name of Target Chain>
Protein cereblon

> <UniProt (SwissProt) Entry Name of Target Chain>
CRBN_HUMAN

> <UniProt (SwissProt) Primary ID of Target Chain>
Q96SW2

> <UniProt (SwissProt) Secondary ID(s) of Target Chain>
B2R6H4 C9IZA9 C9JAH6 Q6AI62 Q6NVZ0 Q9UHW4

> <UniProt (SwissProt) Alternative ID(s) of Target Chain>


> <UniProt (TrEMBL) Submitted Name of Target Chain>


> <UniProt (TrEMBL) Entry Name of Target Chain>


> <UniProt (TrEMBL) Primary ID of Target Chain>


> <UniProt (TrEMBL) Secondary ID(s) of Target Chain>


> <UniProt (TrEMBL) Alternative ID(s) of Target Chain>


$$$$
 
     RDKit          2D

 54 61  0  0  0  0  0  0  0  0999 V2000
   10.7339  -16.2570    0.0000 C   0  0  0  0  0  0  0  0  0  0  0  0
   11.8815  -15.0974    0.0000 C   0  0  0  0  0  0  0  0  0  0  0  0
   11.0866  -14.8905    0.0000 C   0  0  0  0  0  0  0  0  0  0  0  0
   10.5148  -15.4714    0.0000 C   0  0  0  0  0  0  0  0  0  0  0  0
   12.0960  -15.8868    0.0000 C   0  0  0  0  0  0  0  0  0  0  0  0
   11.5211  -16.4637    0.0000 C   0  0  0  0  0  0  0  0  0  0  0  0
   11.8920  -17.1889    0.0000 C   0  0  0  0  0  0  0  0  0  0  0  0
   12.6964  -17.0601    0.0000 N   0  0  0  0  0  0  0  0  0  0  0  0
   12.8223  -16.2554    0.0000 C   0  0  0  0  0  0  0  0  0  0  0  0
   13.5498  -15.8832    0.0000 O   0  0  0  0  0  0  0  0  0  0  0  0
   13.2734  -17.6350    0.0000 C   0  0  0  0  0  0  0  0  0  0  0  0
   13.0611  -18.4251    0.0000 C   0  0  0  0  0  0  0  0  0  0  0  0
   13.6361  -19.0008    0.0000 C   0  0  0  0  0  0  0  0  0  0  0  0
   14.4265  -18.7920    0.0000 C   0  0  0  0  0  0  0  0  0  0  0  0
   14.6388  -18.0018    0.0000 N   0  0  0  0  0  0  0  0  0  0  0  0
   14.0606  -17.4206    0.0000 C   0  0  0  0  0  0  0  0  0  0  0  0
   14.2716  -16.6311    0.0000 O   0  0  0  0  0  0  0  0  0  0  0  0
   15.0031  -19.3710    0.0000 O   0  0  0  0  0  0  0  0  0  0  0  0
    7.0039  -19.8437    0.0000 C   0  0  0  0  0  0  0  0  0  0  0  0
    7.2144  -20.6320    0.0000 C   0  0  0  0  0  0  0  0  0  0  0  0
    7.9980  -20.8427    0.0000 C   0  0  0  0  0  0  0  0  0  0  0  0
    8.5766  -20.2683    0.0000 C   0  0  0  0  0  0  0  0  0  0  0  0
    8.3661  -19.4800    0.0000 C   0  0  0  0  0  0  0  0  0  0  0  0
    7.5770  -19.2661    0.0000 C   0  0  0  0  0  0  0  0  0  0  0  0
    6.2158  -20.0613    0.0000 C   0  0  0  0  0  0  0  0  0  0  0  0
    7.0437  -19.0306    0.0000 N   0  0  0  0  0  0  0  0  0  0  0  0
    6.2797  -18.7409    0.0000 C   0  0  0  0  0  0  0  0  0  0  0  0
    5.7682  -19.3779    0.0000 C   0  0  0  0  0  0  0  0  0  0  0  0
    4.0226  -20.3224    0.0000 C   0  0  0  0  0  0  0  0  0  0  0  0
    4.0215  -21.1420    0.0000 C   0  0  0  0  0  0  0  0  0  0  0  0
    4.7295  -21.5509    0.0000 C   0  0  0  0  0  0  0  0  0  0  0  0
    4.7277  -19.9136    0.0000 C   0  0  0  0  0  0  0  0  0  0  0  0
    5.4364  -20.3188    0.0000 C   0  0  0  0  0  0  0  0  0  0  0  0
    5.4412  -21.1374    0.0000 C   0  0  0  0  0  0  0  0  0  0  0  0
    6.2212  -21.3859    0.0000 N   0  0  0  0  0  0  0  0  0  0  0  0
    6.6985  -20.7208    0.0000 C   0  0  0  0  0  0  0  0  0  0  0  0
    3.3135  -21.5500    0.0000 Cl  0  0  0  0  0  0  0  0  0  0  0  0
    7.4042  -21.1273    0.0000 O   0  0  0  0  0  0  0  0  0  0  0  0
    6.0650  -17.9524    0.0000 C   0  0  0  0  0  0  0  0  0  0  0  0
    6.6405  -17.3722    0.0000 N   0  0  0  0  0  0  0  0  0  0  0  0
    5.2748  -17.7441    0.0000 O   0  0  0  0  0  0  0  0  0  0  0  0
    4.9733  -19.1627    0.0000 C   0  0  0  0  0  0  0  0  0  0  0  0
    4.7646  -18.3650    0.0000 C   0  0  0  0  0  0  0  0  0  0  0  0
    3.9706  -18.1497    0.0000 C   0  0  0  0  0  0  0  0  0  0  0  0
    3.3859  -18.7308    0.0000 C   0  0  0  0  0  0  0  0  0  0  0  0
    3.6006  -19.5302    0.0000 C   0  0  0  0  0  0  0  0  0  0  0  0
    4.3943  -19.7418    0.0000 C   0  0  0  0  0  0  0  0  0  0  0  0
    4.7587  -17.5448    0.0000 F   0  0  0  0  0  0  0  0  0  0  0  0
    3.7615  -17.3597    0.0000 Cl  0  0  0  0  0  0  0  0  0  0  0  0
    7.4307  -17.5805    0.0000 C   0  0  0  0  0  0  0  0  0  0  0  0
    8.0062  -17.0003    0.0000 C   0  0  0  0  0  0  0  0  0  0  0  0
    8.7964  -17.2086    0.0000 C   0  0  0  0  0  0  0  0  0  0  0  0
    9.3719  -16.6285    0.0000 C   0  0  0  0  0  0  0  0  0  0  0  0
   10.1621  -16.8368    0.0000 C   0  0  0  0  0  0  0  0  0  0  0  0
  1  6  2  0
  5  2  2  0
  2  3  1  0
  3  4  2  0
  4  1  1  0
  5  6  1  0
  6  7  1  0
  7  8  1  0
  8  9  1  0
  9  5  1  0
  9 10  2  0
 11 12  1  0
 11 16  1  0
 12 13  1  0
 13 14  1  0
 14 15  1  0
 15 16  1  0
  8 11  1  0
 16 17  2  0
 14 18  2  0
 19 20  1  0
 19 24  1  0
 20 21  1  0
 21 22  1  0
 22 23  1  0
 23 24  1  0
 25 19  1  0
 19 26  1  0
 26 27  1  0
 27 28  1  0
 28 25  1  0
 29 30  2  0
 30 31  1  0
 31 34  2  0
 33 32  2  0
 32 29  1  0
 33 34  1  0
 34 35  1  0
 35 36  1  0
 25 36  1  1
 25 33  1  0
 30 37  1  0
 36 38  2  0
 27 39  1  6
 39 40  1  0
 39 41  2  0
 28 42  1  1
 42 43  2  0
 43 44  1  0
 44 45  2  0
 45 46  1  0
 46 47  2  0
 47 42  1  0
 43 48  1  0
 44 49  1  0
 40 50  1  0
 50 51  1  0
 51 52  1  0
 52 53  1  0
 53 54  1  0
 54  1  1  0
M  END
> <From>
www.bindingDB.org

> <BindingDB Reactant_set_id>
51235039

> <Ligand InChI>
InChI=1S/C41H42Cl2FN5O5/c42-24-14-15-28-30(21-24)46-39(54)41(28)33(26-12-8-13-29(43)34(26)44)35(48-40(41)18-4-2-5-19-40)37(52)45-20-6-1-3-9-23-10-7-11-25-27(23)22-49(38(25)53)31-16-17-32(50)47-36(31)51/h7-8,10-15,21,31,33,35,48H,1-6,9,16-20,22H2,(H,45,52)(H,46,54)(H,47,50,51)/t31?,33-,35+,41+/m0/s1

> <Ligand InChI Key>
BANRYGZZIMCKNA-OYGJEQPESA-N

> <BindingDB MonomerID>
50505628

> <BindingDB Ligand Name>
CHEMBL4449512

> <Target Name>
Protein cereblon

> <Target Source Organism According to Curator or DataSource>
Human

> <Ki (nM)>


> <IC50 (nM)>
 32

> <Kd (nM)>


> <EC50 (nM)>


> <kon (M-1-s-1)>


> <koff (s-1)>


> <pH>


> <Temp C>


> <Curation/DataSource>
ChEMBL

> <Article DOI>
10.1021/acs.jmedchem.9b00846

> <BindingDB Entry DOI>
10.7270/Q20C5026

> <PMID>
31560543

> <PubChem AID>


> <Patent Number>


> <Authors>
Yang, J; Li, Y; Aguilar, A; Liu, Z; Yang, CY; Wang, S

> <Date of publication>
11/14/2019

> <Date in BindingDB>
2/18/2021

> <Institution>
TBA

> <Link to Ligand in BindingDB>
http://www.bindingdb.org/bind/chemsearch/marvin/MolStructure.jsp?monomerid=50505628

> <Link to Ligand-Target Pair in BindingDB>
http://www.bindingdb.org/jsp/dbsearch/PrimarySearch_ki.jsp?energyterm=kJ/mole&tag=pol&polymerid=50007050&target=Protein+cereblon&column=ki&startPg=0&Increment=50&submit=Search

> <Link to Ligand-Target Pair in BindingDB>
http://www.bindingdb.org/jsp/dbsearch/PrimarySearch_ki.jsp?energyterm=kJ/mole&tag=r21&monomerid=50505628&enzyme=Protein+cereblon&column=ki&startPg=0&Increment=50&submit=Search

> <Ligand HET ID in PDB>


> <PDB ID(s) for Ligand-Target Complex>


> <PubChem CID of Ligand>
139600332

> <PubChem SID of Ligand>
440714213

> <ChEBI ID of Ligand>


> <ChEMBL ID of Ligand>


> <DrugBank ID of Ligand>


> <IUPHAR_GRAC ID of Ligand>


> <KEGG ID of Ligand>


> <ZINC ID of Ligand>


> <Number of Protein Chains in Target (bigger than 1 implies a multichain complex)>
1

> <BindingDB Target Chain Sequence>
MAGEGDQQDAAHNMGNHLPLLPAESEEEDEMEVEDQDSKEAKKPNIINFDTSLPTSHTYLGADMEEFHGRTLHDDDSCQVIPVLPQVMMILIPGQTLPLQLFHPQEVSMVRNLIQKDRTFAVLAYSNVQEREAQFGTTAEIYAYREEQDFGIEIVKVKAIGRQRFKVLELRTQSDGIQQAKVQILPECVLPSTMSAVQLESLNKCQIFPSKPVSREDQCSYKWWQKYQKRKFHCANLTSWPRWLYSLYDAETLMDRIKKQLREWDENLKDDSLPSNPIDFSYRVAACLPIDDVLRIQLLKIGSAIQRLRCELDIMNKCTSLCCKQCQETEITTKNEIFSLSLCGPMAAYVNPHGYVHETLTVYKACNLNLIGRPSTEHSWFPGYAWTVAQCKICASHIGWKFTATKKDMSPQKFWGLTRSALLPTIPDTEDEISPDKVILCL

> <PDB ID(s) of Target Chain>
4TZ4,5HXB,5V3O,6UML,6XK9,7LPS,7U8F,8CVP,8D7U,8D7V,8D7W,8D7X,8D7Y,8D7Z,8D80,8D81,8DEY,8OIZ,8OJH

> <UniProt (SwissProt) Recommended Name of Target Chain>
Protein cereblon

> <UniProt (SwissProt) Entry Name of Target Chain>
CRBN_HUMAN

> <UniProt (SwissProt) Primary ID of Target Chain>
Q96SW2

> <UniProt (SwissProt) Secondary ID(s) of Target Chain>
B2R6H4 C9IZA9 C9JAH6 Q6AI62 Q6NVZ0 Q9UHW4

> <UniProt (SwissProt) Alternative ID(s) of Target Chain>


> <UniProt (TrEMBL) Submitted Name of Target Chain>


> <UniProt (TrEMBL) Entry Name of Target Chain>


> <UniProt (TrEMBL) Primary ID of Target Chain>


> <UniProt (TrEMBL) Secondary ID(s) of Target Chain>


> <UniProt (TrEMBL) Alternative ID(s) of Target Chain>


$$$$
 
     RDKit          2D

 59 66  0  0  0  0  0  0  0  0999 V2000
    5.5108   -1.1108    0.0000 C   0  0  0  0  0  0  0  0  0  0  0  0
    5.4894   -1.9355    0.0000 C   0  0  0  0  0  0  0  0  0  0  0  0
    4.7645   -2.3294    0.0000 C   0  0  0  0  0  0  0  0  0  0  0  0
    4.0609   -1.8985    0.0000 C   0  0  0  0  0  0  0  0  0  0  0  0
    4.0823   -1.0738    0.0000 C   0  0  0  0  0  0  0  0  0  0  0  0
    3.3787   -0.6430    0.0000 C   0  0  0  0  0  0  0  0  0  0  0  0
    2.6538   -1.0368    0.0000 C   0  0  0  0  0  0  0  0  0  0  0  0
    1.9503   -0.6059    0.0000 N   0  0  0  0  0  0  0  0  0  0  0  0
    1.2254   -0.9998    0.0000 C   0  0  0  0  0  0  0  0  0  0  0  0
    0.5218   -0.5689    0.0000 C   0  0  0  0  0  0  0  0  0  0  0  0
   -0.2030   -0.9629    0.0000 C   0  0  0  0  0  0  0  0  0  0  0  0
   -0.9066   -0.5320    0.0000 C   0  0  0  0  0  0  0  0  0  0  0  0
   -1.6315   -0.9259    0.0000 C   0  0  0  0  0  0  0  0  0  0  0  0
   -2.3350   -0.4950    0.0000 C   0  0  0  0  0  0  0  0  0  0  0  0
   -3.0598   -0.8888    0.0000 N   0  0  0  0  0  0  0  0  0  0  0  0
   -3.7635   -0.4580    0.0000 C   0  0  0  0  0  0  0  0  0  0  0  0
   -4.4884   -0.8519    0.0000 C   0  0  0  0  0  0  0  0  0  0  0  0
   -5.1920   -0.4210    0.0000 C   0  0  0  0  0  0  0  0  0  0  0  0
   -5.8854   -0.8679    0.0000 N   0  0  0  0  0  0  0  0  0  0  0  0
   -6.6672   -0.6044    0.0000 C   0  0  0  0  0  0  0  0  0  0  0  0
   -7.2438   -1.1944    0.0000 C   0  0  0  0  0  0  0  0  0  0  0  0
   -8.0431   -0.9901    0.0000 C   0  0  0  0  0  0  0  0  0  0  0  0
   -8.6197   -1.5801    0.0000 C   0  0  0  0  0  0  0  0  0  0  0  0
   -8.3970   -2.3745    0.0000 C   0  0  0  0  0  0  0  0  0  0  0  0
   -8.9736   -2.9646    0.0000 Cl  0  0  0  0  0  0  0  0  0  0  0  0
   -7.5977   -2.5789    0.0000 C   0  0  0  0  0  0  0  0  0  0  0  0
   -7.0211   -1.9888    0.0000 C   0  0  0  0  0  0  0  0  0  0  0  0
   -6.9486    0.1710    0.0000 C   0  0  0  0  0  0  0  0  0  0  0  0
   -7.7509    0.3633    0.0000 C   0  0  0  0  0  0  0  0  0  0  0  0
   -8.3781   -0.1724    0.0000 C   0  0  0  0  0  0  0  0  0  0  0  0
   -7.8159    1.1858    0.0000 C   0  0  0  0  0  0  0  0  0  0  0  0
   -8.5193    1.6166    0.0000 C   0  0  0  0  0  0  0  0  0  0  0  0
   -7.0538    1.5018    0.0000 S   0  0  0  0  0  0  0  0  0  0  0  0
   -6.5178    0.8746    0.0000 C   0  0  0  0  0  0  0  0  0  0  0  0
   -5.6990    0.9764    0.0000 N   0  0  0  0  0  0  0  0  0  0  0  0
   -5.3331    1.7157    0.0000 C   0  0  0  0  0  0  0  0  0  0  0  0
   -5.7160    2.4464    0.0000 C   0  0  0  0  0  0  0  0  0  0  0  0
   -4.5167    1.5960    0.0000 N   0  0  0  0  0  0  0  0  0  0  0  0
   -4.3783    0.7826    0.0000 N   0  0  0  0  0  0  0  0  0  0  0  0
   -5.1090    0.3997    0.0000 C   0  0  0  0  0  0  0  0  0  0  0  0
   -3.7421    0.3666    0.0000 O   0  0  0  0  0  0  0  0  0  0  0  0
    2.6325   -1.8616    0.0000 C   0  0  0  0  0  0  0  0  0  0  0  0
    3.3360   -2.2924    0.0000 C   0  0  0  0  0  0  0  0  0  0  0  0
    6.1929   -2.3664    0.0000 C   0  0  0  0  0  0  0  0  0  0  0  0
    6.9178   -1.9725    0.0000 C   0  0  0  0  0  0  0  0  0  0  0  0
    6.9392   -1.1477    0.0000 C   0  0  0  0  0  0  0  0  0  0  0  0
    7.5663   -0.6117    0.0000 C   0  0  0  0  0  0  0  0  0  0  0  0
    7.2504    0.1503    0.0000 N   0  0  0  0  0  0  0  0  0  0  0  0
    7.6812    0.8538    0.0000 C   0  0  0  0  0  0  0  0  0  0  0  0
    8.5059    0.8325    0.0000 C   0  0  0  0  0  0  0  0  0  0  0  0
    8.8998    0.1077    0.0000 O   0  0  0  0  0  0  0  0  0  0  0  0
    8.9367    1.5361    0.0000 N   0  0  0  0  0  0  0  0  0  0  0  0
    8.5428    2.2610    0.0000 C   0  0  0  0  0  0  0  0  0  0  0  0
    8.9736    2.9646    0.0000 O   0  0  0  0  0  0  0  0  0  0  0  0
    7.7182    2.2823    0.0000 C   0  0  0  0  0  0  0  0  0  0  0  0
    7.2873    1.5788    0.0000 C   0  0  0  0  0  0  0  0  0  0  0  0
    6.4280    0.0853    0.0000 C   0  0  0  0  0  0  0  0  0  0  0  0
    5.8919    0.7125    0.0000 O   0  0  0  0  0  0  0  0  0  0  0  0
    6.2356   -0.7169    0.0000 C   0  0  0  0  0  0  0  0  0  0  0  0
  1  2  1  0
  3  2  1  0
  4  3  1  0
  4  5  2  0
  5  6  1  0
  6  7  2  0
  7  8  1  0
  9  8  1  0
 10  9  1  0
 11 10  1  0
 12 11  1  0
 13 12  1  0
 14 13  1  0
 15 14  1  0
 16 15  1  0
 16 17  1  0
 18 17  1  6
 18 19  1  0
 19 20  2  0
 20 21  1  0
 21 22  1  0
 22 23  2  0
 23 24  1  0
 24 25  1  0
 24 26  2  0
 26 27  1  0
 27 21  2  0
 20 28  1  0
 28 29  1  0
 29 30  1  0
 29 31  2  0
 31 32  1  0
 31 33  1  0
 34 33  1  0
 28 34  2  0
 35 34  1  0
 35 36  1  0
 36 37  1  0
 36 38  2  0
 38 39  1  0
 40 39  2  0
 40 35  1  0
 40 18  1  0
 16 41  2  0
  7 42  1  0
 43  4  1  0
 42 43  2  0
  2 44  2  0
 44 45  1  0
 45 46  2  0
 46 47  1  0
 48 47  1  0
 48 49  1  0
 49 50  1  0
 50 51  2  0
 50 52  1  0
 52 53  1  0
 53 54  2  0
 53 55  1  0
 55 56  1  0
 56 49  1  0
 57 48  1  0
 57 58  2  0
 59 57  1  0
 46 59  1  0
 59  1  2  0
M  END
> <From>
www.bindingDB.org

> <BindingDB Reactant_set_id>
51570544

> <Ligand InChI>
InChI=1S/C45H47ClN8O4S/c1-26-27(2)59-45-40(26)41(31-12-14-33(46)15-13-31)49-36(42-52-51-28(3)54(42)45)24-39(56)48-21-7-5-4-6-20-47-34-16-9-29(10-17-34)22-30-8-11-32-25-53(44(58)35(32)23-30)37-18-19-38(55)50-43(37)57/h8-17,23,36-37,47H,4-7,18-22,24-25H2,1-3H3,(H,48,56)(H,50,55,57)/t36-,37?/m0/s1

> <Ligand InChI Key>
JCFHQNJZGSNYNS-NWDJCJOJSA-N

> <BindingDB MonomerID>
50631633

> <BindingDB Ligand Name>
CHEMBL5395213

> <Target Name>
Protein cereblon

> <Target Source Organism According to Curator or DataSource>
Homo sapiens

> <Ki (nM)>


> <IC50 (nM)>
 32

> <Kd (nM)>


> <EC50 (nM)>


> <kon (M-1-s-1)>


> <koff (s-1)>


> <pH>


> <Temp C>


> <Curation/DataSource>
ChEMBL

> <Article DOI>
10.1021/acs.jmedchem.3c01613

> <BindingDB Entry DOI>
10.7270/Q2T1583Z

> <PMID>
38096359

> <PubChem AID>


> <Patent Number>


> <Authors>
Arndt, CM; Bitai, J; Brunner, J; Opatz, T; Martinelli, P; Gollner, A; Sokol, KR; Krumb, M

> <Date of publication>
12/28/2023

> <Date in BindingDB>
12/21/2024

> <Institution>
Boehringer Ingelheim Rcv

> <Link to Ligand in BindingDB>
http://www.bindingdb.org/bind/chemsearch/marvin/MolStructure.jsp?monomerid=50631633

> <Link to Ligand-Target Pair in BindingDB>
http://www.bindingdb.org/jsp/dbsearch/PrimarySearch_ki.jsp?energyterm=kJ/mole&tag=pol&polymerid=50007050&target=Protein+cereblon&column=ki&startPg=0&Increment=50&submit=Search

> <Link to Ligand-Target Pair in BindingDB>
http://www.bindingdb.org/jsp/dbsearch/PrimarySearch_ki.jsp?energyterm=kJ/mole&tag=r21&monomerid=50631633&enzyme=Protein+cereblon&column=ki&startPg=0&Increment=50&submit=Search

> <Ligand HET ID in PDB>


> <PDB ID(s) for Ligand-Target Complex>


> <PubChem CID of Ligand>
172443760

> <PubChem SID of Ligand>
505035967

> <ChEBI ID of Ligand>


> <ChEMBL ID of Ligand>


> <DrugBank ID of Ligand>


> <IUPHAR_GRAC ID of Ligand>


> <KEGG ID of Ligand>


> <ZINC ID of Ligand>


> <Number of Protein Chains in Target (bigger than 1 implies a multichain complex)>
1

> <BindingDB Target Chain Sequence>
MAGEGDQQDAAHNMGNHLPLLPAESEEEDEMEVEDQDSKEAKKPNIINFDTSLPTSHTYLGADMEEFHGRTLHDDDSCQVIPVLPQVMMILIPGQTLPLQLFHPQEVSMVRNLIQKDRTFAVLAYSNVQEREAQFGTTAEIYAYREEQDFGIEIVKVKAIGRQRFKVLELRTQSDGIQQAKVQILPECVLPSTMSAVQLESLNKCQIFPSKPVSREDQCSYKWWQKYQKRKFHCANLTSWPRWLYSLYDAETLMDRIKKQLREWDENLKDDSLPSNPIDFSYRVAACLPIDDVLRIQLLKIGSAIQRLRCELDIMNKCTSLCCKQCQETEITTKNEIFSLSLCGPMAAYVNPHGYVHETLTVYKACNLNLIGRPSTEHSWFPGYAWTVAQCKICASHIGWKFTATKKDMSPQKFWGLTRSALLPTIPDTEDEISPDKVILCL

> <PDB ID(s) of Target Chain>
8TNR,8TNQ,8TNP,8D81,8D80,8D7Z,8D7Y,8D7X,8D7W,8D7V,8D7U,8CVP,9DQD,8UH6,6BOY,6BNB,6BN9,6BN8,6BN7,6XK9,6UML,5V3O,5HXB,7U8F,8OJH,8OIZ,7LPS,4TZ4,9DJX,9DJT,8U17,8U16,8U15,8TZX,8DEY,9CUO,4M91

> <UniProt (SwissProt) Recommended Name of Target Chain>
Protein cereblon

> <UniProt (SwissProt) Entry Name of Target Chain>
CRBN_HUMAN

> <UniProt (SwissProt) Primary ID of Target Chain>
Q96SW2

> <UniProt (SwissProt) Secondary ID(s) of Target Chain>
B2R6H4 C9IZA9 C9JAH6 Q6AI62 Q6NVZ0 Q9UHW4

> <UniProt (SwissProt) Alternative ID(s) of Target Chain>


> <UniProt (TrEMBL) Submitted Name of Target Chain>


> <UniProt (TrEMBL) Entry Name of Target Chain>


> <UniProt (TrEMBL) Primary ID of Target Chain>


> <UniProt (TrEMBL) Secondary ID(s) of Target Chain>


> <UniProt (TrEMBL) Alternative ID(s) of Target Chain>


$$$$

     RDKit          2D

 62 68  0  0  0  0  0  0  0  0999 V2000
   12.0000   -7.7942    0.0000 C   0  0  0  0  0  0  0  0  0  0  0  0
   10.5000   -7.7942    0.0000 N   0  0  0  0  0  0  0  0  0  0  0  0
    9.7500   -6.4952    0.0000 C   0  0  0  0  0  0  0  0  0  0  0  0
    8.2500   -6.4952    0.0000 C   0  0  0  0  0  0  0  0  0  0  0  0
    7.5000   -5.1962    0.0000 C   0  0  0  0  0  0  0  0  0  0  0  0
    6.0000   -5.1962    0.0000 O   0  0  0  0  0  0  0  0  0  0  0  0
    5.2500   -3.8971    0.0000 C   0  0  0  0  0  0  0  0  0  0  0  0
    3.7500   -3.8971    0.0000 C   0  0  0  0  0  0  0  0  0  0  0  0
    3.0000   -2.5981    0.0000 C   0  0  0  0  0  0  0  0  0  0  0  0
    1.5000   -2.5981    0.0000 N   0  0  0  0  0  0  0  0  0  0  0  0
    0.7500   -1.2990    0.0000 C   0  0  0  0  0  0  0  0  0  0  0  0
    1.5000    0.0000    0.0000 C   0  0  0  0  0  0  0  0  0  0  0  0
    0.7500    1.2990    0.0000 C   0  0  0  0  0  0  0  0  0  0  0  0
   -0.7500    1.2990    0.0000 C   0  0  0  0  0  0  0  0  0  0  0  0
   -1.5000    0.0000    0.0000 C   0  0  0  0  0  0  0  0  0  0  0  0
   -0.7500   -1.2990    0.0000 C   0  0  0  0  0  0  0  0  0  0  0  0
   -1.7537   -2.4138    0.0000 C   0  0  0  0  0  0  0  0  0  0  0  0
   -1.4418   -3.8810    0.0000 O   0  0  0  0  0  0  0  0  0  0  0  0
   -3.1240   -1.8037    0.0000 N   0  0  0  0  0  0  0  0  0  0  0  0
   -4.4231   -2.5537    0.0000 C   0  0  0  0  0  0  0  0  0  0  0  0
   -5.7221   -1.8037    0.0000 C   0  0  0  0  0  0  0  0  0  0  0  0
   -7.0211   -2.5537    0.0000 C   0  0  0  0  0  0  0  0  0  0  0  0
   -7.0211   -4.0537    0.0000 C   0  0  0  0  0  0  0  0  0  0  0  0
   -8.3202   -4.8037    0.0000 O   0  0  0  0  0  0  0  0  0  0  0  0
   -5.7221   -4.8037    0.0000 N   0  0  0  0  0  0  0  0  0  0  0  0
   -4.4231   -4.0537    0.0000 C   0  0  0  0  0  0  0  0  0  0  0  0
   -3.1240   -4.8037    0.0000 O   0  0  0  0  0  0  0  0  0  0  0  0
   -2.9672   -0.3119    0.0000 C   0  0  0  0  0  0  0  0  0  0  0  0
   -4.0819    0.6918    0.0000 O   0  0  0  0  0  0  0  0  0  0  0  0
    9.7500   -9.0933    0.0000 C   0  0  0  0  0  0  0  0  0  0  0  0
   10.5000  -10.3923    0.0000 C   0  0  0  0  0  0  0  0  0  0  0  0
    9.7500  -11.6913    0.0000 C   0  0  0  0  0  0  0  0  0  0  0  0
   10.5000  -12.9904    0.0000 C   0  0  0  0  0  0  0  0  0  0  0  0
   12.0000  -12.9904    0.0000 C   0  0  0  0  0  0  0  0  0  0  0  0
   12.7500  -14.2894    0.0000 N   0  0  0  0  0  0  0  0  0  0  0  0
   14.2418  -14.4462    0.0000 C   0  0  0  0  0  0  0  0  0  0  0  0
   14.5537  -15.9134    0.0000 C   0  0  0  0  0  0  0  0  0  0  0  0
   15.8527  -16.6634    0.0000 C   0  0  0  0  0  0  0  0  0  0  0  0
   15.8527  -18.1634    0.0000 C   0  0  0  0  0  0  0  0  0  0  0  0
   17.1517  -18.9134    0.0000 N   0  0  0  0  0  0  0  0  0  0  0  0
   18.4508  -18.1634    0.0000 C   0  0  0  0  0  0  0  0  0  0  0  0
   18.4508  -16.6634    0.0000 O   0  0  0  0  0  0  0  0  0  0  0  0
   19.7498  -18.9134    0.0000 C   0  0  0  0  0  0  0  0  0  0  0  0
   21.0488  -18.1634    0.0000 C   0  0  0  0  0  0  0  0  0  0  0  0
   22.3479  -18.9134    0.0000 C   0  0  0  0  0  0  0  0  0  0  0  0
   22.3479  -20.4134    0.0000 C   0  0  0  0  0  0  0  0  0  0  0  0
   21.0488  -21.1634    0.0000 C   0  0  0  0  0  0  0  0  0  0  0  0
   21.0488  -22.6634    0.0000 C   0  0  0  0  0  0  0  0  0  0  0  0
   21.0488  -24.1634    0.0000 F   0  0  0  0  0  0  0  0  0  0  0  0
   22.5488  -22.6634    0.0000 F   0  0  0  0  0  0  0  0  0  0  0  0
   19.5488  -22.6634    0.0000 F   0  0  0  0  0  0  0  0  0  0  0  0
   19.7498  -20.4134    0.0000 N   0  0  0  0  0  0  0  0  0  0  0  0
   14.5537  -18.9134    0.0000 C   0  0  0  0  0  0  0  0  0  0  0  0
   14.5537  -20.4134    0.0000 C   0  0  0  0  0  0  0  0  0  0  0  0
   13.0537  -20.4134    0.0000 C   0  0  0  0  0  0  0  0  0  0  0  0
   16.0537  -20.4134    0.0000 C   0  0  0  0  0  0  0  0  0  0  0  0
   14.5537  -21.9134    0.0000 O   0  0  0  0  0  0  0  0  0  0  0  0
   13.2546  -18.1634    0.0000 C   0  0  0  0  0  0  0  0  0  0  0  0
   13.2546  -16.6634    0.0000 C   0  0  0  0  0  0  0  0  0  0  0  0
   12.1399  -15.6597    0.0000 N   0  0  0  0  0  0  0  0  0  0  0  0
   12.7500  -11.6913    0.0000 C   0  0  0  0  0  0  0  0  0  0  0  0
   12.0000  -10.3923    0.0000 C   0  0  0  0  0  0  0  0  0  0  0  0
  1  2  1  0
  2  3  1  0
  3  4  1  0
  4  5  1  0
  5  6  1  0
  6  7  1  0
  7  8  1  0
  8  9  1  0
  9 10  1  0
 10 11  1  0
 11 12  2  0
 12 13  1  0
 13 14  2  0
 14 15  1  0
 15 16  2  0
 16 17  1  0
 17 18  2  0
 17 19  1  0
 19 20  1  0
 20 21  1  0
 21 22  1  0
 22 23  1  0
 23 24  2  0
 23 25  1  0
 25 26  1  0
 26 27  2  0
 19 28  1  0
 28 29  2  0
  2 30  1  0
 31 30  1  6
 31 32  1  0
 32 33  1  0
 33 34  1  0
 34 35  1  1
 35 36  1  0
 36 37  2  0
 37 38  1  0
 38 39  2  0
 39 40  1  0
 40 41  1  0
 41 42  2  0
 41 43  1  0
 43 44  2  0
 44 45  1  0
 45 46  2  0
 46 47  1  0
 47 48  1  0
 48 49  1  0
 48 50  1  0
 48 51  1  0
 47 52  2  0
 39 53  1  0
 53 54  1  0
 54 55  1  0
 54 56  1  0
 54 57  1  0
 53 58  2  0
 58 59  1  0
 59 60  2  0
 34 61  1  0
 61 62  1  0
 16 11  1  0
 26 20  1  0
 62 31  1  0
 28 15  1  0
 60 35  1  0
 59 37  1  0
 52 43  1  0
M  END
> <From>
www.bindingDB.org

> <BindingDB Reactant_set_id>
51589155

> <Ligand InChI>
InChI=1S/C44H51F3N8O7/c1-43(2,61)30-23-33-27(22-34(30)50-39(57)32-10-5-11-36(49-32)44(45,46)47)25-54(52-33)28-14-12-26(13-15-28)24-53(3)19-7-21-62-20-6-18-48-31-9-4-8-29-38(31)42(60)55(41(29)59)35-16-17-37(56)51-40(35)58/h4-5,8-11,22-23,25-26,28,35,48,61H,6-7,12-21,24H2,1-3H3,(H,50,57)(H,51,56,58)

> <Ligand InChI Key>
INCVUGCZQZUSSU-UHFFFAOYSA-N

> <BindingDB MonomerID>
50639839

> <BindingDB Ligand Name>
CHEMBL5558963

> <Target Name>
Protein cereblon

> <Target Source Organism According to Curator or DataSource>
Human

> <Ki (nM)>


> <IC50 (nM)>
 32

> <Kd (nM)>


> <EC50 (nM)>


> <kon (M-1-s-1)>


> <koff (s-1)>


> <pH>


> <Temp C>


> <Curation/DataSource>
ChEMBL

> <Article DOI>


> <BindingDB Entry DOI>
10.7270/Q23F4V8G

> <PMID>
38920289

> <PubChem AID>


> <Patent Number>


> <Authors>
Weiss, MM; Zheng, X; Ji, N; Browne, CM; Campbell, V; Chen, D; Enerson, B; Fei, X; Huang, X; Klaus, CR; Li, H; Mayo, M; McDonald, AA; Paul, A; Rong, H; Sharma, K; Shi, Y; Slavin, A; Walther, DM; Yuan, K; Zhang, Y; Zhu, X; Kelleher, J; Walker, D; Mainolfi, N

> <Date of publication>
//0

> <Date in BindingDB>
10/11/2025

> <Institution>
Kymera Therapeutics

> <Link to Ligand in BindingDB>
http://www.bindingdb.org/bind/chemsearch/marvin/MolStructure.jsp?monomerid=50639839

> <Link to Ligand-Target Pair in BindingDB>
http://www.bindingdb.org/rwd/jsp/dbsearch/PrimarySearch_ki.jsp?energyterm=kJ/mole&tag=pol&polymerid=50007050&target=Protein+cereblon&column=ki&startPg=0&Increment=50&submit=Search

> <Link to Ligand-Target Pair in BindingDB>
http://www.bindingdb.org/rwd/jsp/dbsearch/PrimarySearch_ki.jsp?energyterm=kJ/mole&tag=r21&monomerid=50639839&enzyme=Protein+cereblon&column=ki&startPg=0&Increment=50&submit=Search

> <Ligand HET ID in PDB>


> <PDB ID(s) for Ligand-Target Complex>


> <PubChem CID of Ligand>
158748051

> <PubChem SID of Ligand>
519660242

> <ChEBI ID of Ligand>


> <ChEMBL ID of Ligand>


> <DrugBank ID of Ligand>


> <IUPHAR_GRAC ID of Ligand>


> <KEGG ID of Ligand>


> <ZINC ID of Ligand>


> <Number of Protein Chains in Target (bigger than 1 implies a multichain complex)>
1

> <BindingDB Target Chain Sequence>
MAGEGDQQDAAHNMGNHLPLLPAESEEEDEMEVEDQDSKEAKKPNIINFDTSLPTSHTYLGADMEEFHGRTLHDDDSCQVIPVLPQVMMILIPGQTLPLQLFHPQEVSMVRNLIQKDRTFAVLAYSNVQEREAQFGTTAEIYAYREEQDFGIEIVKVKAIGRQRFKVLELRTQSDGIQQAKVQILPECVLPSTMSAVQLESLNKCQIFPSKPVSREDQCSYKWWQKYQKRKFHCANLTSWPRWLYSLYDAETLMDRIKKQLREWDENLKDDSLPSNPIDFSYRVAACLPIDDVLRIQLLKIGSAIQRLRCELDIMNKCTSLCCKQCQETEITTKNEIFSLSLCGPMAAYVNPHGYVHETLTVYKACNLNLIGRPSTEHSWFPGYAWTVAQCKICASHIGWKFTATKKDMSPQKFWGLTRSALLPTIPDTEDEISPDKVILCL

> <PDB ID(s) of Target Chain>
9DUR,8TNR,8TNQ,8TNP,9DWW,9DWV,9NGT,9NFR,9NFQ,8D81,8D80,8D7Z,8D7Y,8D7X,8D7W,8D7V,8D7U,8CVP,9Q2D,9Q03,9DQD,8UH6,9SAI,9SAF,9H59,9E2U,6BOY,6BNB,6BN9,6BN8,6BN7,9OUL,9Y7D,6XK9,6UML,5V3O,5HXB,9HNE,9D0X,9D0W,7U8F,9FJX,8OJH,8OIZ,7LPS,9SFM,9OTY,4TZ4,9DJX,9DJT,8U17,8U16,8U15,8TZX,8DEY,9CUO,4M91

> <UniProt (SwissProt) Recommended Name of Target Chain>
Protein cereblon

> <UniProt (SwissProt) Entry Name of Target Chain>
CRBN_HUMAN

> <UniProt (SwissProt) Primary ID of Target Chain>
Q96SW2

> <UniProt (SwissProt) Secondary ID(s) of Target Chain>
B2R6H4 C9IZA9 C9JAH6 Q6AI62 Q6NVZ0 Q9UHW4

> <UniProt (SwissProt) Alternative ID(s) of Target Chain>


> <UniProt (TrEMBL) Submitted Name of Target Chain>


> <UniProt (TrEMBL) Entry Name of Target Chain>


> <UniProt (TrEMBL) Primary ID of Target Chain>


> <UniProt (TrEMBL) Secondary ID(s) of Target Chain>


> <UniProt (TrEMBL) Alternative ID(s) of Target Chain>


$$$$
 
     RDKit          2D

 26 29  0  0  0  0  0  0  0  0999 V2000
   -1.6321    0.3565    0.0000 C   0  0  0  0  0  0  0  0  0  0  0  0
   -0.9176    0.7690    0.0000 C   0  0  0  0  0  0  0  0  0  0  0  0
   -0.2032    0.3565    0.0000 C   0  0  0  0  0  0  0  0  0  0  0  0
   -0.2032   -0.4684    0.0000 C   0  0  0  0  0  0  0  0  0  0  0  0
   -0.9176   -0.8810    0.0000 C   0  0  0  0  0  0  0  0  0  0  0  0
   -1.6321   -0.4684    0.0000 C   0  0  0  0  0  0  0  0  0  0  0  0
    0.5814   -0.7234    0.0000 C   0  0  0  0  0  0  0  0  0  0  0  0
    1.0663   -0.0560    0.0000 N   0  0  0  0  0  0  0  0  0  0  0  0
    0.5814    0.6114    0.0000 C   0  0  0  0  0  0  0  0  0  0  0  0
    0.7949    1.4081    0.0000 O   0  0  0  0  0  0  0  0  0  0  0  0
    1.8911   -0.0560    0.0000 C   0  0  0  0  0  0  0  0  0  0  0  0
    2.3035    0.6582    0.0000 C   0  0  0  0  0  0  0  0  0  0  0  0
    3.1283    0.6582    0.0000 C   0  0  0  0  0  0  0  0  0  0  0  0
    3.5406   -0.0560    0.0000 C   0  0  0  0  0  0  0  0  0  0  0  0
    3.1283   -0.7703    0.0000 N   0  0  0  0  0  0  0  0  0  0  0  0
    2.3035   -0.7703    0.0000 C   0  0  0  0  0  0  0  0  0  0  0  0
    1.8911   -1.4845    0.0000 O   0  0  0  0  0  0  0  0  0  0  0  0
    4.3655   -0.0560    0.0000 O   0  0  0  0  0  0  0  0  0  0  0  0
   -2.3464    0.7689    0.0000 S   0  0  0  0  0  0  0  0  0  0  0  0
   -3.0607    0.3565    0.0000 N   0  0  0  0  0  0  0  0  0  0  0  0
   -1.9333    1.4845    0.0000 O   0  0  0  0  0  0  0  0  0  0  0  0
   -2.7580    1.4845    0.0000 O   0  0  0  0  0  0  0  0  0  0  0  0
   -3.1468   -0.4633    0.0000 C   0  0  0  0  0  0  0  0  0  0  0  0
   -3.9532   -0.6347    0.0000 C   0  0  0  0  0  0  0  0  0  0  0  0
   -4.3655    0.0792    0.0000 N   0  0  0  0  0  0  0  0  0  0  0  0
   -3.8138    0.6918    0.0000 C   0  0  0  0  0  0  0  0  0  0  0  0
  1  2  1  0
  3  2  2  0
  4  3  1  0
  5  4  2  0
  6  5  1  0
  1  6  2  0
  4  7  1  0
  8  7  1  0
  9  8  1  0
  3  9  1  0
  9 10  2  0
  8 11  1  0
 12 11  1  0
 13 12  1  0
 14 13  1  0
 15 14  1  0
 16 15  1  0
 11 16  1  0
 16 17  2  0
 14 18  2  0
  1 19  1  0
 19 20  1  0
 19 21  2  0
 19 22  2  0
 23 20  1  0
 23 24  2  0
 24 25  1  0
 25 26  2  0
 26 20  1  0
M  END
> <From>
www.bindingDB.org

> <BindingDB Reactant_set_id>
51568398

> <Ligand InChI>
InChI=1S/C16H14N4O5S/c21-14-4-3-13(15(22)18-14)20-8-10-1-2-11(7-12(10)16(20)23)26(24,25)19-6-5-17-9-19/h1-2,5-7,9,13H,3-4,8H2,(H,18,21,22)

> <Ligand InChI Key>
TXGIWHWNJZVUAC-UHFFFAOYSA-N

> <BindingDB MonomerID>
50630771

> <BindingDB Ligand Name>
CHEMBL5439475

> <Target Name>
Protein cereblon

> <Target Source Organism According to Curator or DataSource>
Homo sapiens

> <Ki (nM)>


> <IC50 (nM)>
 42

> <Kd (nM)>


> <EC50 (nM)>


> <kon (M-1-s-1)>


> <koff (s-1)>


> <pH>


> <Temp C>


> <Curation/DataSource>
ChEMBL

> <Article DOI>
10.1021/acsmedchemlett.3c00371

> <BindingDB Entry DOI>
10.7270/Q28D01RH

> <PMID>
37974938

> <PubChem AID>


> <Patent Number>


> <Authors>
Cruite, JT; Nowak, RP; Donovan, KA; Ficarro, SB; Huang, H; Liu, H; Liu, Y; Marto, JA; Metivier, RJ; Fischer, ES; Jones, LH

> <Date of publication>
11/9/2023

> <Date in BindingDB>
12/20/2024

> <Institution>
Dana-Farber Cancer Institute

> <Link to Ligand in BindingDB>
http://www.bindingdb.org/bind/chemsearch/marvin/MolStructure.jsp?monomerid=50630771

> <Link to Ligand-Target Pair in BindingDB>
http://www.bindingdb.org/jsp/dbsearch/PrimarySearch_ki.jsp?energyterm=kJ/mole&tag=pol&polymerid=50007050&target=Protein+cereblon&column=ki&startPg=0&Increment=50&submit=Search

> <Link to Ligand-Target Pair in BindingDB>
http://www.bindingdb.org/jsp/dbsearch/PrimarySearch_ki.jsp?energyterm=kJ/mole&tag=r21&monomerid=50630771&enzyme=Protein+cereblon&column=ki&startPg=0&Increment=50&submit=Search

> <Ligand HET ID in PDB>


> <PDB ID(s) for Ligand-Target Complex>


> <PubChem CID of Ligand>
171378827

> <PubChem SID of Ligand>
505048742

> <ChEBI ID of Ligand>


> <ChEMBL ID of Ligand>


> <DrugBank ID of Ligand>


> <IUPHAR_GRAC ID of Ligand>


> <KEGG ID of Ligand>


> <ZINC ID of Ligand>


> <Number of Protein Chains in Target (bigger than 1 implies a multichain complex)>
1

> <BindingDB Target Chain Sequence>
MAGEGDQQDAAHNMGNHLPLLPAESEEEDEMEVEDQDSKEAKKPNIINFDTSLPTSHTYLGADMEEFHGRTLHDDDSCQVIPVLPQVMMILIPGQTLPLQLFHPQEVSMVRNLIQKDRTFAVLAYSNVQEREAQFGTTAEIYAYREEQDFGIEIVKVKAIGRQRFKVLELRTQSDGIQQAKVQILPECVLPSTMSAVQLESLNKCQIFPSKPVSREDQCSYKWWQKYQKRKFHCANLTSWPRWLYSLYDAETLMDRIKKQLREWDENLKDDSLPSNPIDFSYRVAACLPIDDVLRIQLLKIGSAIQRLRCELDIMNKCTSLCCKQCQETEITTKNEIFSLSLCGPMAAYVNPHGYVHETLTVYKACNLNLIGRPSTEHSWFPGYAWTVAQCKICASHIGWKFTATKKDMSPQKFWGLTRSALLPTIPDTEDEISPDKVILCL

> <PDB ID(s) of Target Chain>
8TNR,8TNQ,8TNP,8D81,8D80,8D7Z,8D7Y,8D7X,8D7W,8D7V,8D7U,8CVP,9DQD,8UH6,6BOY,6BNB,6BN9,6BN8,6BN7,6XK9,6UML,5V3O,5HXB,7U8F,8OJH,8OIZ,7LPS,4TZ4,9DJX,9DJT,8U17,8U16,8U15,8TZX,8DEY,9CUO,4M91

> <UniProt (SwissProt) Recommended Name of Target Chain>
Protein cereblon

> <UniProt (SwissProt) Entry Name of Target Chain>
CRBN_HUMAN

> <UniProt (SwissProt) Primary ID of Target Chain>
Q96SW2

> <UniProt (SwissProt) Secondary ID(s) of Target Chain>
B2R6H4 C9IZA9 C9JAH6 Q6AI62 Q6NVZ0 Q9UHW4

> <UniProt (SwissProt) Alternative ID(s) of Target Chain>


> <UniProt (TrEMBL) Submitted Name of Target Chain>


> <UniProt (TrEMBL) Entry Name of Target Chain>


> <UniProt (TrEMBL) Primary ID of Target Chain>


> <UniProt (TrEMBL) Secondary ID(s) of Target Chain>


> <UniProt (TrEMBL) Alternative ID(s) of Target Chain>


$$$$
 
     RDKit          2D

 30 33  0  0  0  0  0  0  0  0999 V2000
   -1.2196    0.6459    0.0000 C   0  0  0  0  0  0  0  0  0  0  0  0
   -0.5051    1.0584    0.0000 C   0  0  0  0  0  0  0  0  0  0  0  0
    0.2092    0.6459    0.0000 C   0  0  0  0  0  0  0  0  0  0  0  0
    0.2092   -0.1791    0.0000 C   0  0  0  0  0  0  0  0  0  0  0  0
   -0.5051   -0.5917    0.0000 C   0  0  0  0  0  0  0  0  0  0  0  0
   -1.2196   -0.1791    0.0000 C   0  0  0  0  0  0  0  0  0  0  0  0
    0.9938   -0.4341    0.0000 C   0  0  0  0  0  0  0  0  0  0  0  0
    1.4788    0.2332    0.0000 N   0  0  0  0  0  0  0  0  0  0  0  0
    0.9939    0.9008    0.0000 C   0  0  0  0  0  0  0  0  0  0  0  0
    1.2074    1.6975    0.0000 O   0  0  0  0  0  0  0  0  0  0  0  0
    2.3036    0.2332    0.0000 C   0  0  0  0  0  0  0  0  0  0  0  0
    2.7160    0.9475    0.0000 C   0  0  0  0  0  0  0  0  0  0  0  0
    3.5408    0.9475    0.0000 C   0  0  0  0  0  0  0  0  0  0  0  0
    3.9531    0.2332    0.0000 C   0  0  0  0  0  0  0  0  0  0  0  0
    3.5408   -0.4809    0.0000 N   0  0  0  0  0  0  0  0  0  0  0  0
    2.7160   -0.4809    0.0000 C   0  0  0  0  0  0  0  0  0  0  0  0
    2.3036   -1.1952    0.0000 O   0  0  0  0  0  0  0  0  0  0  0  0
    4.7780    0.2332    0.0000 O   0  0  0  0  0  0  0  0  0  0  0  0
   -1.9340    1.0582    0.0000 S   0  0  0  0  0  0  0  0  0  0  0  0
   -2.6482    0.6459    0.0000 N   0  0  0  0  0  0  0  0  0  0  0  0
   -1.5208    1.7739    0.0000 O   0  0  0  0  0  0  0  0  0  0  0  0
   -2.3455    1.7739    0.0000 O   0  0  0  0  0  0  0  0  0  0  0  0
   -2.7343   -0.1739    0.0000 C   0  0  0  0  0  0  0  0  0  0  0  0
   -3.5408   -0.3453    0.0000 C   0  0  0  0  0  0  0  0  0  0  0  0
   -3.9530    0.3685    0.0000 C   0  0  0  0  0  0  0  0  0  0  0  0
   -3.4013    0.9812    0.0000 N   0  0  0  0  0  0  0  0  0  0  0  0
   -3.9532   -1.0596    0.0000 C   0  0  0  0  0  0  0  0  0  0  0  0
   -3.5408   -1.7739    0.0000 F   0  0  0  0  0  0  0  0  0  0  0  0
   -4.7780   -1.0596    0.0000 F   0  0  0  0  0  0  0  0  0  0  0  0
   -4.3656   -1.7739    0.0000 F   0  0  0  0  0  0  0  0  0  0  0  0
  1  2  1  0
  3  2  2  0
  4  3  1  0
  5  4  2  0
  6  5  1  0
  1  6  2  0
  4  7  1  0
  8  7  1  0
  9  8  1  0
  3  9  1  0
  9 10  2  0
  8 11  1  0
 12 11  1  0
 13 12  1  0
 14 13  1  0
 15 14  1  0
 16 15  1  0
 11 16  1  0
 16 17  2  0
 14 18  2  0
  1 19  1  0
 19 20  1  0
 19 21  2  0
 19 22  2  0
 23 20  1  0
 23 24  2  0
 24 25  1  0
 25 26  2  0
 26 20  1  0
 24 27  1  0
 27 28  1  0
 27 29  1  0
 27 30  1  0
M  END
> <From>
www.bindingDB.org

> <BindingDB Reactant_set_id>
51568406

> <Ligand InChI>
InChI=1S/C17H13F3N4O5S/c18-17(19,20)10-6-21-24(8-10)30(28,29)11-2-1-9-7-23(16(27)12(9)5-11)13-3-4-14(25)22-15(13)26/h1-2,5-6,8,13H,3-4,7H2,(H,22,25,26)

> <Ligand InChI Key>
OAYGGDVUNUDPEI-UHFFFAOYSA-N

> <BindingDB MonomerID>
50630779

> <BindingDB Ligand Name>
CHEMBL5430120

> <Target Name>
Protein cereblon

> <Target Source Organism According to Curator or DataSource>
Homo sapiens

> <Ki (nM)>


> <IC50 (nM)>
 44

> <Kd (nM)>


> <EC50 (nM)>


> <kon (M-1-s-1)>


> <koff (s-1)>


> <pH>


> <Temp C>


> <Curation/DataSource>
ChEMBL

> <Article DOI>
10.1021/acsmedchemlett.3c00371

> <BindingDB Entry DOI>
10.7270/Q28D01RH

> <PMID>
37974938

> <PubChem AID>


> <Patent Number>


> <Authors>
Cruite, JT; Nowak, RP; Donovan, KA; Ficarro, SB; Huang, H; Liu, H; Liu, Y; Marto, JA; Metivier, RJ; Fischer, ES; Jones, LH

> <Date of publication>
11/9/2023

> <Date in BindingDB>
12/20/2024

> <Institution>
Dana-Farber Cancer Institute

> <Link to Ligand in BindingDB>
http://www.bindingdb.org/bind/chemsearch/marvin/MolStructure.jsp?monomerid=50630779

> <Link to Ligand-Target Pair in BindingDB>
http://www.bindingdb.org/jsp/dbsearch/PrimarySearch_ki.jsp?energyterm=kJ/mole&tag=pol&polymerid=50007050&target=Protein+cereblon&column=ki&startPg=0&Increment=50&submit=Search

> <Link to Ligand-Target Pair in BindingDB>
http://www.bindingdb.org/jsp/dbsearch/PrimarySearch_ki.jsp?energyterm=kJ/mole&tag=r21&monomerid=50630779&enzyme=Protein+cereblon&column=ki&startPg=0&Increment=50&submit=Search

> <Ligand HET ID in PDB>


> <PDB ID(s) for Ligand-Target Complex>


> <PubChem CID of Ligand>
168190691

> <PubChem SID of Ligand>
505048750

> <ChEBI ID of Ligand>


> <ChEMBL ID of Ligand>


> <DrugBank ID of Ligand>


> <IUPHAR_GRAC ID of Ligand>


> <KEGG ID of Ligand>


> <ZINC ID of Ligand>


> <Number of Protein Chains in Target (bigger than 1 implies a multichain complex)>
1

> <BindingDB Target Chain Sequence>
MAGEGDQQDAAHNMGNHLPLLPAESEEEDEMEVEDQDSKEAKKPNIINFDTSLPTSHTYLGADMEEFHGRTLHDDDSCQVIPVLPQVMMILIPGQTLPLQLFHPQEVSMVRNLIQKDRTFAVLAYSNVQEREAQFGTTAEIYAYREEQDFGIEIVKVKAIGRQRFKVLELRTQSDGIQQAKVQILPECVLPSTMSAVQLESLNKCQIFPSKPVSREDQCSYKWWQKYQKRKFHCANLTSWPRWLYSLYDAETLMDRIKKQLREWDENLKDDSLPSNPIDFSYRVAACLPIDDVLRIQLLKIGSAIQRLRCELDIMNKCTSLCCKQCQETEITTKNEIFSLSLCGPMAAYVNPHGYVHETLTVYKACNLNLIGRPSTEHSWFPGYAWTVAQCKICASHIGWKFTATKKDMSPQKFWGLTRSALLPTIPDTEDEISPDKVILCL

> <PDB ID(s) of Target Chain>
8TNR,8TNQ,8TNP,8D81,8D80,8D7Z,8D7Y,8D7X,8D7W,8D7V,8D7U,8CVP,9DQD,8UH6,6BOY,6BNB,6BN9,6BN8,6BN7,6XK9,6UML,5V3O,5HXB,7U8F,8OJH,8OIZ,7LPS,4TZ4,9DJX,9DJT,8U17,8U16,8U15,8TZX,8DEY,9CUO,4M91

> <UniProt (SwissProt) Recommended Name of Target Chain>
Protein cereblon

> <UniProt (SwissProt) Entry Name of Target Chain>
CRBN_HUMAN

> <UniProt (SwissProt) Primary ID of Target Chain>
Q96SW2

> <UniProt (SwissProt) Secondary ID(s) of Target Chain>
B2R6H4 C9IZA9 C9JAH6 Q6AI62 Q6NVZ0 Q9UHW4

> <UniProt (SwissProt) Alternative ID(s) of Target Chain>


> <UniProt (TrEMBL) Submitted Name of Target Chain>


> <UniProt (TrEMBL) Entry Name of Target Chain>


> <UniProt (TrEMBL) Primary ID of Target Chain>


> <UniProt (TrEMBL) Secondary ID(s) of Target Chain>


> <UniProt (TrEMBL) Alternative ID(s) of Target Chain>


$$$$

     RDKit          2D

 63 71  0  0  0  0  0  0  0  0999 V2000
   -1.5639    5.4635    0.0000 C   0  0  0  0  0  0  0  0  0  0  0  0
   -0.0967    5.1517    0.0000 C   0  0  0  0  0  0  0  0  0  0  0  0
    1.3705    4.8398    0.0000 C   0  0  0  0  0  0  0  0  0  0  0  0
    0.2152    6.6189    0.0000 O   0  0  0  0  0  0  0  0  0  0  0  0
   -0.4086    3.6844    0.0000 C   0  0  0  0  0  0  0  0  0  0  0  0
    0.7062    2.6807    0.0000 C   0  0  0  0  0  0  0  0  0  0  0  0
    0.3943    1.2135    0.0000 C   0  0  0  0  0  0  0  0  0  0  0  0
    1.2760    0.0000    0.0000 N   0  0  0  0  0  0  0  0  0  0  0  0
    0.3943   -1.2135    0.0000 N   0  0  0  0  0  0  0  0  0  0  0  0
    0.8578   -2.6401    0.0000 C   0  0  0  0  0  0  0  0  0  0  0  0
   -0.1459   -3.7548    0.0000 C   0  0  0  0  0  0  0  0  0  0  0  0
    0.3177   -5.1814    0.0000 C   0  0  0  0  0  0  0  0  0  0  0  0
    1.7849   -5.4933    0.0000 C   0  0  0  0  0  0  0  0  0  0  0  0
    2.2484   -6.9199    0.0000 C   0  0  0  0  0  0  0  0  0  0  0  0
    1.2447   -8.0346    0.0000 N   0  0  0  0  0  0  0  0  0  0  0  0
   -0.2225   -7.7227    0.0000 C   0  0  0  0  0  0  0  0  0  0  0  0
   -1.2262   -8.8374    0.0000 C   0  0  0  0  0  0  0  0  0  0  0  0
   -0.7627  -10.2640    0.0000 C   0  0  0  0  0  0  0  0  0  0  0  0
    0.7045  -10.5759    0.0000 C   0  0  0  0  0  0  0  0  0  0  0  0
    1.7082   -9.4612    0.0000 C   0  0  0  0  0  0  0  0  0  0  0  0
   -2.2606  -10.3425    0.0000 C   0  0  0  0  0  0  0  0  0  0  0  0
   -2.1821  -11.8405    0.0000 C   0  0  0  0  0  0  0  0  0  0  0  0
   -3.1858  -12.9552    0.0000 C   0  0  0  0  0  0  0  0  0  0  0  0
   -4.6530  -12.6433    0.0000 N   0  0  0  0  0  0  0  0  0  0  0  0
   -5.6567  -13.7580    0.0000 C   0  0  0  0  0  0  0  0  0  0  0  0
   -7.1240  -13.4462    0.0000 C   0  0  0  0  0  0  0  0  0  0  0  0
   -8.1277  -14.5609    0.0000 C   0  0  0  0  0  0  0  0  0  0  0  0
   -7.6641  -15.9875    0.0000 C   0  0  0  0  0  0  0  0  0  0  0  0
   -6.1969  -16.2993    0.0000 C   0  0  0  0  0  0  0  0  0  0  0  0
   -5.1932  -15.1846    0.0000 C   0  0  0  0  0  0  0  0  0  0  0  0
   -3.8229  -15.7947    0.0000 C   0  0  0  0  0  0  0  0  0  0  0  0
   -2.5239  -15.0447    0.0000 O   0  0  0  0  0  0  0  0  0  0  0  0
   -3.9797  -17.2865    0.0000 N   0  0  0  0  0  0  0  0  0  0  0  0
   -2.8650  -18.2902    0.0000 C   0  0  0  0  0  0  0  0  0  0  0  0
   -3.1768  -19.7574    0.0000 C   0  0  0  0  0  0  0  0  0  0  0  0
   -2.0621  -20.7611    0.0000 C   0  0  0  0  0  0  0  0  0  0  0  0
   -0.6355  -20.2976    0.0000 C   0  0  0  0  0  0  0  0  0  0  0  0
    0.4792  -21.3013    0.0000 O   0  0  0  0  0  0  0  0  0  0  0  0
   -0.3237  -18.8304    0.0000 N   0  0  0  0  0  0  0  0  0  0  0  0
   -1.4384  -17.8267    0.0000 C   0  0  0  0  0  0  0  0  0  0  0  0
   -1.1265  -16.3595    0.0000 O   0  0  0  0  0  0  0  0  0  0  0  0
   -5.4469  -17.5984    0.0000 C   0  0  0  0  0  0  0  0  0  0  0  0
   -6.0570  -18.9687    0.0000 O   0  0  0  0  0  0  0  0  0  0  0  0
   -0.6842  -11.7620    0.0000 C   0  0  0  0  0  0  0  0  0  0  0  0
    2.7886   -4.3786    0.0000 C   0  0  0  0  0  0  0  0  0  0  0  0
    2.3250   -2.9520    0.0000 C   0  0  0  0  0  0  0  0  0  0  0  0
   -1.0323   -0.7500    0.0000 C   0  0  0  0  0  0  0  0  0  0  0  0
   -1.0323    0.7500    0.0000 C   0  0  0  0  0  0  0  0  0  0  0  0
   -2.1470    1.7537    0.0000 C   0  0  0  0  0  0  0  0  0  0  0  0
   -1.8351    3.2209    0.0000 C   0  0  0  0  0  0  0  0  0  0  0  0
   -2.9499    4.2246    0.0000 N   0  0  0  0  0  0  0  0  0  0  0  0
   -4.3764    3.7611    0.0000 C   0  0  0  0  0  0  0  0  0  0  0  0
   -4.6883    2.2939    0.0000 O   0  0  0  0  0  0  0  0  0  0  0  0
   -5.4912    4.7648    0.0000 C   0  0  0  0  0  0  0  0  0  0  0  0
   -5.1793    6.2320    0.0000 C   0  0  0  0  0  0  0  0  0  0  0  0
   -6.2940    7.2357    0.0000 C   0  0  0  0  0  0  0  0  0  0  0  0
   -7.7206    6.7722    0.0000 C   0  0  0  0  0  0  0  0  0  0  0  0
   -8.0325    5.3050    0.0000 C   0  0  0  0  0  0  0  0  0  0  0  0
   -9.4590    4.8414    0.0000 C   0  0  0  0  0  0  0  0  0  0  0  0
  -10.8856    4.3779    0.0000 F   0  0  0  0  0  0  0  0  0  0  0  0
   -9.9226    6.2680    0.0000 F   0  0  0  0  0  0  0  0  0  0  0  0
   -8.9955    3.4148    0.0000 F   0  0  0  0  0  0  0  0  0  0  0  0
   -6.9177    4.3013    0.0000 N   0  0  0  0  0  0  0  0  0  0  0  0
  1  2  1  0
  2  3  1  0
  2  4  1  0
  2  5  1  0
  5  6  2  0
  6  7  1  0
  7  8  2  0
  8  9  1  0
 10  9  1  6
 10 11  1  0
 11 12  1  0
 12 13  1  0
 13 14  1  1
 14 15  1  0
 15 16  1  0
 16 17  1  0
 17 18  1  0
 18 19  1  0
 19 20  1  0
 18 21  1  0
 21 22  1  0
 22 23  1  0
 23 24  1  0
 24 25  1  0
 25 26  2  0
 26 27  1  0
 27 28  2  0
 28 29  1  0
 29 30  2  0
 30 31  1  0
 31 32  2  0
 31 33  1  0
 33 34  1  0
 34 35  1  0
 35 36  1  0
 36 37  1  0
 37 38  2  0
 37 39  1  0
 39 40  1  0
 40 41  2  0
 33 42  1  0
 42 43  2  0
 22 44  1  0
 13 45  1  0
 45 46  1  0
  9 47  1  0
 47 48  2  0
 48 49  1  0
 49 50  2  0
 50 51  1  0
 51 52  1  0
 52 53  2  0
 52 54  1  0
 54 55  2  0
 55 56  1  0
 56 57  2  0
 57 58  1  0
 58 59  1  0
 59 60  1  0
 59 61  1  0
 59 62  1  0
 58 63  2  0
 50  5  1  0
 63 54  1  0
 48  7  1  0
 46 10  1  0
 20 15  1  0
 30 25  1  0
 40 34  1  0
 44 18  1  0
 42 29  1  0
M  END
> <From>
www.bindingDB.org

> <BindingDB Reactant_set_id>
51589165

> <Ligand InChI>
InChI=1S/C46H51F3N8O6/c1-44(2,63)31-20-34-28(19-35(31)52-40(59)33-7-4-8-37(51-33)46(47,48)49)25-56(54-34)29-11-9-26(10-12-29)24-55-17-15-45(16-18-55)21-27(22-45)23-50-32-6-3-5-30-39(32)43(62)57(42(30)61)36-13-14-38(58)53-41(36)60/h3-8,19-20,25-27,29,36,50,63H,9-18,21-24H2,1-2H3,(H,52,59)(H,53,58,60)

> <Ligand InChI Key>
IWOVTMLUFGDAGD-UHFFFAOYSA-N

> <BindingDB MonomerID>
50639848

> <BindingDB Ligand Name>
CHEMBL5532228

> <Target Name>
Protein cereblon

> <Target Source Organism According to Curator or DataSource>
Human

> <Ki (nM)>


> <IC50 (nM)>
 44

> <Kd (nM)>


> <EC50 (nM)>


> <kon (M-1-s-1)>


> <koff (s-1)>


> <pH>


> <Temp C>


> <Curation/DataSource>
ChEMBL

> <Article DOI>


> <BindingDB Entry DOI>
10.7270/Q23F4V8G

> <PMID>
38920289

> <PubChem AID>


> <Patent Number>


> <Authors>
Weiss, MM; Zheng, X; Ji, N; Browne, CM; Campbell, V; Chen, D; Enerson, B; Fei, X; Huang, X; Klaus, CR; Li, H; Mayo, M; McDonald, AA; Paul, A; Rong, H; Sharma, K; Shi, Y; Slavin, A; Walther, DM; Yuan, K; Zhang, Y; Zhu, X; Kelleher, J; Walker, D; Mainolfi, N

> <Date of publication>
//0

> <Date in BindingDB>
10/11/2025

> <Institution>
Kymera Therapeutics

> <Link to Ligand in BindingDB>
http://www.bindingdb.org/bind/chemsearch/marvin/MolStructure.jsp?monomerid=50639848

> <Link to Ligand-Target Pair in BindingDB>
http://www.bindingdb.org/rwd/jsp/dbsearch/PrimarySearch_ki.jsp?energyterm=kJ/mole&tag=pol&polymerid=50007050&target=Protein+cereblon&column=ki&startPg=0&Increment=50&submit=Search

> <Link to Ligand-Target Pair in BindingDB>
http://www.bindingdb.org/rwd/jsp/dbsearch/PrimarySearch_ki.jsp?energyterm=kJ/mole&tag=r21&monomerid=50639848&enzyme=Protein+cereblon&column=ki&startPg=0&Increment=50&submit=Search

> <Ligand HET ID in PDB>


> <PDB ID(s) for Ligand-Target Complex>


> <PubChem CID of Ligand>
165437240

> <PubChem SID of Ligand>
519660251

> <ChEBI ID of Ligand>


> <ChEMBL ID of Ligand>


> <DrugBank ID of Ligand>


> <IUPHAR_GRAC ID of Ligand>


> <KEGG ID of Ligand>


> <ZINC ID of Ligand>


> <Number of Protein Chains in Target (bigger than 1 implies a multichain complex)>
1

> <BindingDB Target Chain Sequence>
MAGEGDQQDAAHNMGNHLPLLPAESEEEDEMEVEDQDSKEAKKPNIINFDTSLPTSHTYLGADMEEFHGRTLHDDDSCQVIPVLPQVMMILIPGQTLPLQLFHPQEVSMVRNLIQKDRTFAVLAYSNVQEREAQFGTTAEIYAYREEQDFGIEIVKVKAIGRQRFKVLELRTQSDGIQQAKVQILPECVLPSTMSAVQLESLNKCQIFPSKPVSREDQCSYKWWQKYQKRKFHCANLTSWPRWLYSLYDAETLMDRIKKQLREWDENLKDDSLPSNPIDFSYRVAACLPIDDVLRIQLLKIGSAIQRLRCELDIMNKCTSLCCKQCQETEITTKNEIFSLSLCGPMAAYVNPHGYVHETLTVYKACNLNLIGRPSTEHSWFPGYAWTVAQCKICASHIGWKFTATKKDMSPQKFWGLTRSALLPTIPDTEDEISPDKVILCL

> <PDB ID(s) of Target Chain>
9DUR,8TNR,8TNQ,8TNP,9DWW,9DWV,9NGT,9NFR,9NFQ,8D81,8D80,8D7Z,8D7Y,8D7X,8D7W,8D7V,8D7U,8CVP,9Q2D,9Q03,9DQD,8UH6,9SAI,9SAF,9H59,9E2U,6BOY,6BNB,6BN9,6BN8,6BN7,9OUL,9Y7D,6XK9,6UML,5V3O,5HXB,9HNE,9D0X,9D0W,7U8F,9FJX,8OJH,8OIZ,7LPS,9SFM,9OTY,4TZ4,9DJX,9DJT,8U17,8U16,8U15,8TZX,8DEY,9CUO,4M91

> <UniProt (SwissProt) Recommended Name of Target Chain>
Protein cereblon

> <UniProt (SwissProt) Entry Name of Target Chain>
CRBN_HUMAN

> <UniProt (SwissProt) Primary ID of Target Chain>
Q96SW2

> <UniProt (SwissProt) Secondary ID(s) of Target Chain>
B2R6H4 C9IZA9 C9JAH6 Q6AI62 Q6NVZ0 Q9UHW4

> <UniProt (SwissProt) Alternative ID(s) of Target Chain>


> <UniProt (TrEMBL) Submitted Name of Target Chain>


> <UniProt (TrEMBL) Entry Name of Target Chain>


> <UniProt (TrEMBL) Primary ID of Target Chain>


> <UniProt (TrEMBL) Secondary ID(s) of Target Chain>


> <UniProt (TrEMBL) Alternative ID(s) of Target Chain>


$$$$
 
     RDKit          2D

 30 33  0  0  0  0  0  0  0  0999 V2000
   -0.8073    0.3565    0.0000 C   0  0  0  0  0  0  0  0  0  0  0  0
   -0.0928    0.7691    0.0000 C   0  0  0  0  0  0  0  0  0  0  0  0
    0.6215    0.3565    0.0000 C   0  0  0  0  0  0  0  0  0  0  0  0
    0.6215   -0.4684    0.0000 C   0  0  0  0  0  0  0  0  0  0  0  0
   -0.0928   -0.8809    0.0000 C   0  0  0  0  0  0  0  0  0  0  0  0
   -0.8073   -0.4684    0.0000 C   0  0  0  0  0  0  0  0  0  0  0  0
    1.4061   -0.7233    0.0000 C   0  0  0  0  0  0  0  0  0  0  0  0
    1.8910   -0.0559    0.0000 N   0  0  0  0  0  0  0  0  0  0  0  0
    1.4062    0.6115    0.0000 C   0  0  0  0  0  0  0  0  0  0  0  0
    1.6196    1.4081    0.0000 O   0  0  0  0  0  0  0  0  0  0  0  0
    2.7158   -0.0559    0.0000 C   0  0  0  0  0  0  0  0  0  0  0  0
    3.1282    0.6582    0.0000 C   0  0  0  0  0  0  0  0  0  0  0  0
    3.9529    0.6582    0.0000 C   0  0  0  0  0  0  0  0  0  0  0  0
    4.3652   -0.0560    0.0000 C   0  0  0  0  0  0  0  0  0  0  0  0
    3.9529   -0.7702    0.0000 N   0  0  0  0  0  0  0  0  0  0  0  0
    3.1282   -0.7702    0.0000 C   0  0  0  0  0  0  0  0  0  0  0  0
    2.7158   -1.4845    0.0000 O   0  0  0  0  0  0  0  0  0  0  0  0
    5.1900   -0.0560    0.0000 O   0  0  0  0  0  0  0  0  0  0  0  0
   -1.5216    0.7689    0.0000 S   0  0  0  0  0  0  0  0  0  0  0  0
   -2.2358    0.3565    0.0000 N   0  0  0  0  0  0  0  0  0  0  0  0
   -1.1084    1.4845    0.0000 O   0  0  0  0  0  0  0  0  0  0  0  0
   -1.9331    1.4845    0.0000 O   0  0  0  0  0  0  0  0  0  0  0  0
   -2.3219   -0.4632    0.0000 C   0  0  0  0  0  0  0  0  0  0  0  0
   -3.1283   -0.6346    0.0000 C   0  0  0  0  0  0  0  0  0  0  0  0
   -3.5405    0.0792    0.0000 C   0  0  0  0  0  0  0  0  0  0  0  0
   -2.9889    0.6918    0.0000 N   0  0  0  0  0  0  0  0  0  0  0  0
   -4.3652    0.0792    0.0000 C   0  0  0  0  0  0  0  0  0  0  0  0
   -4.7776   -0.6349    0.0000 F   0  0  0  0  0  0  0  0  0  0  0  0
   -4.7776    0.7934    0.0000 F   0  0  0  0  0  0  0  0  0  0  0  0
   -5.1900    0.0792    0.0000 F   0  0  0  0  0  0  0  0  0  0  0  0
  1  2  1  0
  3  2  2  0
  4  3  1  0
  5  4  2  0
  6  5  1  0
  1  6  2  0
  4  7  1  0
  8  7  1  0
  9  8  1  0
  3  9  1  0
  9 10  2  0
  8 11  1  0
 12 11  1  0
 13 12  1  0
 14 13  1  0
 15 14  1  0
 16 15  1  0
 11 16  1  0
 16 17  2  0
 14 18  2  0
  1 19  1  0
 19 20  1  0
 19 21  2  0
 19 22  2  0
 23 20  1  0
 23 24  2  0
 24 25  1  0
 25 26  2  0
 26 20  1  0
 25 27  1  0
 27 28  1  0
 27 29  1  0
 27 30  1  0
M  END
> <From>
www.bindingDB.org

> <BindingDB Reactant_set_id>
51568405

> <Ligand InChI>
InChI=1S/C17H13F3N4O5S/c18-17(19,20)13-5-6-24(22-13)30(28,29)10-2-1-9-8-23(16(27)11(9)7-10)12-3-4-14(25)21-15(12)26/h1-2,5-7,12H,3-4,8H2,(H,21,25,26)

> <Ligand InChI Key>
QLZSVRMOCPFVIB-UHFFFAOYSA-N

> <BindingDB MonomerID>
50630778

> <BindingDB Ligand Name>
CHEMBL5419977

> <Target Name>
Protein cereblon

> <Target Source Organism According to Curator or DataSource>
Homo sapiens

> <Ki (nM)>


> <IC50 (nM)>
 50

> <Kd (nM)>


> <EC50 (nM)>


> <kon (M-1-s-1)>


> <koff (s-1)>


> <pH>


> <Temp C>


> <Curation/DataSource>
ChEMBL

> <Article DOI>
10.1021/acsmedchemlett.3c00371

> <BindingDB Entry DOI>
10.7270/Q28D01RH

> <PMID>
37974938

> <PubChem AID>


> <Patent Number>


> <Authors>
Cruite, JT; Nowak, RP; Donovan, KA; Ficarro, SB; Huang, H; Liu, H; Liu, Y; Marto, JA; Metivier, RJ; Fischer, ES; Jones, LH

> <Date of publication>
11/9/2023

> <Date in BindingDB>
12/20/2024

> <Institution>
Dana-Farber Cancer Institute

> <Link to Ligand in BindingDB>
http://www.bindingdb.org/bind/chemsearch/marvin/MolStructure.jsp?monomerid=50630778

> <Link to Ligand-Target Pair in BindingDB>
http://www.bindingdb.org/jsp/dbsearch/PrimarySearch_ki.jsp?energyterm=kJ/mole&tag=pol&polymerid=50007050&target=Protein+cereblon&column=ki&startPg=0&Increment=50&submit=Search

> <Link to Ligand-Target Pair in BindingDB>
http://www.bindingdb.org/jsp/dbsearch/PrimarySearch_ki.jsp?energyterm=kJ/mole&tag=r21&monomerid=50630778&enzyme=Protein+cereblon&column=ki&startPg=0&Increment=50&submit=Search

> <Ligand HET ID in PDB>


> <PDB ID(s) for Ligand-Target Complex>


> <PubChem CID of Ligand>
168190688

> <PubChem SID of Ligand>
505048749

> <ChEBI ID of Ligand>


> <ChEMBL ID of Ligand>


> <DrugBank ID of Ligand>


> <IUPHAR_GRAC ID of Ligand>


> <KEGG ID of Ligand>


> <ZINC ID of Ligand>


> <Number of Protein Chains in Target (bigger than 1 implies a multichain complex)>
1

> <BindingDB Target Chain Sequence>
MAGEGDQQDAAHNMGNHLPLLPAESEEEDEMEVEDQDSKEAKKPNIINFDTSLPTSHTYLGADMEEFHGRTLHDDDSCQVIPVLPQVMMILIPGQTLPLQLFHPQEVSMVRNLIQKDRTFAVLAYSNVQEREAQFGTTAEIYAYREEQDFGIEIVKVKAIGRQRFKVLELRTQSDGIQQAKVQILPECVLPSTMSAVQLESLNKCQIFPSKPVSREDQCSYKWWQKYQKRKFHCANLTSWPRWLYSLYDAETLMDRIKKQLREWDENLKDDSLPSNPIDFSYRVAACLPIDDVLRIQLLKIGSAIQRLRCELDIMNKCTSLCCKQCQETEITTKNEIFSLSLCGPMAAYVNPHGYVHETLTVYKACNLNLIGRPSTEHSWFPGYAWTVAQCKICASHIGWKFTATKKDMSPQKFWGLTRSALLPTIPDTEDEISPDKVILCL

> <PDB ID(s) of Target Chain>
8TNR,8TNQ,8TNP,8D81,8D80,8D7Z,8D7Y,8D7X,8D7W,8D7V,8D7U,8CVP,9DQD,8UH6,6BOY,6BNB,6BN9,6BN8,6BN7,6XK9,6UML,5V3O,5HXB,7U8F,8OJH,8OIZ,7LPS,4TZ4,9DJX,9DJT,8U17,8U16,8U15,8TZX,8DEY,9CUO,4M91

> <UniProt (SwissProt) Recommended Name of Target Chain>
Protein cereblon

> <UniProt (SwissProt) Entry Name of Target Chain>
CRBN_HUMAN

> <UniProt (SwissProt) Primary ID of Target Chain>
Q96SW2

> <UniProt (SwissProt) Secondary ID(s) of Target Chain>
B2R6H4 C9IZA9 C9JAH6 Q6AI62 Q6NVZ0 Q9UHW4

> <UniProt (SwissProt) Alternative ID(s) of Target Chain>


> <UniProt (TrEMBL) Submitted Name of Target Chain>


> <UniProt (TrEMBL) Entry Name of Target Chain>


> <UniProt (TrEMBL) Primary ID of Target Chain>


> <UniProt (TrEMBL) Secondary ID(s) of Target Chain>


> <UniProt (TrEMBL) Alternative ID(s) of Target Chain>


$$$$
 
     RDKit          2D

 56 63  0  0  0  0  0  0  0  0999 V2000
   -0.2765    0.8040    0.0000 N   0  0  0  0  0  0  0  0  0  0  0  0
   -1.0572    0.5371    0.0000 C   0  0  0  0  0  0  0  0  0  0  0  0
   -1.6787    1.0797    0.0000 C   0  0  0  0  0  0  0  0  0  0  0  0
   -2.4594    0.8128    0.0000 C   0  0  0  0  0  0  0  0  0  0  0  0
   -3.0809    1.3553    0.0000 N   0  0  0  0  0  0  0  0  0  0  0  0
   -3.8616    1.0884    0.0000 C   0  0  0  0  0  0  0  0  0  0  0  0
   -4.0207    0.2789    0.0000 O   0  0  0  0  0  0  0  0  0  0  0  0
   -4.4831    1.6311    0.0000 C   0  0  0  0  0  0  0  0  0  0  0  0
   -5.2638    1.3641    0.0000 C   0  0  0  0  0  0  0  0  0  0  0  0
   -5.8430    1.9516    0.0000 C   0  0  0  0  0  0  0  0  0  0  0  0
   -6.6635    1.8651    0.0000 N   0  0  0  0  0  0  0  0  0  0  0  0
   -6.9994    2.6187    0.0000 C   0  0  0  0  0  0  0  0  0  0  0  0
   -6.3865    3.1710    0.0000 N   0  0  0  0  0  0  0  0  0  0  0  0
   -5.6718    2.7587    0.0000 N   0  0  0  0  0  0  0  0  0  0  0  0
   -7.8065    2.7900    0.0000 C   0  0  0  0  0  0  0  0  0  0  0  0
   -7.1074    1.1696    0.0000 C   0  0  0  0  0  0  0  0  0  0  0  0
   -6.8405    0.3890    0.0000 C   0  0  0  0  0  0  0  0  0  0  0  0
   -7.5004   -0.1061    0.0000 C   0  0  0  0  0  0  0  0  0  0  0  0
   -8.1753    0.3685    0.0000 C   0  0  0  0  0  0  0  0  0  0  0  0
   -7.9324    1.1570    0.0000 S   0  0  0  0  0  0  0  0  0  0  0  0
   -8.9560    0.1015    0.0000 C   0  0  0  0  0  0  0  0  0  0  0  0
   -7.4878   -0.9310    0.0000 C   0  0  0  0  0  0  0  0  0  0  0  0
   -6.0637    0.1109    0.0000 C   0  0  0  0  0  0  0  0  0  0  0  0
   -5.9771   -0.7095    0.0000 C   0  0  0  0  0  0  0  0  0  0  0  0
   -5.2232   -1.0448    0.0000 C   0  0  0  0  0  0  0  0  0  0  0  0
   -5.1368   -1.8653    0.0000 C   0  0  0  0  0  0  0  0  0  0  0  0
   -5.8041   -2.3504    0.0000 C   0  0  0  0  0  0  0  0  0  0  0  0
   -5.7175   -3.1710    0.0000 Cl  0  0  0  0  0  0  0  0  0  0  0  0
   -6.5579   -2.0152    0.0000 C   0  0  0  0  0  0  0  0  0  0  0  0
   -6.6443   -1.1947    0.0000 C   0  0  0  0  0  0  0  0  0  0  0  0
   -5.3620    0.5449    0.0000 N   0  0  0  0  0  0  0  0  0  0  0  0
    0.3449    0.2615    0.0000 C   0  0  0  0  0  0  0  0  0  0  0  0
    1.1256    0.5284    0.0000 C   0  0  0  0  0  0  0  0  0  0  0  0
    1.7471   -0.0141    0.0000 C   0  0  0  0  0  0  0  0  0  0  0  0
    1.5879   -0.8237    0.0000 C   0  0  0  0  0  0  0  0  0  0  0  0
    2.2094   -1.3663    0.0000 C   0  0  0  0  0  0  0  0  0  0  0  0
    2.9902   -1.0993    0.0000 C   0  0  0  0  0  0  0  0  0  0  0  0
    3.6117   -1.6420    0.0000 C   0  0  0  0  0  0  0  0  0  0  0  0
    4.3924   -1.3750    0.0000 C   0  0  0  0  0  0  0  0  0  0  0  0
    5.1132   -1.7765    0.0000 C   0  0  0  0  0  0  0  0  0  0  0  0
    5.7177   -1.2151    0.0000 N   0  0  0  0  0  0  0  0  0  0  0  0
    6.5273   -1.3743    0.0000 C   0  0  0  0  0  0  0  0  0  0  0  0
    6.7942   -2.1549    0.0000 C   0  0  0  0  0  0  0  0  0  0  0  0
    6.2516   -2.7765    0.0000 O   0  0  0  0  0  0  0  0  0  0  0  0
    7.6038   -2.3141    0.0000 N   0  0  0  0  0  0  0  0  0  0  0  0
    8.1464   -1.6926    0.0000 C   0  0  0  0  0  0  0  0  0  0  0  0
    8.9560   -1.8517    0.0000 O   0  0  0  0  0  0  0  0  0  0  0  0
    7.8795   -0.9119    0.0000 C   0  0  0  0  0  0  0  0  0  0  0  0
    7.0699   -0.7528    0.0000 C   0  0  0  0  0  0  0  0  0  0  0  0
    5.3705   -0.4667    0.0000 C   0  0  0  0  0  0  0  0  0  0  0  0
    5.7722    0.2540    0.0000 O   0  0  0  0  0  0  0  0  0  0  0  0
    4.5515   -0.5654    0.0000 C   0  0  0  0  0  0  0  0  0  0  0  0
    3.9300   -0.0228    0.0000 C   0  0  0  0  0  0  0  0  0  0  0  0
    3.1493   -0.2898    0.0000 C   0  0  0  0  0  0  0  0  0  0  0  0
    0.8073   -1.0906    0.0000 C   0  0  0  0  0  0  0  0  0  0  0  0
    0.1857   -0.5480    0.0000 C   0  0  0  0  0  0  0  0  0  0  0  0
  2  1  1  0
  3  2  1  0
  4  3  1  0
  5  4  1  0
  6  5  1  0
  6  7  2  0
  6  8  1  0
  9  8  1  6
 10  9  1  0
 10 11  1  0
 11 12  1  0
 12 13  2  0
 13 14  1  0
 10 14  2  0
 12 15  1  0
 11 16  1  0
 17 16  2  0
 17 18  1  0
 18 19  2  0
 19 20  1  0
 16 20  1  0
 19 21  1  0
 18 22  1  0
 23 17  1  0
 23 24  1  0
 25 24  2  0
 26 25  1  0
 27 26  2  0
 27 28  1  0
 29 27  1  0
 30 29  2  0
 24 30  1  0
 31 23  2  0
  9 31  1  0
  1 32  1  0
 33 32  2  0
 34 33  1  0
 35 34  2  0
 35 36  1  0
 36 37  1  0
 37 38  1  0
 38 39  2  0
 39 40  1  0
 41 40  1  0
 41 42  1  0
 42 43  1  0
 43 44  2  0
 43 45  1  0
 45 46  1  0
 46 47  2  0
 46 48  1  0
 48 49  1  0
 49 42  1  0
 50 41  1  0
 50 51  2  0
 52 50  1  0
 39 52  1  0
 52 53  2  0
 53 54  1  0
 54 37  2  0
 55 35  1  0
 56 55  2  0
 32 56  1  0
M  END
> <From>
www.bindingDB.org

> <BindingDB Reactant_set_id>
51570526

> <Ligand InChI>
InChI=1S/C42H41ClN8O4S/c1-23-24(2)56-42-37(23)38(28-8-10-30(43)11-9-28)46-33(39-49-48-25(3)51(39)42)21-36(53)45-18-4-17-44-31-12-5-26(6-13-31)19-27-7-14-32-29(20-27)22-50(41(32)55)34-15-16-35(52)47-40(34)54/h5-14,20,33-34,44H,4,15-19,21-22H2,1-3H3,(H,45,53)(H,47,52,54)/t33-,34?/m0/s1

> <Ligand InChI Key>
BNZBBHXKCFPTND-CDRRMRQFSA-N

> <BindingDB MonomerID>
50631630

> <BindingDB Ligand Name>
CHEMBL5405431

> <Target Name>
Protein cereblon

> <Target Source Organism According to Curator or DataSource>
Homo sapiens

> <Ki (nM)>


> <IC50 (nM)>
 54

> <Kd (nM)>


> <EC50 (nM)>


> <kon (M-1-s-1)>


> <koff (s-1)>


> <pH>


> <Temp C>


> <Curation/DataSource>
ChEMBL

> <Article DOI>
10.1021/acs.jmedchem.3c01613

> <BindingDB Entry DOI>
10.7270/Q2T1583Z

> <PMID>
38096359

> <PubChem AID>


> <Patent Number>


> <Authors>
Arndt, CM; Bitai, J; Brunner, J; Opatz, T; Martinelli, P; Gollner, A; Sokol, KR; Krumb, M

> <Date of publication>
12/28/2023

> <Date in BindingDB>
12/21/2024

> <Institution>
Boehringer Ingelheim Rcv

> <Link to Ligand in BindingDB>
http://www.bindingdb.org/bind/chemsearch/marvin/MolStructure.jsp?monomerid=50631630

> <Link to Ligand-Target Pair in BindingDB>
http://www.bindingdb.org/jsp/dbsearch/PrimarySearch_ki.jsp?energyterm=kJ/mole&tag=pol&polymerid=50007050&target=Protein+cereblon&column=ki&startPg=0&Increment=50&submit=Search

> <Link to Ligand-Target Pair in BindingDB>
http://www.bindingdb.org/jsp/dbsearch/PrimarySearch_ki.jsp?energyterm=kJ/mole&tag=r21&monomerid=50631630&enzyme=Protein+cereblon&column=ki&startPg=0&Increment=50&submit=Search

> <Ligand HET ID in PDB>


> <PDB ID(s) for Ligand-Target Complex>


> <PubChem CID of Ligand>
172445033

> <PubChem SID of Ligand>
505035964

> <ChEBI ID of Ligand>


> <ChEMBL ID of Ligand>


> <DrugBank ID of Ligand>


> <IUPHAR_GRAC ID of Ligand>


> <KEGG ID of Ligand>


> <ZINC ID of Ligand>


> <Number of Protein Chains in Target (bigger than 1 implies a multichain complex)>
1

> <BindingDB Target Chain Sequence>
MAGEGDQQDAAHNMGNHLPLLPAESEEEDEMEVEDQDSKEAKKPNIINFDTSLPTSHTYLGADMEEFHGRTLHDDDSCQVIPVLPQVMMILIPGQTLPLQLFHPQEVSMVRNLIQKDRTFAVLAYSNVQEREAQFGTTAEIYAYREEQDFGIEIVKVKAIGRQRFKVLELRTQSDGIQQAKVQILPECVLPSTMSAVQLESLNKCQIFPSKPVSREDQCSYKWWQKYQKRKFHCANLTSWPRWLYSLYDAETLMDRIKKQLREWDENLKDDSLPSNPIDFSYRVAACLPIDDVLRIQLLKIGSAIQRLRCELDIMNKCTSLCCKQCQETEITTKNEIFSLSLCGPMAAYVNPHGYVHETLTVYKACNLNLIGRPSTEHSWFPGYAWTVAQCKICASHIGWKFTATKKDMSPQKFWGLTRSALLPTIPDTEDEISPDKVILCL

> <PDB ID(s) of Target Chain>
8TNR,8TNQ,8TNP,8D81,8D80,8D7Z,8D7Y,8D7X,8D7W,8D7V,8D7U,8CVP,9DQD,8UH6,6BOY,6BNB,6BN9,6BN8,6BN7,6XK9,6UML,5V3O,5HXB,7U8F,8OJH,8OIZ,7LPS,4TZ4,9DJX,9DJT,8U17,8U16,8U15,8TZX,8DEY,9CUO,4M91

> <UniProt (SwissProt) Recommended Name of Target Chain>
Protein cereblon

> <UniProt (SwissProt) Entry Name of Target Chain>
CRBN_HUMAN

> <UniProt (SwissProt) Primary ID of Target Chain>
Q96SW2

> <UniProt (SwissProt) Secondary ID(s) of Target Chain>
B2R6H4 C9IZA9 C9JAH6 Q6AI62 Q6NVZ0 Q9UHW4

> <UniProt (SwissProt) Alternative ID(s) of Target Chain>


> <UniProt (TrEMBL) Submitted Name of Target Chain>


> <UniProt (TrEMBL) Entry Name of Target Chain>


> <UniProt (TrEMBL) Primary ID of Target Chain>


> <UniProt (TrEMBL) Secondary ID(s) of Target Chain>


> <UniProt (TrEMBL) Alternative ID(s) of Target Chain>


$$$$
 
     RDKit          2D

 55 62  0  0  0  0  0  0  0  0999 V2000
   -3.2947    0.3046    0.0000 C   0  0  0  0  0  0  0  0  0  0  0  0
   -4.0075   -0.1107    0.0000 O   0  0  0  0  0  0  0  0  0  0  0  0
   -3.2981    1.1296    0.0000 C   0  0  0  0  0  0  0  0  0  0  0  0
   -4.0141    1.5391    0.0000 C   0  0  0  0  0  0  0  0  0  0  0  0
   -3.9558    2.3621    0.0000 C   0  0  0  0  0  0  0  0  0  0  0  0
   -4.5629    2.9208    0.0000 N   0  0  0  0  0  0  0  0  0  0  0  0
   -4.2191    3.6707    0.0000 C   0  0  0  0  0  0  0  0  0  0  0  0
   -3.3996    3.5755    0.0000 N   0  0  0  0  0  0  0  0  0  0  0  0
   -3.2369    2.7668    0.0000 N   0  0  0  0  0  0  0  0  0  0  0  0
   -4.6238    4.3896    0.0000 C   0  0  0  0  0  0  0  0  0  0  0  0
   -5.3780    2.7945    0.0000 C   0  0  0  0  0  0  0  0  0  0  0  0
   -5.7877    2.0783    0.0000 C   0  0  0  0  0  0  0  0  0  0  0  0
   -6.5954    2.2467    0.0000 C   0  0  0  0  0  0  0  0  0  0  0  0
   -6.6849    3.0668    0.0000 C   0  0  0  0  0  0  0  0  0  0  0  0
   -5.9326    3.4054    0.0000 S   0  0  0  0  0  0  0  0  0  0  0  0
   -7.4010    3.4763    0.0000 C   0  0  0  0  0  0  0  0  0  0  0  0
   -7.2062    1.6922    0.0000 C   0  0  0  0  0  0  0  0  0  0  0  0
   -5.4832    1.3117    0.0000 C   0  0  0  0  0  0  0  0  0  0  0  0
   -6.0419    0.7046    0.0000 C   0  0  0  0  0  0  0  0  0  0  0  0
   -5.7955   -0.0826    0.0000 C   0  0  0  0  0  0  0  0  0  0  0  0
   -6.3541   -0.6896    0.0000 C   0  0  0  0  0  0  0  0  0  0  0  0
   -7.1593   -0.5093    0.0000 C   0  0  0  0  0  0  0  0  0  0  0  0
   -7.7179   -1.1163    0.0000 Cl  0  0  0  0  0  0  0  0  0  0  0  0
   -7.4056    0.2779    0.0000 C   0  0  0  0  0  0  0  0  0  0  0  0
   -6.8469    0.8850    0.0000 C   0  0  0  0  0  0  0  0  0  0  0  0
   -4.6939    1.0717    0.0000 N   0  0  0  0  0  0  0  0  0  0  0  0
   -2.5785   -0.1049    0.0000 N   0  0  0  0  0  0  0  0  0  0  0  0
   -2.5753   -0.9298    0.0000 C   0  0  0  0  0  0  0  0  0  0  0  0
   -1.8591   -1.3394    0.0000 C   0  0  0  0  0  0  0  0  0  0  0  0
   -1.8557   -2.1644    0.0000 N   0  0  0  0  0  0  0  0  0  0  0  0
   -1.1397   -2.5740    0.0000 C   0  0  0  0  0  0  0  0  0  0  0  0
   -1.1363   -3.3990    0.0000 C   0  0  0  0  0  0  0  0  0  0  0  0
   -0.4203   -3.8085    0.0000 C   0  0  0  0  0  0  0  0  0  0  0  0
    0.2924   -3.3932    0.0000 C   0  0  0  0  0  0  0  0  0  0  0  0
    0.2891   -2.5682    0.0000 C   0  0  0  0  0  0  0  0  0  0  0  0
   -0.4269   -2.1586    0.0000 C   0  0  0  0  0  0  0  0  0  0  0  0
    1.0085   -3.8028    0.0000 C   0  0  0  0  0  0  0  0  0  0  0  0
    1.7213   -3.3874    0.0000 C   0  0  0  0  0  0  0  0  0  0  0  0
    1.7180   -2.5625    0.0000 C   0  0  0  0  0  0  0  0  0  0  0  0
    2.4308   -2.1471    0.0000 C   0  0  0  0  0  0  0  0  0  0  0  0
    3.1468   -2.5567    0.0000 C   0  0  0  0  0  0  0  0  0  0  0  0
    3.1502   -3.3816    0.0000 C   0  0  0  0  0  0  0  0  0  0  0  0
    2.4373   -3.7970    0.0000 C   0  0  0  0  0  0  0  0  0  0  0  0
    3.9358   -3.6334    0.0000 C   0  0  0  0  0  0  0  0  0  0  0  0
    4.4180   -2.9640    0.0000 N   0  0  0  0  0  0  0  0  0  0  0  0
    3.9305   -2.2986    0.0000 C   0  0  0  0  0  0  0  0  0  0  0  0
    4.1822   -1.5129    0.0000 O   0  0  0  0  0  0  0  0  0  0  0  0
    5.2430   -2.9607    0.0000 C   0  0  0  0  0  0  0  0  0  0  0  0
    5.6525   -2.2446    0.0000 C   0  0  0  0  0  0  0  0  0  0  0  0
    6.4775   -2.2411    0.0000 C   0  0  0  0  0  0  0  0  0  0  0  0
    6.8929   -2.9540    0.0000 C   0  0  0  0  0  0  0  0  0  0  0  0
    6.4833   -3.6701    0.0000 N   0  0  0  0  0  0  0  0  0  0  0  0
    5.6584   -3.6735    0.0000 C   0  0  0  0  0  0  0  0  0  0  0  0
    5.2488   -4.3896    0.0000 O   0  0  0  0  0  0  0  0  0  0  0  0
    7.7179   -2.9507    0.0000 O   0  0  0  0  0  0  0  0  0  0  0  0
  1  2  2  0
  1  3  1  0
  4  3  1  6
  5  4  1  0
  5  6  1  0
  6  7  1  0
  7  8  2  0
  5  9  2  0
  8  9  1  0
  7 10  1  0
  6 11  1  0
 12 11  2  0
 12 13  1  0
 13 14  2  0
 11 15  1  0
 14 15  1  0
 14 16  1  0
 13 17  1  0
 18 12  1  0
 18 19  1  0
 20 19  2  0
 21 20  1  0
 22 21  2  0
 22 23  1  0
 24 22  1  0
 25 24  2  0
 19 25  1  0
 26 18  2  0
  4 26  1  0
  1 27  1  0
 27 28  1  0
 28 29  1  0
 29 30  1  0
 30 31  1  0
 31 32  1  0
 32 33  2  0
 33 34  1  0
 34 35  2  0
 36 31  2  0
 35 36  1  0
 34 37  1  0
 37 38  1  0
 39 38  2  0
 40 39  1  0
 41 40  2  0
 42 41  1  0
 43 42  2  0
 38 43  1  0
 42 44  1  0
 45 44  1  0
 46 45  1  0
 41 46  1  0
 46 47  2  0
 45 48  1  0
 49 48  1  0
 50 49  1  0
 51 50  1  0
 52 51  1  0
 53 52  1  0
 48 53  1  0
 53 54  2  0
 51 55  2  0
M  END
> <From>
www.bindingDB.org

> <BindingDB Reactant_set_id>
51570525

> <Ligand InChI>
InChI=1S/C41H39ClN8O4S/c1-22-23(2)55-41-36(22)37(27-7-9-29(42)10-8-27)45-32(38-48-47-24(3)50(38)41)20-35(52)44-17-16-43-30-11-4-25(5-12-30)18-26-6-13-31-28(19-26)21-49(40(31)54)33-14-15-34(51)46-39(33)53/h4-13,19,32-33,43H,14-18,20-21H2,1-3H3,(H,44,52)(H,46,51,53)/t32-,33?/m0/s1

> <Ligand InChI Key>
SGHSUUSYNYZHKK-JEFWXSHNSA-N

> <BindingDB MonomerID>
50631629

> <BindingDB Ligand Name>
CHEMBL5420072

> <Target Name>
Protein cereblon

> <Target Source Organism According to Curator or DataSource>
Homo sapiens

> <Ki (nM)>


> <IC50 (nM)>
 55

> <Kd (nM)>


> <EC50 (nM)>


> <kon (M-1-s-1)>


> <koff (s-1)>


> <pH>


> <Temp C>


> <Curation/DataSource>
ChEMBL

> <Article DOI>
10.1021/acs.jmedchem.3c01613

> <BindingDB Entry DOI>
10.7270/Q2T1583Z

> <PMID>
38096359

> <PubChem AID>


> <Patent Number>


> <Authors>
Arndt, CM; Bitai, J; Brunner, J; Opatz, T; Martinelli, P; Gollner, A; Sokol, KR; Krumb, M

> <Date of publication>
12/28/2023

> <Date in BindingDB>
12/21/2024

> <Institution>
Boehringer Ingelheim Rcv

> <Link to Ligand in BindingDB>
http://www.bindingdb.org/bind/chemsearch/marvin/MolStructure.jsp?monomerid=50631629

> <Link to Ligand-Target Pair in BindingDB>
http://www.bindingdb.org/jsp/dbsearch/PrimarySearch_ki.jsp?energyterm=kJ/mole&tag=pol&polymerid=50007050&target=Protein+cereblon&column=ki&startPg=0&Increment=50&submit=Search

> <Link to Ligand-Target Pair in BindingDB>
http://www.bindingdb.org/jsp/dbsearch/PrimarySearch_ki.jsp?energyterm=kJ/mole&tag=r21&monomerid=50631629&enzyme=Protein+cereblon&column=ki&startPg=0&Increment=50&submit=Search

> <Ligand HET ID in PDB>


> <PDB ID(s) for Ligand-Target Complex>


> <PubChem CID of Ligand>
172457336

> <PubChem SID of Ligand>
505035963

> <ChEBI ID of Ligand>


> <ChEMBL ID of Ligand>


> <DrugBank ID of Ligand>


> <IUPHAR_GRAC ID of Ligand>


> <KEGG ID of Ligand>


> <ZINC ID of Ligand>


> <Number of Protein Chains in Target (bigger than 1 implies a multichain complex)>
1

> <BindingDB Target Chain Sequence>
MAGEGDQQDAAHNMGNHLPLLPAESEEEDEMEVEDQDSKEAKKPNIINFDTSLPTSHTYLGADMEEFHGRTLHDDDSCQVIPVLPQVMMILIPGQTLPLQLFHPQEVSMVRNLIQKDRTFAVLAYSNVQEREAQFGTTAEIYAYREEQDFGIEIVKVKAIGRQRFKVLELRTQSDGIQQAKVQILPECVLPSTMSAVQLESLNKCQIFPSKPVSREDQCSYKWWQKYQKRKFHCANLTSWPRWLYSLYDAETLMDRIKKQLREWDENLKDDSLPSNPIDFSYRVAACLPIDDVLRIQLLKIGSAIQRLRCELDIMNKCTSLCCKQCQETEITTKNEIFSLSLCGPMAAYVNPHGYVHETLTVYKACNLNLIGRPSTEHSWFPGYAWTVAQCKICASHIGWKFTATKKDMSPQKFWGLTRSALLPTIPDTEDEISPDKVILCL

> <PDB ID(s) of Target Chain>
8TNR,8TNQ,8TNP,8D81,8D80,8D7Z,8D7Y,8D7X,8D7W,8D7V,8D7U,8CVP,9DQD,8UH6,6BOY,6BNB,6BN9,6BN8,6BN7,6XK9,6UML,5V3O,5HXB,7U8F,8OJH,8OIZ,7LPS,4TZ4,9DJX,9DJT,8U17,8U16,8U15,8TZX,8DEY,9CUO,4M91

> <UniProt (SwissProt) Recommended Name of Target Chain>
Protein cereblon

> <UniProt (SwissProt) Entry Name of Target Chain>
CRBN_HUMAN

> <UniProt (SwissProt) Primary ID of Target Chain>
Q96SW2

> <UniProt (SwissProt) Secondary ID(s) of Target Chain>
B2R6H4 C9IZA9 C9JAH6 Q6AI62 Q6NVZ0 Q9UHW4

> <UniProt (SwissProt) Alternative ID(s) of Target Chain>


> <UniProt (TrEMBL) Submitted Name of Target Chain>


> <UniProt (TrEMBL) Entry Name of Target Chain>


> <UniProt (TrEMBL) Primary ID of Target Chain>


> <UniProt (TrEMBL) Secondary ID(s) of Target Chain>


> <UniProt (TrEMBL) Alternative ID(s) of Target Chain>


$$$$
 
     RDKit          2D

 30 33  0  0  0  0  0  0  0  0999 V2000
   -1.2196    0.6458    0.0000 C   0  0  0  0  0  0  0  0  0  0  0  0
   -0.5051    1.0584    0.0000 C   0  0  0  0  0  0  0  0  0  0  0  0
    0.2093    0.6458    0.0000 C   0  0  0  0  0  0  0  0  0  0  0  0
    0.2093   -0.1791    0.0000 C   0  0  0  0  0  0  0  0  0  0  0  0
   -0.5051   -0.5916    0.0000 C   0  0  0  0  0  0  0  0  0  0  0  0
   -1.2196   -0.1791    0.0000 C   0  0  0  0  0  0  0  0  0  0  0  0
    0.9939   -0.4340    0.0000 C   0  0  0  0  0  0  0  0  0  0  0  0
    1.4788    0.2333    0.0000 N   0  0  0  0  0  0  0  0  0  0  0  0
    0.9939    0.9008    0.0000 C   0  0  0  0  0  0  0  0  0  0  0  0
    1.2073    1.6974    0.0000 O   0  0  0  0  0  0  0  0  0  0  0  0
    2.3035    0.2333    0.0000 C   0  0  0  0  0  0  0  0  0  0  0  0
    2.7159    0.9475    0.0000 C   0  0  0  0  0  0  0  0  0  0  0  0
    3.5406    0.9475    0.0000 C   0  0  0  0  0  0  0  0  0  0  0  0
    3.9530    0.2332    0.0000 C   0  0  0  0  0  0  0  0  0  0  0  0
    3.5407   -0.4809    0.0000 N   0  0  0  0  0  0  0  0  0  0  0  0
    2.7159   -0.4809    0.0000 C   0  0  0  0  0  0  0  0  0  0  0  0
    2.3035   -1.1952    0.0000 O   0  0  0  0  0  0  0  0  0  0  0  0
    4.7777    0.2332    0.0000 O   0  0  0  0  0  0  0  0  0  0  0  0
   -1.9338    1.0582    0.0000 S   0  0  0  0  0  0  0  0  0  0  0  0
   -2.6481    0.6458    0.0000 N   0  0  0  0  0  0  0  0  0  0  0  0
   -1.5207    1.7738    0.0000 O   0  0  0  0  0  0  0  0  0  0  0  0
   -2.3454    1.7738    0.0000 O   0  0  0  0  0  0  0  0  0  0  0  0
   -2.7342   -0.1738    0.0000 C   0  0  0  0  0  0  0  0  0  0  0  0
   -3.5406   -0.3453    0.0000 C   0  0  0  0  0  0  0  0  0  0  0  0
   -3.9528    0.3685    0.0000 N   0  0  0  0  0  0  0  0  0  0  0  0
   -3.4011    0.9811    0.0000 C   0  0  0  0  0  0  0  0  0  0  0  0
   -3.9530   -1.0596    0.0000 C   0  0  0  0  0  0  0  0  0  0  0  0
   -3.5406   -1.7738    0.0000 F   0  0  0  0  0  0  0  0  0  0  0  0
   -4.7777   -1.0596    0.0000 F   0  0  0  0  0  0  0  0  0  0  0  0
   -4.3653   -1.7738    0.0000 F   0  0  0  0  0  0  0  0  0  0  0  0
  1  2  1  0
  3  2  2  0
  4  3  1  0
  5  4  2  0
  6  5  1  0
  1  6  2  0
  4  7  1  0
  8  7  1  0
  9  8  1  0
  3  9  1  0
  9 10  2  0
  8 11  1  0
 12 11  1  0
 13 12  1  0
 14 13  1  0
 15 14  1  0
 16 15  1  0
 11 16  1  0
 16 17  2  0
 14 18  2  0
  1 19  1  0
 19 20  1  0
 19 21  2  0
 19 22  2  0
 23 20  1  0
 23 24  2  0
 24 25  1  0
 25 26  2  0
 26 20  1  0
 24 27  1  0
 27 28  1  0
 27 29  1  0
 27 30  1  0
M  END
> <From>
www.bindingDB.org

> <BindingDB Reactant_set_id>
51568401

> <Ligand InChI>
InChI=1S/C17H13F3N4O5S/c18-17(19,20)13-7-23(8-21-13)30(28,29)10-2-1-9-6-24(16(27)11(9)5-10)12-3-4-14(25)22-15(12)26/h1-2,5,7-8,12H,3-4,6H2,(H,22,25,26)

> <Ligand InChI Key>
MWGZKBUCRJPIJF-UHFFFAOYSA-N

> <BindingDB MonomerID>
50630774

> <BindingDB Ligand Name>
CHEMBL5431074

> <Target Name>
Protein cereblon

> <Target Source Organism According to Curator or DataSource>
Homo sapiens

> <Ki (nM)>


> <IC50 (nM)>
 55

> <Kd (nM)>


> <EC50 (nM)>


> <kon (M-1-s-1)>


> <koff (s-1)>


> <pH>


> <Temp C>


> <Curation/DataSource>
ChEMBL

> <Article DOI>
10.1021/acsmedchemlett.3c00371

> <BindingDB Entry DOI>
10.7270/Q28D01RH

> <PMID>
37974938

> <PubChem AID>


> <Patent Number>


> <Authors>
Cruite, JT; Nowak, RP; Donovan, KA; Ficarro, SB; Huang, H; Liu, H; Liu, Y; Marto, JA; Metivier, RJ; Fischer, ES; Jones, LH

> <Date of publication>
11/9/2023

> <Date in BindingDB>
12/20/2024

> <Institution>
Dana-Farber Cancer Institute

> <Link to Ligand in BindingDB>
http://www.bindingdb.org/bind/chemsearch/marvin/MolStructure.jsp?monomerid=50630774

> <Link to Ligand-Target Pair in BindingDB>
http://www.bindingdb.org/jsp/dbsearch/PrimarySearch_ki.jsp?energyterm=kJ/mole&tag=pol&polymerid=50007050&target=Protein+cereblon&column=ki&startPg=0&Increment=50&submit=Search

> <Link to Ligand-Target Pair in BindingDB>
http://www.bindingdb.org/jsp/dbsearch/PrimarySearch_ki.jsp?energyterm=kJ/mole&tag=r21&monomerid=50630774&enzyme=Protein+cereblon&column=ki&startPg=0&Increment=50&submit=Search

> <Ligand HET ID in PDB>


> <PDB ID(s) for Ligand-Target Complex>


> <PubChem CID of Ligand>
168190694

> <PubChem SID of Ligand>
505048745

> <ChEBI ID of Ligand>


> <ChEMBL ID of Ligand>


> <DrugBank ID of Ligand>


> <IUPHAR_GRAC ID of Ligand>


> <KEGG ID of Ligand>


> <ZINC ID of Ligand>


> <Number of Protein Chains in Target (bigger than 1 implies a multichain complex)>
1

> <BindingDB Target Chain Sequence>
MAGEGDQQDAAHNMGNHLPLLPAESEEEDEMEVEDQDSKEAKKPNIINFDTSLPTSHTYLGADMEEFHGRTLHDDDSCQVIPVLPQVMMILIPGQTLPLQLFHPQEVSMVRNLIQKDRTFAVLAYSNVQEREAQFGTTAEIYAYREEQDFGIEIVKVKAIGRQRFKVLELRTQSDGIQQAKVQILPECVLPSTMSAVQLESLNKCQIFPSKPVSREDQCSYKWWQKYQKRKFHCANLTSWPRWLYSLYDAETLMDRIKKQLREWDENLKDDSLPSNPIDFSYRVAACLPIDDVLRIQLLKIGSAIQRLRCELDIMNKCTSLCCKQCQETEITTKNEIFSLSLCGPMAAYVNPHGYVHETLTVYKACNLNLIGRPSTEHSWFPGYAWTVAQCKICASHIGWKFTATKKDMSPQKFWGLTRSALLPTIPDTEDEISPDKVILCL

> <PDB ID(s) of Target Chain>
8TNR,8TNQ,8TNP,8D81,8D80,8D7Z,8D7Y,8D7X,8D7W,8D7V,8D7U,8CVP,9DQD,8UH6,6BOY,6BNB,6BN9,6BN8,6BN7,6XK9,6UML,5V3O,5HXB,7U8F,8OJH,8OIZ,7LPS,4TZ4,9DJX,9DJT,8U17,8U16,8U15,8TZX,8DEY,9CUO,4M91

> <UniProt (SwissProt) Recommended Name of Target Chain>
Protein cereblon

> <UniProt (SwissProt) Entry Name of Target Chain>
CRBN_HUMAN

> <UniProt (SwissProt) Primary ID of Target Chain>
Q96SW2

> <UniProt (SwissProt) Secondary ID(s) of Target Chain>
B2R6H4 C9IZA9 C9JAH6 Q6AI62 Q6NVZ0 Q9UHW4

> <UniProt (SwissProt) Alternative ID(s) of Target Chain>


> <UniProt (TrEMBL) Submitted Name of Target Chain>


> <UniProt (TrEMBL) Entry Name of Target Chain>


> <UniProt (TrEMBL) Primary ID of Target Chain>


> <UniProt (TrEMBL) Secondary ID(s) of Target Chain>


> <UniProt (TrEMBL) Alternative ID(s) of Target Chain>


$$$$

     RDKit          2D

 62 70  0  0  0  0  0  0  0  0999 V2000
    0.0000   -9.6073    0.0000 O   0  0  0  0  0  0  0  0  0  0  0  0
    0.0000   -8.1073    0.0000 C   0  0  0  0  0  0  0  0  0  0  0  0
   -1.2990   -7.3573    0.0000 C   0  0  0  0  0  0  0  0  0  0  0  0
   -1.2990   -5.8573    0.0000 C   0  0  0  0  0  0  0  0  0  0  0  0
    0.0000   -5.1073    0.0000 C   0  0  0  0  0  0  0  0  0  0  0  0
    0.0000   -3.6073    0.0000 N   0  0  0  0  0  0  0  0  0  0  0  0
    1.2135   -2.7256    0.0000 C   0  0  0  0  0  0  0  0  0  0  0  0
    2.6401   -3.1891    0.0000 O   0  0  0  0  0  0  0  0  0  0  0  0
    0.7500   -1.2990    0.0000 C   0  0  0  0  0  0  0  0  0  0  0  0
    1.5000    0.0000    0.0000 C   0  0  0  0  0  0  0  0  0  0  0  0
    0.7500    1.2990    0.0000 C   0  0  0  0  0  0  0  0  0  0  0  0
   -0.7500    1.2990    0.0000 C   0  0  0  0  0  0  0  0  0  0  0  0
   -1.5000    0.0000    0.0000 C   0  0  0  0  0  0  0  0  0  0  0  0
   -3.0000    0.0000    0.0000 N   0  0  0  0  0  0  0  0  0  0  0  0
   -3.7500    1.2990    0.0000 C   0  0  0  0  0  0  0  0  0  0  0  0
   -5.2500    1.2990    0.0000 C   0  0  0  0  0  0  0  0  0  0  0  0
   -6.3107    2.3597    0.0000 C   0  0  0  0  0  0  0  0  0  0  0  0
   -7.3713    1.2990    0.0000 C   0  0  0  0  0  0  0  0  0  0  0  0
   -8.1213    2.5981    0.0000 C   0  0  0  0  0  0  0  0  0  0  0  0
   -9.6213    2.5981    0.0000 C   0  0  0  0  0  0  0  0  0  0  0  0
  -10.3713    1.2990    0.0000 N   0  0  0  0  0  0  0  0  0  0  0  0
  -11.8713    1.2990    0.0000 C   0  0  0  0  0  0  0  0  0  0  0  0
  -12.6213    2.5981    0.0000 C   0  0  0  0  0  0  0  0  0  0  0  0
  -11.8713    3.8971    0.0000 C   0  0  0  0  0  0  0  0  0  0  0  0
  -12.6213    5.1962    0.0000 C   0  0  0  0  0  0  0  0  0  0  0  0
  -14.1213    5.1962    0.0000 C   0  0  0  0  0  0  0  0  0  0  0  0
  -14.8713    6.4952    0.0000 N   0  0  0  0  0  0  0  0  0  0  0  0
  -16.3631    6.6520    0.0000 C   0  0  0  0  0  0  0  0  0  0  0  0
  -16.6750    8.1192    0.0000 C   0  0  0  0  0  0  0  0  0  0  0  0
  -17.9740    8.8692    0.0000 C   0  0  0  0  0  0  0  0  0  0  0  0
  -17.9740   10.3692    0.0000 C   0  0  0  0  0  0  0  0  0  0  0  0
  -19.2730   11.1192    0.0000 N   0  0  0  0  0  0  0  0  0  0  0  0
  -20.5721   10.3692    0.0000 C   0  0  0  0  0  0  0  0  0  0  0  0
  -20.5721    8.8692    0.0000 O   0  0  0  0  0  0  0  0  0  0  0  0
  -21.8711   11.1192    0.0000 C   0  0  0  0  0  0  0  0  0  0  0  0
  -23.1702   10.3692    0.0000 C   0  0  0  0  0  0  0  0  0  0  0  0
  -24.4692   11.1192    0.0000 C   0  0  0  0  0  0  0  0  0  0  0  0
  -24.4692   12.6192    0.0000 C   0  0  0  0  0  0  0  0  0  0  0  0
  -23.1702   13.3692    0.0000 C   0  0  0  0  0  0  0  0  0  0  0  0
  -23.1702   14.8692    0.0000 C   0  0  0  0  0  0  0  0  0  0  0  0
  -23.1702   16.3692    0.0000 F   0  0  0  0  0  0  0  0  0  0  0  0
  -24.6702   14.8692    0.0000 F   0  0  0  0  0  0  0  0  0  0  0  0
  -21.6702   14.8692    0.0000 F   0  0  0  0  0  0  0  0  0  0  0  0
  -21.8711   12.6192    0.0000 N   0  0  0  0  0  0  0  0  0  0  0  0
  -16.6750   11.1192    0.0000 C   0  0  0  0  0  0  0  0  0  0  0  0
  -16.6750   12.6192    0.0000 C   0  0  0  0  0  0  0  0  0  0  0  0
  -17.9740   13.3692    0.0000 F   0  0  0  0  0  0  0  0  0  0  0  0
  -15.3759   13.3692    0.0000 F   0  0  0  0  0  0  0  0  0  0  0  0
  -15.3759   10.3692    0.0000 C   0  0  0  0  0  0  0  0  0  0  0  0
  -15.3759    8.8692    0.0000 C   0  0  0  0  0  0  0  0  0  0  0  0
  -14.2612    7.8655    0.0000 N   0  0  0  0  0  0  0  0  0  0  0  0
  -14.8713    3.8971    0.0000 C   0  0  0  0  0  0  0  0  0  0  0  0
  -14.1213    2.5981    0.0000 C   0  0  0  0  0  0  0  0  0  0  0  0
   -9.6213   -0.0000    0.0000 C   0  0  0  0  0  0  0  0  0  0  0  0
   -8.1213   -0.0000    0.0000 C   0  0  0  0  0  0  0  0  0  0  0  0
   -6.3107    0.2384    0.0000 C   0  0  0  0  0  0  0  0  0  0  0  0
   -0.7500   -1.2990    0.0000 C   0  0  0  0  0  0  0  0  0  0  0  0
   -1.2135   -2.7256    0.0000 C   0  0  0  0  0  0  0  0  0  0  0  0
   -2.6401   -3.1891    0.0000 O   0  0  0  0  0  0  0  0  0  0  0  0
    1.2990   -5.8573    0.0000 C   0  0  0  0  0  0  0  0  0  0  0  0
    2.5981   -5.1073    0.0000 O   0  0  0  0  0  0  0  0  0  0  0  0
    1.2990   -7.3573    0.0000 N   0  0  0  0  0  0  0  0  0  0  0  0
  1  2  2  0
  2  3  1  0
  3  4  1  0
  4  5  1  0
  5  6  1  0
  6  7  1  0
  7  8  2  0
  7  9  1  0
  9 10  2  0
 10 11  1  0
 11 12  2  0
 12 13  1  0
 13 14  1  0
 14 15  1  0
 15 16  1  0
 16 17  1  0
 17 18  1  0
 18 19  1  0
 19 20  1  0
 20 21  1  0
 21 22  1  0
 23 22  1  6
 23 24  1  0
 24 25  1  0
 25 26  1  0
 26 27  1  1
 27 28  1  0
 28 29  2  0
 29 30  1  0
 30 31  2  0
 31 32  1  0
 32 33  1  0
 33 34  2  0
 33 35  1  0
 35 36  2  0
 36 37  1  0
 37 38  2  0
 38 39  1  0
 39 40  1  0
 40 41  1  0
 40 42  1  0
 40 43  1  0
 39 44  2  0
 31 45  1  0
 45 46  1  0
 46 47  1  0
 46 48  1  0
 45 49  2  0
 49 50  1  0
 50 51  2  0
 26 52  1  0
 52 53  1  0
 21 54  1  0
 54 55  1  0
 18 56  1  0
 13 57  2  0
 57 58  1  0
 58 59  2  0
  5 60  1  0
 60 61  2  0
 60 62  1  0
 62  2  1  0
 58  6  1  0
 57  9  1  0
 56 16  1  0
 55 18  1  0
 53 23  1  0
 51 27  1  0
 50 29  1  0
 44 35  1  0
M  END
> <From>
www.bindingDB.org

> <BindingDB Reactant_set_id>
51589167

> <Ligand InChI>
InChI=1S/C44H45F5N8O5/c45-38(46)29-18-32-26(17-33(29)52-39(59)31-5-2-6-35(51-31)44(47,48)49)23-56(54-32)27-9-7-24(8-10-27)22-55-15-13-43(14-16-55)19-25(20-43)21-50-30-4-1-3-28-37(30)42(62)57(41(28)61)34-11-12-36(58)53-40(34)60/h1-6,17-18,23-25,27,34,38,50H,7-16,19-22H2,(H,52,59)(H,53,58,60)

> <Ligand InChI Key>
DSZVFSMDHQLFKQ-UHFFFAOYSA-N

> <BindingDB MonomerID>
50639850

> <BindingDB Ligand Name>
CHEMBL5556704

> <Target Name>
Protein cereblon

> <Target Source Organism According to Curator or DataSource>
Human

> <Ki (nM)>


> <IC50 (nM)>
 58

> <Kd (nM)>


> <EC50 (nM)>


> <kon (M-1-s-1)>


> <koff (s-1)>


> <pH>


> <Temp C>


> <Curation/DataSource>
ChEMBL

> <Article DOI>


> <BindingDB Entry DOI>
10.7270/Q23F4V8G

> <PMID>
38920289

> <PubChem AID>


> <Patent Number>


> <Authors>
Weiss, MM; Zheng, X; Ji, N; Browne, CM; Campbell, V; Chen, D; Enerson, B; Fei, X; Huang, X; Klaus, CR; Li, H; Mayo, M; McDonald, AA; Paul, A; Rong, H; Sharma, K; Shi, Y; Slavin, A; Walther, DM; Yuan, K; Zhang, Y; Zhu, X; Kelleher, J; Walker, D; Mainolfi, N

> <Date of publication>
//0

> <Date in BindingDB>
10/11/2025

> <Institution>
Kymera Therapeutics

> <Link to Ligand in BindingDB>
http://www.bindingdb.org/bind/chemsearch/marvin/MolStructure.jsp?monomerid=50639850

> <Link to Ligand-Target Pair in BindingDB>
http://www.bindingdb.org/rwd/jsp/dbsearch/PrimarySearch_ki.jsp?energyterm=kJ/mole&tag=pol&polymerid=50007050&target=Protein+cereblon&column=ki&startPg=0&Increment=50&submit=Search

> <Link to Ligand-Target Pair in BindingDB>
http://www.bindingdb.org/rwd/jsp/dbsearch/PrimarySearch_ki.jsp?energyterm=kJ/mole&tag=r21&monomerid=50639850&enzyme=Protein+cereblon&column=ki&startPg=0&Increment=50&submit=Search

> <Ligand HET ID in PDB>


> <PDB ID(s) for Ligand-Target Complex>


> <PubChem CID of Ligand>
170244817

> <PubChem SID of Ligand>
519660253

> <ChEBI ID of Ligand>


> <ChEMBL ID of Ligand>


> <DrugBank ID of Ligand>


> <IUPHAR_GRAC ID of Ligand>


> <KEGG ID of Ligand>


> <ZINC ID of Ligand>


> <Number of Protein Chains in Target (bigger than 1 implies a multichain complex)>
1

> <BindingDB Target Chain Sequence>
MAGEGDQQDAAHNMGNHLPLLPAESEEEDEMEVEDQDSKEAKKPNIINFDTSLPTSHTYLGADMEEFHGRTLHDDDSCQVIPVLPQVMMILIPGQTLPLQLFHPQEVSMVRNLIQKDRTFAVLAYSNVQEREAQFGTTAEIYAYREEQDFGIEIVKVKAIGRQRFKVLELRTQSDGIQQAKVQILPECVLPSTMSAVQLESLNKCQIFPSKPVSREDQCSYKWWQKYQKRKFHCANLTSWPRWLYSLYDAETLMDRIKKQLREWDENLKDDSLPSNPIDFSYRVAACLPIDDVLRIQLLKIGSAIQRLRCELDIMNKCTSLCCKQCQETEITTKNEIFSLSLCGPMAAYVNPHGYVHETLTVYKACNLNLIGRPSTEHSWFPGYAWTVAQCKICASHIGWKFTATKKDMSPQKFWGLTRSALLPTIPDTEDEISPDKVILCL

> <PDB ID(s) of Target Chain>
9DUR,8TNR,8TNQ,8TNP,9DWW,9DWV,9NGT,9NFR,9NFQ,8D81,8D80,8D7Z,8D7Y,8D7X,8D7W,8D7V,8D7U,8CVP,9Q2D,9Q03,9DQD,8UH6,9SAI,9SAF,9H59,9E2U,6BOY,6BNB,6BN9,6BN8,6BN7,9OUL,9Y7D,6XK9,6UML,5V3O,5HXB,9HNE,9D0X,9D0W,7U8F,9FJX,8OJH,8OIZ,7LPS,9SFM,9OTY,4TZ4,9DJX,9DJT,8U17,8U16,8U15,8TZX,8DEY,9CUO,4M91

> <UniProt (SwissProt) Recommended Name of Target Chain>
Protein cereblon

> <UniProt (SwissProt) Entry Name of Target Chain>
CRBN_HUMAN

> <UniProt (SwissProt) Primary ID of Target Chain>
Q96SW2

> <UniProt (SwissProt) Secondary ID(s) of Target Chain>
B2R6H4 C9IZA9 C9JAH6 Q6AI62 Q6NVZ0 Q9UHW4

> <UniProt (SwissProt) Alternative ID(s) of Target Chain>


> <UniProt (TrEMBL) Submitted Name of Target Chain>


> <UniProt (TrEMBL) Entry Name of Target Chain>


> <UniProt (TrEMBL) Primary ID of Target Chain>


> <UniProt (TrEMBL) Secondary ID(s) of Target Chain>


> <UniProt (TrEMBL) Alternative ID(s) of Target Chain>


$$$$

     RDKit          2D

 58 64  0  0  0  0  0  0  0  0999 V2000
    7.5000   -5.1962    0.0000 C   0  0  0  0  0  0  0  0  0  0  0  0
    6.0000   -5.1962    0.0000 N   0  0  0  0  0  0  0  0  0  0  0  0
    5.2500   -3.8971    0.0000 C   0  0  0  0  0  0  0  0  0  0  0  0
    3.7500   -3.8971    0.0000 C   0  0  0  0  0  0  0  0  0  0  0  0
    3.0000   -2.5981    0.0000 C   0  0  0  0  0  0  0  0  0  0  0  0
    1.5000   -2.5981    0.0000 N   0  0  0  0  0  0  0  0  0  0  0  0
    0.7500   -1.2990    0.0000 C   0  0  0  0  0  0  0  0  0  0  0  0
    1.5000    0.0000    0.0000 C   0  0  0  0  0  0  0  0  0  0  0  0
    0.7500    1.2990    0.0000 C   0  0  0  0  0  0  0  0  0  0  0  0
   -0.7500    1.2990    0.0000 C   0  0  0  0  0  0  0  0  0  0  0  0
   -1.5000    0.0000    0.0000 C   0  0  0  0  0  0  0  0  0  0  0  0
   -0.7500   -1.2990    0.0000 C   0  0  0  0  0  0  0  0  0  0  0  0
   -1.7537   -2.4138    0.0000 C   0  0  0  0  0  0  0  0  0  0  0  0
   -1.4418   -3.8810    0.0000 O   0  0  0  0  0  0  0  0  0  0  0  0
   -3.1240   -1.8037    0.0000 N   0  0  0  0  0  0  0  0  0  0  0  0
   -4.4231   -2.5537    0.0000 C   0  0  0  0  0  0  0  0  0  0  0  0
   -5.7221   -1.8037    0.0000 C   0  0  0  0  0  0  0  0  0  0  0  0
   -7.0211   -2.5537    0.0000 C   0  0  0  0  0  0  0  0  0  0  0  0
   -7.0211   -4.0537    0.0000 C   0  0  0  0  0  0  0  0  0  0  0  0
   -8.3202   -4.8037    0.0000 O   0  0  0  0  0  0  0  0  0  0  0  0
   -5.7221   -4.8037    0.0000 N   0  0  0  0  0  0  0  0  0  0  0  0
   -4.4231   -4.0537    0.0000 C   0  0  0  0  0  0  0  0  0  0  0  0
   -3.1240   -4.8037    0.0000 O   0  0  0  0  0  0  0  0  0  0  0  0
   -2.9672   -0.3119    0.0000 C   0  0  0  0  0  0  0  0  0  0  0  0
   -4.0819    0.6918    0.0000 O   0  0  0  0  0  0  0  0  0  0  0  0
    5.2500   -6.4952    0.0000 C   0  0  0  0  0  0  0  0  0  0  0  0
    6.0000   -7.7942    0.0000 C   0  0  0  0  0  0  0  0  0  0  0  0
    5.2500   -9.0933    0.0000 C   0  0  0  0  0  0  0  0  0  0  0  0
    6.0000  -10.3923    0.0000 C   0  0  0  0  0  0  0  0  0  0  0  0
    7.5000  -10.3923    0.0000 C   0  0  0  0  0  0  0  0  0  0  0  0
    8.2500  -11.6913    0.0000 N   0  0  0  0  0  0  0  0  0  0  0  0
    9.7418  -11.8481    0.0000 C   0  0  0  0  0  0  0  0  0  0  0  0
   10.0537  -13.3154    0.0000 C   0  0  0  0  0  0  0  0  0  0  0  0
   11.3527  -14.0654    0.0000 C   0  0  0  0  0  0  0  0  0  0  0  0
   11.3527  -15.5654    0.0000 C   0  0  0  0  0  0  0  0  0  0  0  0
   12.6517  -16.3154    0.0000 N   0  0  0  0  0  0  0  0  0  0  0  0
   13.9508  -15.5654    0.0000 C   0  0  0  0  0  0  0  0  0  0  0  0
   13.9508  -14.0654    0.0000 O   0  0  0  0  0  0  0  0  0  0  0  0
   15.2498  -16.3154    0.0000 C   0  0  0  0  0  0  0  0  0  0  0  0
   16.5488  -15.5654    0.0000 C   0  0  0  0  0  0  0  0  0  0  0  0
   17.8479  -16.3154    0.0000 C   0  0  0  0  0  0  0  0  0  0  0  0
   17.8479  -17.8154    0.0000 C   0  0  0  0  0  0  0  0  0  0  0  0
   16.5488  -18.5654    0.0000 C   0  0  0  0  0  0  0  0  0  0  0  0
   16.5488  -20.0654    0.0000 C   0  0  0  0  0  0  0  0  0  0  0  0
   16.5488  -21.5654    0.0000 F   0  0  0  0  0  0  0  0  0  0  0  0
   18.0488  -20.0654    0.0000 F   0  0  0  0  0  0  0  0  0  0  0  0
   15.0488  -20.0654    0.0000 F   0  0  0  0  0  0  0  0  0  0  0  0
   15.2498  -17.8154    0.0000 N   0  0  0  0  0  0  0  0  0  0  0  0
   10.0537  -16.3154    0.0000 C   0  0  0  0  0  0  0  0  0  0  0  0
   10.0537  -17.8154    0.0000 C   0  0  0  0  0  0  0  0  0  0  0  0
    8.5537  -17.8154    0.0000 C   0  0  0  0  0  0  0  0  0  0  0  0
   11.5537  -17.8154    0.0000 C   0  0  0  0  0  0  0  0  0  0  0  0
   10.0537  -19.3154    0.0000 O   0  0  0  0  0  0  0  0  0  0  0  0
    8.7546  -15.5654    0.0000 C   0  0  0  0  0  0  0  0  0  0  0  0
    8.7546  -14.0654    0.0000 C   0  0  0  0  0  0  0  0  0  0  0  0
    7.6399  -13.0617    0.0000 N   0  0  0  0  0  0  0  0  0  0  0  0
    8.2500   -9.0933    0.0000 C   0  0  0  0  0  0  0  0  0  0  0  0
    7.5000   -7.7942    0.0000 C   0  0  0  0  0  0  0  0  0  0  0  0
  1  2  1  0
  2  3  1  0
  3  4  1  0
  4  5  1  0
  5  6  1  0
  6  7  1  0
  7  8  2  0
  8  9  1  0
  9 10  2  0
 10 11  1  0
 11 12  2  0
 12 13  1  0
 13 14  2  0
 13 15  1  0
 15 16  1  0
 16 17  1  0
 17 18  1  0
 18 19  1  0
 19 20  2  0
 19 21  1  0
 21 22  1  0
 22 23  2  0
 15 24  1  0
 24 25  2  0
  2 26  1  0
 27 26  1  6
 27 28  1  0
 28 29  1  0
 29 30  1  0
 30 31  1  1
 31 32  1  0
 32 33  2  0
 33 34  1  0
 34 35  2  0
 35 36  1  0
 36 37  1  0
 37 38  2  0
 37 39  1  0
 39 40  2  0
 40 41  1  0
 41 42  2  0
 42 43  1  0
 43 44  1  0
 44 45  1  0
 44 46  1  0
 44 47  1  0
 43 48  2  0
 35 49  1  0
 49 50  1  0
 50 51  1  0
 50 52  1  0
 50 53  1  0
 49 54  2  0
 54 55  1  0
 55 56  2  0
 30 57  1  0
 57 58  1  0
 12  7  1  0
 22 16  1  0
 58 27  1  0
 24 11  1  0
 56 31  1  0
 55 33  1  0
 48 39  1  0
M  END
> <From>
www.bindingDB.org

> <BindingDB Reactant_set_id>
51589152

> <Ligand InChI>
InChI=1S/C41H45F3N8O6/c1-40(2,58)27-20-30-24(19-31(27)47-36(54)29-9-5-10-33(46-29)41(42,43)44)22-51(49-30)25-13-11-23(12-14-25)21-50(3)18-6-17-45-28-8-4-7-26-35(28)39(57)52(38(26)56)32-15-16-34(53)48-37(32)55/h4-5,7-10,19-20,22-23,25,32,45,58H,6,11-18,21H2,1-3H3,(H,47,54)(H,48,53,55)

> <Ligand InChI Key>
FPHKCZOCTJCWAD-UHFFFAOYSA-N

> <BindingDB MonomerID>
50639836

> <BindingDB Ligand Name>
CHEMBL5567766

> <Target Name>
Protein cereblon

> <Target Source Organism According to Curator or DataSource>
Human

> <Ki (nM)>


> <IC50 (nM)>
 62

> <Kd (nM)>


> <EC50 (nM)>


> <kon (M-1-s-1)>


> <koff (s-1)>


> <pH>


> <Temp C>


> <Curation/DataSource>
ChEMBL

> <Article DOI>


> <BindingDB Entry DOI>
10.7270/Q23F4V8G

> <PMID>
38920289

> <PubChem AID>


> <Patent Number>


> <Authors>
Weiss, MM; Zheng, X; Ji, N; Browne, CM; Campbell, V; Chen, D; Enerson, B; Fei, X; Huang, X; Klaus, CR; Li, H; Mayo, M; McDonald, AA; Paul, A; Rong, H; Sharma, K; Shi, Y; Slavin, A; Walther, DM; Yuan, K; Zhang, Y; Zhu, X; Kelleher, J; Walker, D; Mainolfi, N

> <Date of publication>
//0

> <Date in BindingDB>
10/11/2025

> <Institution>
Kymera Therapeutics

> <Link to Ligand in BindingDB>
http://www.bindingdb.org/bind/chemsearch/marvin/MolStructure.jsp?monomerid=50639836

> <Link to Ligand-Target Pair in BindingDB>
http://www.bindingdb.org/rwd/jsp/dbsearch/PrimarySearch_ki.jsp?energyterm=kJ/mole&tag=pol&polymerid=50007050&target=Protein+cereblon&column=ki&startPg=0&Increment=50&submit=Search

> <Link to Ligand-Target Pair in BindingDB>
http://www.bindingdb.org/rwd/jsp/dbsearch/PrimarySearch_ki.jsp?energyterm=kJ/mole&tag=r21&monomerid=50639836&enzyme=Protein+cereblon&column=ki&startPg=0&Increment=50&submit=Search

> <Ligand HET ID in PDB>


> <PDB ID(s) for Ligand-Target Complex>


> <PubChem CID of Ligand>
167156586

> <PubChem SID of Ligand>
519660239

> <ChEBI ID of Ligand>


> <ChEMBL ID of Ligand>


> <DrugBank ID of Ligand>


> <IUPHAR_GRAC ID of Ligand>


> <KEGG ID of Ligand>


> <ZINC ID of Ligand>


> <Number of Protein Chains in Target (bigger than 1 implies a multichain complex)>
1

> <BindingDB Target Chain Sequence>
MAGEGDQQDAAHNMGNHLPLLPAESEEEDEMEVEDQDSKEAKKPNIINFDTSLPTSHTYLGADMEEFHGRTLHDDDSCQVIPVLPQVMMILIPGQTLPLQLFHPQEVSMVRNLIQKDRTFAVLAYSNVQEREAQFGTTAEIYAYREEQDFGIEIVKVKAIGRQRFKVLELRTQSDGIQQAKVQILPECVLPSTMSAVQLESLNKCQIFPSKPVSREDQCSYKWWQKYQKRKFHCANLTSWPRWLYSLYDAETLMDRIKKQLREWDENLKDDSLPSNPIDFSYRVAACLPIDDVLRIQLLKIGSAIQRLRCELDIMNKCTSLCCKQCQETEITTKNEIFSLSLCGPMAAYVNPHGYVHETLTVYKACNLNLIGRPSTEHSWFPGYAWTVAQCKICASHIGWKFTATKKDMSPQKFWGLTRSALLPTIPDTEDEISPDKVILCL

> <PDB ID(s) of Target Chain>
9DUR,8TNR,8TNQ,8TNP,9DWW,9DWV,9NGT,9NFR,9NFQ,8D81,8D80,8D7Z,8D7Y,8D7X,8D7W,8D7V,8D7U,8CVP,9Q2D,9Q03,9DQD,8UH6,9SAI,9SAF,9H59,9E2U,6BOY,6BNB,6BN9,6BN8,6BN7,9OUL,9Y7D,6XK9,6UML,5V3O,5HXB,9HNE,9D0X,9D0W,7U8F,9FJX,8OJH,8OIZ,7LPS,9SFM,9OTY,4TZ4,9DJX,9DJT,8U17,8U16,8U15,8TZX,8DEY,9CUO,4M91

> <UniProt (SwissProt) Recommended Name of Target Chain>
Protein cereblon

> <UniProt (SwissProt) Entry Name of Target Chain>
CRBN_HUMAN

> <UniProt (SwissProt) Primary ID of Target Chain>
Q96SW2

> <UniProt (SwissProt) Secondary ID(s) of Target Chain>
B2R6H4 C9IZA9 C9JAH6 Q6AI62 Q6NVZ0 Q9UHW4

> <UniProt (SwissProt) Alternative ID(s) of Target Chain>


> <UniProt (TrEMBL) Submitted Name of Target Chain>


> <UniProt (TrEMBL) Entry Name of Target Chain>


> <UniProt (TrEMBL) Primary ID of Target Chain>


> <UniProt (TrEMBL) Secondary ID(s) of Target Chain>


> <UniProt (TrEMBL) Alternative ID(s) of Target Chain>


$$$$

     RDKit          2D

 61 69  0  0  0  0  0  0  0  0999 V2000
    1.3299    5.6152    0.0000 C   0  0  0  0  0  0  0  0  0  0  0  0
   -0.0967    5.1517    0.0000 O   0  0  0  0  0  0  0  0  0  0  0  0
   -0.4086    3.6844    0.0000 C   0  0  0  0  0  0  0  0  0  0  0  0
    0.7062    2.6807    0.0000 C   0  0  0  0  0  0  0  0  0  0  0  0
    0.3943    1.2135    0.0000 C   0  0  0  0  0  0  0  0  0  0  0  0
    1.2760    0.0000    0.0000 N   0  0  0  0  0  0  0  0  0  0  0  0
    0.3943   -1.2135    0.0000 N   0  0  0  0  0  0  0  0  0  0  0  0
    0.8578   -2.6401    0.0000 C   0  0  0  0  0  0  0  0  0  0  0  0
   -0.1459   -3.7548    0.0000 C   0  0  0  0  0  0  0  0  0  0  0  0
    0.3177   -5.1814    0.0000 C   0  0  0  0  0  0  0  0  0  0  0  0
    1.7849   -5.4933    0.0000 C   0  0  0  0  0  0  0  0  0  0  0  0
    2.2484   -6.9199    0.0000 C   0  0  0  0  0  0  0  0  0  0  0  0
    1.2447   -8.0346    0.0000 N   0  0  0  0  0  0  0  0  0  0  0  0
   -0.2225   -7.7227    0.0000 C   0  0  0  0  0  0  0  0  0  0  0  0
   -1.2262   -8.8374    0.0000 C   0  0  0  0  0  0  0  0  0  0  0  0
   -0.7627  -10.2640    0.0000 C   0  0  0  0  0  0  0  0  0  0  0  0
    0.7045  -10.5759    0.0000 C   0  0  0  0  0  0  0  0  0  0  0  0
    1.7082   -9.4612    0.0000 C   0  0  0  0  0  0  0  0  0  0  0  0
   -2.2606  -10.3425    0.0000 C   0  0  0  0  0  0  0  0  0  0  0  0
   -2.1821  -11.8405    0.0000 C   0  0  0  0  0  0  0  0  0  0  0  0
   -3.1858  -12.9552    0.0000 C   0  0  0  0  0  0  0  0  0  0  0  0
   -4.6530  -12.6433    0.0000 N   0  0  0  0  0  0  0  0  0  0  0  0
   -5.6567  -13.7580    0.0000 C   0  0  0  0  0  0  0  0  0  0  0  0
   -5.1932  -15.1846    0.0000 C   0  0  0  0  0  0  0  0  0  0  0  0
   -6.1969  -16.2993    0.0000 C   0  0  0  0  0  0  0  0  0  0  0  0
   -7.6641  -15.9875    0.0000 C   0  0  0  0  0  0  0  0  0  0  0  0
   -8.1277  -14.5609    0.0000 C   0  0  0  0  0  0  0  0  0  0  0  0
   -7.1240  -13.4462    0.0000 C   0  0  0  0  0  0  0  0  0  0  0  0
   -7.8740  -12.1471    0.0000 C   0  0  0  0  0  0  0  0  0  0  0  0
   -7.2639  -10.7768    0.0000 O   0  0  0  0  0  0  0  0  0  0  0  0
   -9.3412  -12.4590    0.0000 N   0  0  0  0  0  0  0  0  0  0  0  0
  -10.4559  -11.4553    0.0000 C   0  0  0  0  0  0  0  0  0  0  0  0
  -10.1440   -9.9881    0.0000 C   0  0  0  0  0  0  0  0  0  0  0  0
  -11.2588   -8.9844    0.0000 C   0  0  0  0  0  0  0  0  0  0  0  0
  -12.6853   -9.4479    0.0000 C   0  0  0  0  0  0  0  0  0  0  0  0
  -13.8001   -8.4442    0.0000 O   0  0  0  0  0  0  0  0  0  0  0  0
  -12.9972  -10.9151    0.0000 N   0  0  0  0  0  0  0  0  0  0  0  0
  -11.8825  -11.9188    0.0000 C   0  0  0  0  0  0  0  0  0  0  0  0
  -12.1944  -13.3860    0.0000 O   0  0  0  0  0  0  0  0  0  0  0  0
   -9.4980  -13.9508    0.0000 C   0  0  0  0  0  0  0  0  0  0  0  0
  -10.7970  -14.7008    0.0000 O   0  0  0  0  0  0  0  0  0  0  0  0
   -0.6842  -11.7620    0.0000 C   0  0  0  0  0  0  0  0  0  0  0  0
    2.7886   -4.3786    0.0000 C   0  0  0  0  0  0  0  0  0  0  0  0
    2.3250   -2.9520    0.0000 C   0  0  0  0  0  0  0  0  0  0  0  0
   -1.0323   -0.7500    0.0000 C   0  0  0  0  0  0  0  0  0  0  0  0
   -1.0323    0.7500    0.0000 C   0  0  0  0  0  0  0  0  0  0  0  0
   -2.1470    1.7537    0.0000 C   0  0  0  0  0  0  0  0  0  0  0  0
   -1.8351    3.2209    0.0000 C   0  0  0  0  0  0  0  0  0  0  0  0
   -2.9499    4.2246    0.0000 N   0  0  0  0  0  0  0  0  0  0  0  0
   -2.6380    5.6918    0.0000 C   0  0  0  0  0  0  0  0  0  0  0  0
   -1.2114    6.1554    0.0000 O   0  0  0  0  0  0  0  0  0  0  0  0
   -3.7527    6.6955    0.0000 C   0  0  0  0  0  0  0  0  0  0  0  0
   -3.4408    8.1628    0.0000 C   0  0  0  0  0  0  0  0  0  0  0  0
   -4.5556    9.1664    0.0000 C   0  0  0  0  0  0  0  0  0  0  0  0
   -5.9821    8.7029    0.0000 C   0  0  0  0  0  0  0  0  0  0  0  0
   -6.2940    7.2357    0.0000 C   0  0  0  0  0  0  0  0  0  0  0  0
   -7.7206    6.7722    0.0000 C   0  0  0  0  0  0  0  0  0  0  0  0
   -9.1472    6.3086    0.0000 F   0  0  0  0  0  0  0  0  0  0  0  0
   -8.1841    8.1988    0.0000 F   0  0  0  0  0  0  0  0  0  0  0  0
   -7.2571    5.3456    0.0000 F   0  0  0  0  0  0  0  0  0  0  0  0
   -5.1793    6.2320    0.0000 N   0  0  0  0  0  0  0  0  0  0  0  0
  1  2  1  0
  2  3  1  0
  3  4  2  0
  4  5  1  0
  5  6  2  0
  6  7  1  0
  8  7  1  6
  8  9  1  0
  9 10  1  0
 10 11  1  0
 11 12  1  1
 12 13  1  0
 13 14  1  0
 14 15  1  0
 15 16  1  0
 16 17  1  0
 17 18  1  0
 16 19  1  0
 19 20  1  0
 20 21  1  0
 21 22  1  0
 22 23  1  0
 23 24  2  0
 24 25  1  0
 25 26  2  0
 26 27  1  0
 27 28  2  0
 28 29  1  0
 29 30  2  0
 29 31  1  0
 31 32  1  0
 32 33  1  0
 33 34  1  0
 34 35  1  0
 35 36  2  0
 35 37  1  0
 37 38  1  0
 38 39  2  0
 31 40  1  0
 40 41  2  0
 20 42  1  0
 11 43  1  0
 43 44  1  0
  7 45  1  0
 45 46  2  0
 46 47  1  0
 47 48  2  0
 48 49  1  0
 49 50  1  0
 50 51  2  0
 50 52  1  0
 52 53  2  0
 53 54  1  0
 54 55  2  0
 55 56  1  0
 56 57  1  0
 57 58  1  0
 57 59  1  0
 57 60  1  0
 56 61  2  0
 48  3  1  0
 61 52  1  0
 46  5  1  0
 44  8  1  0
 18 13  1  0
 28 23  1  0
 38 32  1  0
 42 16  1  0
 40 27  1  0
M  END
> <From>
www.bindingDB.org

> <BindingDB Reactant_set_id>
51589166

> <Ligand InChI>
InChI=1S/C44H47F3N8O6/c1-61-35-19-32-27(18-33(35)50-39(57)31-6-3-7-36(49-31)44(45,46)47)24-54(52-32)28-10-8-25(9-11-28)23-53-16-14-43(15-17-53)20-26(21-43)22-48-30-5-2-4-29-38(30)42(60)55(41(29)59)34-12-13-37(56)51-40(34)58/h2-7,18-19,24-26,28,34,48H,8-17,20-23H2,1H3,(H,50,57)(H,51,56,58)

> <Ligand InChI Key>
CDSPEECLQHSSQW-UHFFFAOYSA-N

> <BindingDB MonomerID>
50639849

> <BindingDB Ligand Name>
CHEMBL5561338

> <Target Name>
Protein cereblon

> <Target Source Organism According to Curator or DataSource>
Human

> <Ki (nM)>


> <IC50 (nM)>
 66

> <Kd (nM)>


> <EC50 (nM)>


> <kon (M-1-s-1)>


> <koff (s-1)>


> <pH>


> <Temp C>


> <Curation/DataSource>
ChEMBL

> <Article DOI>


> <BindingDB Entry DOI>
10.7270/Q23F4V8G

> <PMID>
38920289

> <PubChem AID>


> <Patent Number>


> <Authors>
Weiss, MM; Zheng, X; Ji, N; Browne, CM; Campbell, V; Chen, D; Enerson, B; Fei, X; Huang, X; Klaus, CR; Li, H; Mayo, M; McDonald, AA; Paul, A; Rong, H; Sharma, K; Shi, Y; Slavin, A; Walther, DM; Yuan, K; Zhang, Y; Zhu, X; Kelleher, J; Walker, D; Mainolfi, N

> <Date of publication>
//0

> <Date in BindingDB>
10/11/2025

> <Institution>
Kymera Therapeutics

> <Link to Ligand in BindingDB>
http://www.bindingdb.org/bind/chemsearch/marvin/MolStructure.jsp?monomerid=50639849

> <Link to Ligand-Target Pair in BindingDB>
http://www.bindingdb.org/rwd/jsp/dbsearch/PrimarySearch_ki.jsp?energyterm=kJ/mole&tag=pol&polymerid=50007050&target=Protein+cereblon&column=ki&startPg=0&Increment=50&submit=Search

> <Link to Ligand-Target Pair in BindingDB>
http://www.bindingdb.org/rwd/jsp/dbsearch/PrimarySearch_ki.jsp?energyterm=kJ/mole&tag=r21&monomerid=50639849&enzyme=Protein+cereblon&column=ki&startPg=0&Increment=50&submit=Search

> <Ligand HET ID in PDB>


> <PDB ID(s) for Ligand-Target Complex>


> <PubChem CID of Ligand>
155437934

> <PubChem SID of Ligand>
519660252

> <ChEBI ID of Ligand>


> <ChEMBL ID of Ligand>


> <DrugBank ID of Ligand>


> <IUPHAR_GRAC ID of Ligand>


> <KEGG ID of Ligand>


> <ZINC ID of Ligand>


> <Number of Protein Chains in Target (bigger than 1 implies a multichain complex)>
1

> <BindingDB Target Chain Sequence>
MAGEGDQQDAAHNMGNHLPLLPAESEEEDEMEVEDQDSKEAKKPNIINFDTSLPTSHTYLGADMEEFHGRTLHDDDSCQVIPVLPQVMMILIPGQTLPLQLFHPQEVSMVRNLIQKDRTFAVLAYSNVQEREAQFGTTAEIYAYREEQDFGIEIVKVKAIGRQRFKVLELRTQSDGIQQAKVQILPECVLPSTMSAVQLESLNKCQIFPSKPVSREDQCSYKWWQKYQKRKFHCANLTSWPRWLYSLYDAETLMDRIKKQLREWDENLKDDSLPSNPIDFSYRVAACLPIDDVLRIQLLKIGSAIQRLRCELDIMNKCTSLCCKQCQETEITTKNEIFSLSLCGPMAAYVNPHGYVHETLTVYKACNLNLIGRPSTEHSWFPGYAWTVAQCKICASHIGWKFTATKKDMSPQKFWGLTRSALLPTIPDTEDEISPDKVILCL

> <PDB ID(s) of Target Chain>
9DUR,8TNR,8TNQ,8TNP,9DWW,9DWV,9NGT,9NFR,9NFQ,8D81,8D80,8D7Z,8D7Y,8D7X,8D7W,8D7V,8D7U,8CVP,9Q2D,9Q03,9DQD,8UH6,9SAI,9SAF,9H59,9E2U,6BOY,6BNB,6BN9,6BN8,6BN7,9OUL,9Y7D,6XK9,6UML,5V3O,5HXB,9HNE,9D0X,9D0W,7U8F,9FJX,8OJH,8OIZ,7LPS,9SFM,9OTY,4TZ4,9DJX,9DJT,8U17,8U16,8U15,8TZX,8DEY,9CUO,4M91

> <UniProt (SwissProt) Recommended Name of Target Chain>
Protein cereblon

> <UniProt (SwissProt) Entry Name of Target Chain>
CRBN_HUMAN

> <UniProt (SwissProt) Primary ID of Target Chain>
Q96SW2

> <UniProt (SwissProt) Secondary ID(s) of Target Chain>
B2R6H4 C9IZA9 C9JAH6 Q6AI62 Q6NVZ0 Q9UHW4

> <UniProt (SwissProt) Alternative ID(s) of Target Chain>


> <UniProt (TrEMBL) Submitted Name of Target Chain>


> <UniProt (TrEMBL) Entry Name of Target Chain>


> <UniProt (TrEMBL) Primary ID of Target Chain>


> <UniProt (TrEMBL) Secondary ID(s) of Target Chain>


> <UniProt (TrEMBL) Alternative ID(s) of Target Chain>


$$$$
 
     RDKit          2D

 21 23  0  0  0  0  0  0  0  0999 V2000
   -3.4062    1.4833    0.0000 O   0  0  0  0  0  0  0  0  0  0  0  0
   -2.9949    0.7681    0.0000 S   0  0  0  0  0  0  0  0  0  0  0  0
   -2.5820    1.4833    0.0000 O   0  0  0  0  0  0  0  0  0  0  0  0
   -3.7087    0.3560    0.0000 F   0  0  0  0  0  0  0  0  0  0  0  0
   -2.2811    0.3560    0.0000 C   0  0  0  0  0  0  0  0  0  0  0  0
   -2.2811   -0.4714    0.0000 C   0  0  0  0  0  0  0  0  0  0  0  0
   -1.5655   -0.8790    0.0000 C   0  0  0  0  0  0  0  0  0  0  0  0
   -0.8563   -0.4677    0.0000 C   0  0  0  0  0  0  0  0  0  0  0  0
   -0.0725   -0.7224    0.0000 C   0  0  0  0  0  0  0  0  0  0  0  0
    0.4119   -0.0557    0.0000 N   0  0  0  0  0  0  0  0  0  0  0  0
    1.2361   -0.0557    0.0000 C   0  0  0  0  0  0  0  0  0  0  0  0
    1.6482   -0.7694    0.0000 C   0  0  0  0  0  0  0  0  0  0  0  0
    2.4724   -0.7694    0.0000 N   0  0  0  0  0  0  0  0  0  0  0  0
    2.8845   -0.0557    0.0000 C   0  0  0  0  0  0  0  0  0  0  0  0
    3.7087   -0.0557    0.0000 O   0  0  0  0  0  0  0  0  0  0  0  0
    2.4724    0.6580    0.0000 C   0  0  0  0  0  0  0  0  0  0  0  0
    1.6482    0.6580    0.0000 C   0  0  0  0  0  0  0  0  0  0  0  0
    1.2361   -1.4833    0.0000 O   0  0  0  0  0  0  0  0  0  0  0  0
   -0.0724    0.6111    0.0000 C   0  0  0  0  0  0  0  0  0  0  0  0
   -0.8563    0.3564    0.0000 C   0  0  0  0  0  0  0  0  0  0  0  0
   -1.5673    0.7678    0.0000 C   0  0  0  0  0  0  0  0  0  0  0  0
  2  1  2  0
  2  3  2  0
  2  4  1  0
  5  2  1  0
  5  6  1  0
  6  7  2  0
  7  8  1  0
  8  9  1  0
 10  9  1  0
 10 11  1  0
 11 12  1  0
 12 13  1  0
 13 14  1  0
 14 15  2  0
 14 16  1  0
 16 17  1  0
 17 11  1  0
 12 18  2  0
 19 10  1  0
 20 19  1  0
  8 20  2  0
 20 21  1  0
 21  5  2  0
M  END
> <From>
www.bindingDB.org

> <BindingDB Reactant_set_id>
51570923

> <Ligand InChI>
InChI=1S/C13H13FN2O4S/c14-21(19,20)10-2-1-8-6-16(7-9(8)5-10)11-3-4-12(17)15-13(11)18/h1-2,5,11H,3-4,6-7H2,(H,15,17,18)

> <Ligand InChI Key>
CXFJUNPGGLCGBA-UHFFFAOYSA-N

> <BindingDB MonomerID>
50631806

> <BindingDB Ligand Name>
CHEMBL5431003

> <Target Name>
Protein cereblon

> <Target Source Organism According to Curator or DataSource>
Homo sapiens

> <Ki (nM)>


> <IC50 (nM)>
 71

> <Kd (nM)>


> <EC50 (nM)>


> <kon (M-1-s-1)>


> <koff (s-1)>


> <pH>


> <Temp C>


> <Curation/DataSource>
ChEMBL

> <Article DOI>
10.1039/d3md00652b

> <BindingDB Entry DOI>
10.7270/Q2CV4P64

> <PMID>
38389883

> <PubChem AID>


> <Patent Number>


> <Authors>
Liu, Y; Nowak, RP; Che, J; Donovan, KA; Huerta, F; Liu, H; Metivier, RJ; Fischer, ES; Jones, LH

> <Date of publication>
2/21/2024

> <Date in BindingDB>
12/21/2024

> <Institution>
Dana-Farber Cancer Institute

> <Link to Ligand in BindingDB>
http://www.bindingdb.org/bind/chemsearch/marvin/MolStructure.jsp?monomerid=50631806

> <Link to Ligand-Target Pair in BindingDB>
http://www.bindingdb.org/jsp/dbsearch/PrimarySearch_ki.jsp?energyterm=kJ/mole&tag=pol&polymerid=50007050&target=Protein+cereblon&column=ki&startPg=0&Increment=50&submit=Search

> <Link to Ligand-Target Pair in BindingDB>
http://www.bindingdb.org/jsp/dbsearch/PrimarySearch_ki.jsp?energyterm=kJ/mole&tag=r21&monomerid=50631806&enzyme=Protein+cereblon&column=ki&startPg=0&Increment=50&submit=Search

> <Ligand HET ID in PDB>


> <PDB ID(s) for Ligand-Target Complex>


> <PubChem CID of Ligand>
172462308

> <PubChem SID of Ligand>
505036140

> <ChEBI ID of Ligand>


> <ChEMBL ID of Ligand>


> <DrugBank ID of Ligand>


> <IUPHAR_GRAC ID of Ligand>


> <KEGG ID of Ligand>


> <ZINC ID of Ligand>


> <Number of Protein Chains in Target (bigger than 1 implies a multichain complex)>
1

> <BindingDB Target Chain Sequence>
MAGEGDQQDAAHNMGNHLPLLPAESEEEDEMEVEDQDSKEAKKPNIINFDTSLPTSHTYLGADMEEFHGRTLHDDDSCQVIPVLPQVMMILIPGQTLPLQLFHPQEVSMVRNLIQKDRTFAVLAYSNVQEREAQFGTTAEIYAYREEQDFGIEIVKVKAIGRQRFKVLELRTQSDGIQQAKVQILPECVLPSTMSAVQLESLNKCQIFPSKPVSREDQCSYKWWQKYQKRKFHCANLTSWPRWLYSLYDAETLMDRIKKQLREWDENLKDDSLPSNPIDFSYRVAACLPIDDVLRIQLLKIGSAIQRLRCELDIMNKCTSLCCKQCQETEITTKNEIFSLSLCGPMAAYVNPHGYVHETLTVYKACNLNLIGRPSTEHSWFPGYAWTVAQCKICASHIGWKFTATKKDMSPQKFWGLTRSALLPTIPDTEDEISPDKVILCL

> <PDB ID(s) of Target Chain>
8TNR,8TNQ,8TNP,8D81,8D80,8D7Z,8D7Y,8D7X,8D7W,8D7V,8D7U,8CVP,9DQD,8UH6,6BOY,6BNB,6BN9,6BN8,6BN7,6XK9,6UML,5V3O,5HXB,7U8F,8OJH,8OIZ,7LPS,4TZ4,9DJX,9DJT,8U17,8U16,8U15,8TZX,8DEY,9CUO,4M91

> <UniProt (SwissProt) Recommended Name of Target Chain>
Protein cereblon

> <UniProt (SwissProt) Entry Name of Target Chain>
CRBN_HUMAN

> <UniProt (SwissProt) Primary ID of Target Chain>
Q96SW2

> <UniProt (SwissProt) Secondary ID(s) of Target Chain>
B2R6H4 C9IZA9 C9JAH6 Q6AI62 Q6NVZ0 Q9UHW4

> <UniProt (SwissProt) Alternative ID(s) of Target Chain>


> <UniProt (TrEMBL) Submitted Name of Target Chain>


> <UniProt (TrEMBL) Entry Name of Target Chain>


> <UniProt (TrEMBL) Primary ID of Target Chain>


> <UniProt (TrEMBL) Secondary ID(s) of Target Chain>


> <UniProt (TrEMBL) Alternative ID(s) of Target Chain>


$$$$

     RDKit          2D

 63 70  0  0  0  0  0  0  0  0999 V2000
   11.8713   -6.4952    0.0000 C   0  0  0  0  0  0  0  0  0  0  0  0
   11.1213   -5.1962    0.0000 N   0  0  0  0  0  0  0  0  0  0  0  0
    9.6213   -5.1962    0.0000 C   0  0  0  0  0  0  0  0  0  0  0  0
    8.8713   -3.8971    0.0000 C   0  0  0  0  0  0  0  0  0  0  0  0
    7.3713   -3.8971    0.0000 C   0  0  0  0  0  0  0  0  0  0  0  0
    6.6213   -2.5981    0.0000 O   0  0  0  0  0  0  0  0  0  0  0  0
    5.1213   -2.5981    0.0000 C   0  0  0  0  0  0  0  0  0  0  0  0
    4.0607   -1.5374    0.0000 C   0  0  0  0  0  0  0  0  0  0  0  0
    3.0000   -2.5981    0.0000 C   0  0  0  0  0  0  0  0  0  0  0  0
    1.5000   -2.5981    0.0000 N   0  0  0  0  0  0  0  0  0  0  0  0
    0.7500   -1.2990    0.0000 C   0  0  0  0  0  0  0  0  0  0  0  0
    1.5000    0.0000    0.0000 C   0  0  0  0  0  0  0  0  0  0  0  0
    0.7500    1.2990    0.0000 C   0  0  0  0  0  0  0  0  0  0  0  0
   -0.7500    1.2990    0.0000 C   0  0  0  0  0  0  0  0  0  0  0  0
   -1.5000    0.0000    0.0000 C   0  0  0  0  0  0  0  0  0  0  0  0
   -0.7500   -1.2990    0.0000 C   0  0  0  0  0  0  0  0  0  0  0  0
   -1.7537   -2.4138    0.0000 C   0  0  0  0  0  0  0  0  0  0  0  0
   -1.4418   -3.8810    0.0000 O   0  0  0  0  0  0  0  0  0  0  0  0
   -3.1240   -1.8037    0.0000 N   0  0  0  0  0  0  0  0  0  0  0  0
   -4.4231   -2.5537    0.0000 C   0  0  0  0  0  0  0  0  0  0  0  0
   -5.7221   -1.8037    0.0000 C   0  0  0  0  0  0  0  0  0  0  0  0
   -7.0211   -2.5537    0.0000 C   0  0  0  0  0  0  0  0  0  0  0  0
   -7.0211   -4.0537    0.0000 C   0  0  0  0  0  0  0  0  0  0  0  0
   -8.3202   -4.8037    0.0000 O   0  0  0  0  0  0  0  0  0  0  0  0
   -5.7221   -4.8037    0.0000 N   0  0  0  0  0  0  0  0  0  0  0  0
   -4.4231   -4.0537    0.0000 C   0  0  0  0  0  0  0  0  0  0  0  0
   -3.1240   -4.8037    0.0000 O   0  0  0  0  0  0  0  0  0  0  0  0
   -2.9672   -0.3119    0.0000 C   0  0  0  0  0  0  0  0  0  0  0  0
   -4.0819    0.6918    0.0000 O   0  0  0  0  0  0  0  0  0  0  0  0
    4.0607   -3.6587    0.0000 C   0  0  0  0  0  0  0  0  0  0  0  0
   11.8713   -3.8971    0.0000 C   0  0  0  0  0  0  0  0  0  0  0  0
   13.3713   -3.8971    0.0000 C   0  0  0  0  0  0  0  0  0  0  0  0
   14.1213   -5.1962    0.0000 C   0  0  0  0  0  0  0  0  0  0  0  0
   15.6213   -5.1962    0.0000 C   0  0  0  0  0  0  0  0  0  0  0  0
   16.3713   -3.8971    0.0000 C   0  0  0  0  0  0  0  0  0  0  0  0
   17.8713   -3.8971    0.0000 N   0  0  0  0  0  0  0  0  0  0  0  0
   18.7530   -2.6836    0.0000 C   0  0  0  0  0  0  0  0  0  0  0  0
   20.1796   -3.1471    0.0000 C   0  0  0  0  0  0  0  0  0  0  0  0
   21.4786   -2.3971    0.0000 C   0  0  0  0  0  0  0  0  0  0  0  0
   22.7777   -3.1471    0.0000 C   0  0  0  0  0  0  0  0  0  0  0  0
   24.0767   -2.3971    0.0000 N   0  0  0  0  0  0  0  0  0  0  0  0
   24.0767   -0.8971    0.0000 C   0  0  0  0  0  0  0  0  0  0  0  0
   22.7777   -0.1471    0.0000 O   0  0  0  0  0  0  0  0  0  0  0  0
   25.3757   -0.1471    0.0000 C   0  0  0  0  0  0  0  0  0  0  0  0
   25.3757    1.3529    0.0000 C   0  0  0  0  0  0  0  0  0  0  0  0
   26.6748    2.1029    0.0000 C   0  0  0  0  0  0  0  0  0  0  0  0
   27.9738    1.3529    0.0000 C   0  0  0  0  0  0  0  0  0  0  0  0
   27.9738   -0.1471    0.0000 C   0  0  0  0  0  0  0  0  0  0  0  0
   29.2728   -0.8971    0.0000 C   0  0  0  0  0  0  0  0  0  0  0  0
   30.5719   -1.6471    0.0000 F   0  0  0  0  0  0  0  0  0  0  0  0
   30.0228    0.4019    0.0000 F   0  0  0  0  0  0  0  0  0  0  0  0
   28.5228   -2.1962    0.0000 F   0  0  0  0  0  0  0  0  0  0  0  0
   26.6748   -0.8971    0.0000 N   0  0  0  0  0  0  0  0  0  0  0  0
   22.7777   -4.6471    0.0000 C   0  0  0  0  0  0  0  0  0  0  0  0
   24.0767   -5.3971    0.0000 C   0  0  0  0  0  0  0  0  0  0  0  0
   24.8267   -4.0981    0.0000 C   0  0  0  0  0  0  0  0  0  0  0  0
   23.3267   -6.6962    0.0000 C   0  0  0  0  0  0  0  0  0  0  0  0
   25.3757   -6.1471    0.0000 O   0  0  0  0  0  0  0  0  0  0  0  0
   21.4786   -5.3971    0.0000 C   0  0  0  0  0  0  0  0  0  0  0  0
   20.1796   -4.6471    0.0000 C   0  0  0  0  0  0  0  0  0  0  0  0
   18.7530   -5.1106    0.0000 N   0  0  0  0  0  0  0  0  0  0  0  0
   15.6213   -2.5981    0.0000 C   0  0  0  0  0  0  0  0  0  0  0  0
   14.1213   -2.5981    0.0000 C   0  0  0  0  0  0  0  0  0  0  0  0
  1  2  1  0
  2  3  1  0
  3  4  1  0
  4  5  1  0
  5  6  1  0
  7  6  1  6
  7  8  1  0
  8  9  1  0
  9 10  1  6
 10 11  1  0
 11 12  2  0
 12 13  1  0
 13 14  2  0
 14 15  1  0
 15 16  2  0
 16 17  1  0
 17 18  2  0
 17 19  1  0
 19 20  1  0
 20 21  1  0
 21 22  1  0
 22 23  1  0
 23 24  2  0
 23 25  1  0
 25 26  1  0
 26 27  2  0
 19 28  1  0
 28 29  2  0
  9 30  1  0
  2 31  1  0
 32 31  1  6
 32 33  1  0
 33 34  1  0
 34 35  1  0
 35 36  1  1
 36 37  1  0
 37 38  2  0
 38 39  1  0
 39 40  2  0
 40 41  1  0
 41 42  1  0
 42 43  2  0
 42 44  1  0
 44 45  2  0
 45 46  1  0
 46 47  2  0
 47 48  1  0
 48 49  1  0
 49 50  1  0
 49 51  1  0
 49 52  1  0
 48 53  2  0
 40 54  1  0
 54 55  1  0
 55 56  1  0
 55 57  1  0
 55 58  1  0
 54 59  2  0
 59 60  1  0
 60 61  2  0
 35 62  1  0
 62 63  1  0
 30  7  1  0
 63 32  1  0
 16 11  1  0
 26 20  1  0
 61 36  1  0
 28 15  1  0
 60 38  1  0
 53 44  1  0
M  END
> <From>
www.bindingDB.org

> <BindingDB Reactant_set_id>
51589156

> <Ligand InChI>
InChI=1S/C45H51F3N8O7/c1-44(2,62)31-22-34-26(19-35(31)51-40(58)33-9-5-10-37(50-33)45(46,47)48)24-55(53-34)28-13-11-25(12-14-28)23-54(3)17-6-18-63-29-20-27(21-29)49-32-8-4-7-30-39(32)43(61)56(42(30)60)36-15-16-38(57)52-41(36)59/h4-5,7-10,19,22,24-25,27-29,36,49,62H,6,11-18,20-21,23H2,1-3H3,(H,51,58)(H,52,57,59)

> <Ligand InChI Key>
CKFOAVDINFHZIR-UHFFFAOYSA-N

> <BindingDB MonomerID>
50639840

> <BindingDB Ligand Name>
CHEMBL5561261

> <Target Name>
Protein cereblon

> <Target Source Organism According to Curator or DataSource>
Human

> <Ki (nM)>


> <IC50 (nM)>
 75

> <Kd (nM)>


> <EC50 (nM)>


> <kon (M-1-s-1)>


> <koff (s-1)>


> <pH>


> <Temp C>


> <Curation/DataSource>
ChEMBL

> <Article DOI>


> <BindingDB Entry DOI>
10.7270/Q23F4V8G

> <PMID>
38920289

> <PubChem AID>


> <Patent Number>


> <Authors>
Weiss, MM; Zheng, X; Ji, N; Browne, CM; Campbell, V; Chen, D; Enerson, B; Fei, X; Huang, X; Klaus, CR; Li, H; Mayo, M; McDonald, AA; Paul, A; Rong, H; Sharma, K; Shi, Y; Slavin, A; Walther, DM; Yuan, K; Zhang, Y; Zhu, X; Kelleher, J; Walker, D; Mainolfi, N

> <Date of publication>
//0

> <Date in BindingDB>
10/11/2025

> <Institution>
Kymera Therapeutics

> <Link to Ligand in BindingDB>
http://www.bindingdb.org/bind/chemsearch/marvin/MolStructure.jsp?monomerid=50639840

> <Link to Ligand-Target Pair in BindingDB>
http://www.bindingdb.org/rwd/jsp/dbsearch/PrimarySearch_ki.jsp?energyterm=kJ/mole&tag=pol&polymerid=50007050&target=Protein+cereblon&column=ki&startPg=0&Increment=50&submit=Search

> <Link to Ligand-Target Pair in BindingDB>
http://www.bindingdb.org/rwd/jsp/dbsearch/PrimarySearch_ki.jsp?energyterm=kJ/mole&tag=r21&monomerid=50639840&enzyme=Protein+cereblon&column=ki&startPg=0&Increment=50&submit=Search

> <Ligand HET ID in PDB>


> <PDB ID(s) for Ligand-Target Complex>


> <PubChem CID of Ligand>
165437238

> <PubChem SID of Ligand>
519660243

> <ChEBI ID of Ligand>


> <ChEMBL ID of Ligand>


> <DrugBank ID of Ligand>


> <IUPHAR_GRAC ID of Ligand>


> <KEGG ID of Ligand>


> <ZINC ID of Ligand>


> <Number of Protein Chains in Target (bigger than 1 implies a multichain complex)>
1

> <BindingDB Target Chain Sequence>
MAGEGDQQDAAHNMGNHLPLLPAESEEEDEMEVEDQDSKEAKKPNIINFDTSLPTSHTYLGADMEEFHGRTLHDDDSCQVIPVLPQVMMILIPGQTLPLQLFHPQEVSMVRNLIQKDRTFAVLAYSNVQEREAQFGTTAEIYAYREEQDFGIEIVKVKAIGRQRFKVLELRTQSDGIQQAKVQILPECVLPSTMSAVQLESLNKCQIFPSKPVSREDQCSYKWWQKYQKRKFHCANLTSWPRWLYSLYDAETLMDRIKKQLREWDENLKDDSLPSNPIDFSYRVAACLPIDDVLRIQLLKIGSAIQRLRCELDIMNKCTSLCCKQCQETEITTKNEIFSLSLCGPMAAYVNPHGYVHETLTVYKACNLNLIGRPSTEHSWFPGYAWTVAQCKICASHIGWKFTATKKDMSPQKFWGLTRSALLPTIPDTEDEISPDKVILCL

> <PDB ID(s) of Target Chain>
9DUR,8TNR,8TNQ,8TNP,9DWW,9DWV,9NGT,9NFR,9NFQ,8D81,8D80,8D7Z,8D7Y,8D7X,8D7W,8D7V,8D7U,8CVP,9Q2D,9Q03,9DQD,8UH6,9SAI,9SAF,9H59,9E2U,6BOY,6BNB,6BN9,6BN8,6BN7,9OUL,9Y7D,6XK9,6UML,5V3O,5HXB,9HNE,9D0X,9D0W,7U8F,9FJX,8OJH,8OIZ,7LPS,9SFM,9OTY,4TZ4,9DJX,9DJT,8U17,8U16,8U15,8TZX,8DEY,9CUO,4M91

> <UniProt (SwissProt) Recommended Name of Target Chain>
Protein cereblon

> <UniProt (SwissProt) Entry Name of Target Chain>
CRBN_HUMAN

> <UniProt (SwissProt) Primary ID of Target Chain>
Q96SW2

> <UniProt (SwissProt) Secondary ID(s) of Target Chain>
B2R6H4 C9IZA9 C9JAH6 Q6AI62 Q6NVZ0 Q9UHW4

> <UniProt (SwissProt) Alternative ID(s) of Target Chain>


> <UniProt (TrEMBL) Submitted Name of Target Chain>


> <UniProt (TrEMBL) Entry Name of Target Chain>


> <UniProt (TrEMBL) Primary ID of Target Chain>


> <UniProt (TrEMBL) Secondary ID(s) of Target Chain>


> <UniProt (TrEMBL) Alternative ID(s) of Target Chain>


$$$$
 
     RDKit          2D

 58 66  0  0  0  0  0  0  0  0999 V2000
    3.9408    0.6848    0.0000 C   0  0  0  0  0  0  0  0  0  0  0  0
    3.2263    1.0973    0.0000 C   0  0  0  0  0  0  0  0  0  0  0  0
    3.2263    1.9223    0.0000 C   0  0  0  0  0  0  0  0  0  0  0  0
    2.5118    2.3349    0.0000 C   0  0  0  0  0  0  0  0  0  0  0  0
    1.7974    1.9223    0.0000 C   0  0  0  0  0  0  0  0  0  0  0  0
    1.7974    2.7473    0.0000 C   0  0  0  0  0  0  0  0  0  0  0  0
    1.0829    3.1598    0.0000 C   0  0  0  0  0  0  0  0  0  0  0  0
    0.3684    2.7473    0.0000 N   0  0  0  0  0  0  0  0  0  0  0  0
   -0.3459    3.1598    0.0000 C   0  0  0  0  0  0  0  0  0  0  0  0
   -1.0604    2.7473    0.0000 C   0  0  0  0  0  0  0  0  0  0  0  0
   -1.7748    3.1598    0.0000 N   0  0  0  0  0  0  0  0  0  0  0  0
   -2.4893    2.7473    0.0000 C   0  0  0  0  0  0  0  0  0  0  0  0
   -2.4893    1.9223    0.0000 O   0  0  0  0  0  0  0  0  0  0  0  0
   -3.2038    3.1598    0.0000 C   0  0  0  0  0  0  0  0  0  0  0  0
   -3.9182    2.7473    0.0000 C   0  0  0  0  0  0  0  0  0  0  0  0
   -4.5999    3.2120    0.0000 C   0  0  0  0  0  0  0  0  0  0  0  0
   -5.3882    2.9689    0.0000 N   0  0  0  0  0  0  0  0  0  0  0  0
   -5.8631    3.6435    0.0000 C   0  0  0  0  0  0  0  0  0  0  0  0
   -5.3683    4.3036    0.0000 N   0  0  0  0  0  0  0  0  0  0  0  0
   -4.5875    4.0369    0.0000 N   0  0  0  0  0  0  0  0  0  0  0  0
   -6.6880    3.6558    0.0000 C   0  0  0  0  0  0  0  0  0  0  0  0
   -5.6896    2.2008    0.0000 C   0  0  0  0  0  0  0  0  0  0  0  0
   -5.2771    1.4865    0.0000 C   0  0  0  0  0  0  0  0  0  0  0  0
   -5.8292    0.8733    0.0000 C   0  0  0  0  0  0  0  0  0  0  0  0
   -6.5828    1.2089    0.0000 C   0  0  0  0  0  0  0  0  0  0  0  0
   -6.4966    2.0294    0.0000 S   0  0  0  0  0  0  0  0  0  0  0  0
   -7.2973    0.7964    0.0000 C   0  0  0  0  0  0  0  0  0  0  0  0
   -5.6576    0.0664    0.0000 C   0  0  0  0  0  0  0  0  0  0  0  0
   -4.4614    1.3635    0.0000 C   0  0  0  0  0  0  0  0  0  0  0  0
   -4.2181    0.5750    0.0000 C   0  0  0  0  0  0  0  0  0  0  0  0
   -3.4139    0.3915    0.0000 C   0  0  0  0  0  0  0  0  0  0  0  0
   -3.1707   -0.3967    0.0000 C   0  0  0  0  0  0  0  0  0  0  0  0
   -3.7318   -1.0014    0.0000 C   0  0  0  0  0  0  0  0  0  0  0  0
   -3.4886   -1.7898    0.0000 Cl  0  0  0  0  0  0  0  0  0  0  0  0
   -4.5362   -0.8179    0.0000 C   0  0  0  0  0  0  0  0  0  0  0  0
   -4.7793   -0.0295    0.0000 C   0  0  0  0  0  0  0  0  0  0  0  0
   -3.8565    1.9246    0.0000 N   0  0  0  0  0  0  0  0  0  0  0  0
    0.3685    1.9223    0.0000 C   0  0  0  0  0  0  0  0  0  0  0  0
    1.0829    1.5099    0.0000 C   0  0  0  0  0  0  0  0  0  0  0  0
    1.7974    1.0973    0.0000 C   0  0  0  0  0  0  0  0  0  0  0  0
    2.5118    0.6848    0.0000 C   0  0  0  0  0  0  0  0  0  0  0  0
    3.9408   -0.1400    0.0000 C   0  0  0  0  0  0  0  0  0  0  0  0
    4.6553   -0.5526    0.0000 C   0  0  0  0  0  0  0  0  0  0  0  0
    4.8268   -1.3595    0.0000 C   0  0  0  0  0  0  0  0  0  0  0  0
    5.6473   -1.4457    0.0000 N   0  0  0  0  0  0  0  0  0  0  0  0
    6.0598   -2.1602    0.0000 C   0  0  0  0  0  0  0  0  0  0  0  0
    5.6473   -2.8746    0.0000 C   0  0  0  0  0  0  0  0  0  0  0  0
    4.8223   -2.8746    0.0000 O   0  0  0  0  0  0  0  0  0  0  0  0
    6.0598   -3.5891    0.0000 N   0  0  0  0  0  0  0  0  0  0  0  0
    6.8848   -3.5891    0.0000 C   0  0  0  0  0  0  0  0  0  0  0  0
    7.2973   -4.3036    0.0000 O   0  0  0  0  0  0  0  0  0  0  0  0
    7.2973   -2.8746    0.0000 C   0  0  0  0  0  0  0  0  0  0  0  0
    6.8848   -2.1602    0.0000 C   0  0  0  0  0  0  0  0  0  0  0  0
    5.9828   -0.6921    0.0000 C   0  0  0  0  0  0  0  0  0  0  0  0
    6.7898   -0.5205    0.0000 O   0  0  0  0  0  0  0  0  0  0  0  0
    5.3698   -0.1400    0.0000 C   0  0  0  0  0  0  0  0  0  0  0  0
    5.3698    0.6848    0.0000 C   0  0  0  0  0  0  0  0  0  0  0  0
    4.6553    1.0973    0.0000 C   0  0  0  0  0  0  0  0  0  0  0  0
  2  1  1  0
  2  3  1  0
  3  4  1  0
  5  4  1  0
  5  6  1  0
  6  7  1  0
  7  8  1  0
  9  8  1  0
 10  9  1  0
 11 10  1  0
 12 11  1  0
 12 13  2  0
 12 14  1  0
 15 14  1  6
 16 15  1  0
 16 17  1  0
 17 18  1  0
 18 19  2  0
 19 20  1  0
 16 20  2  0
 18 21  1  0
 17 22  1  0
 23 22  2  0
 23 24  1  0
 24 25  2  0
 25 26  1  0
 22 26  1  0
 25 27  1  0
 24 28  1  0
 29 23  1  0
 29 30  1  0
 31 30  2  0
 32 31  1  0
 33 32  2  0
 33 34  1  0
 35 33  1  0
 36 35  2  0
 30 36  1  0
 37 29  2  0
 15 37  1  0
  8 38  1  0
 39  5  1  0
 38 39  1  0
  5 40  1  0
 41  2  1  0
 40 41  1  0
  1 42  1  0
 42 43  2  0
 43 44  1  0
 45 44  1  0
 45 46  1  0
 46 47  1  0
 47 48  2  0
 47 49  1  0
 49 50  1  0
 50 51  2  0
 50 52  1  0
 52 53  1  0
 53 46  1  0
 54 45  1  0
 54 55  2  0
 56 54  1  0
 43 56  1  0
 56 57  2  0
 57 58  1  0
 58  1  2  0
M  END
> <From>
www.bindingDB.org

> <BindingDB Reactant_set_id>
51570530

> <Ligand InChI>
InChI=1S/C44H49ClN8O4S/c1-25-26(2)58-43-38(25)39(29-4-7-32(45)8-5-29)47-34(40-50-49-27(3)53(40)43)23-37(55)46-18-21-51-19-16-44(17-20-51)14-12-28(13-15-44)30-6-9-33-31(22-30)24-52(42(33)57)35-10-11-36(54)48-41(35)56/h4-9,22,28,34-35H,10-21,23-24H2,1-3H3,(H,46,55)(H,48,54,56)/t34-,35?/m0/s1

> <Ligand InChI Key>
ZKMPZGMDXOECHS-SFCXHYMASA-N

> <BindingDB MonomerID>
50631634

> <BindingDB Ligand Name>
CHEMBL5415959

> <Target Name>
Protein cereblon

> <Target Source Organism According to Curator or DataSource>
Homo sapiens

> <Ki (nM)>


> <IC50 (nM)>
 77

> <Kd (nM)>


> <EC50 (nM)>


> <kon (M-1-s-1)>


> <koff (s-1)>


> <pH>


> <Temp C>


> <Curation/DataSource>
ChEMBL

> <Article DOI>
10.1021/acs.jmedchem.3c01613

> <BindingDB Entry DOI>
10.7270/Q2T1583Z

> <PMID>
38096359

> <PubChem AID>


> <Patent Number>


> <Authors>
Arndt, CM; Bitai, J; Brunner, J; Opatz, T; Martinelli, P; Gollner, A; Sokol, KR; Krumb, M

> <Date of publication>
12/28/2023

> <Date in BindingDB>
12/21/2024

> <Institution>
Boehringer Ingelheim Rcv

> <Link to Ligand in BindingDB>
http://www.bindingdb.org/bind/chemsearch/marvin/MolStructure.jsp?monomerid=50631634

> <Link to Ligand-Target Pair in BindingDB>
http://www.bindingdb.org/jsp/dbsearch/PrimarySearch_ki.jsp?energyterm=kJ/mole&tag=pol&polymerid=50007050&target=Protein+cereblon&column=ki&startPg=0&Increment=50&submit=Search

> <Link to Ligand-Target Pair in BindingDB>
http://www.bindingdb.org/jsp/dbsearch/PrimarySearch_ki.jsp?energyterm=kJ/mole&tag=r21&monomerid=50631634&enzyme=Protein+cereblon&column=ki&startPg=0&Increment=50&submit=Search

> <Ligand HET ID in PDB>


> <PDB ID(s) for Ligand-Target Complex>


> <PubChem CID of Ligand>
172453430

> <PubChem SID of Ligand>
505035968

> <ChEBI ID of Ligand>


> <ChEMBL ID of Ligand>


> <DrugBank ID of Ligand>


> <IUPHAR_GRAC ID of Ligand>


> <KEGG ID of Ligand>


> <ZINC ID of Ligand>


> <Number of Protein Chains in Target (bigger than 1 implies a multichain complex)>
1

> <BindingDB Target Chain Sequence>
MAGEGDQQDAAHNMGNHLPLLPAESEEEDEMEVEDQDSKEAKKPNIINFDTSLPTSHTYLGADMEEFHGRTLHDDDSCQVIPVLPQVMMILIPGQTLPLQLFHPQEVSMVRNLIQKDRTFAVLAYSNVQEREAQFGTTAEIYAYREEQDFGIEIVKVKAIGRQRFKVLELRTQSDGIQQAKVQILPECVLPSTMSAVQLESLNKCQIFPSKPVSREDQCSYKWWQKYQKRKFHCANLTSWPRWLYSLYDAETLMDRIKKQLREWDENLKDDSLPSNPIDFSYRVAACLPIDDVLRIQLLKIGSAIQRLRCELDIMNKCTSLCCKQCQETEITTKNEIFSLSLCGPMAAYVNPHGYVHETLTVYKACNLNLIGRPSTEHSWFPGYAWTVAQCKICASHIGWKFTATKKDMSPQKFWGLTRSALLPTIPDTEDEISPDKVILCL

> <PDB ID(s) of Target Chain>
8TNR,8TNQ,8TNP,8D81,8D80,8D7Z,8D7Y,8D7X,8D7W,8D7V,8D7U,8CVP,9DQD,8UH6,6BOY,6BNB,6BN9,6BN8,6BN7,6XK9,6UML,5V3O,5HXB,7U8F,8OJH,8OIZ,7LPS,4TZ4,9DJX,9DJT,8U17,8U16,8U15,8TZX,8DEY,9CUO,4M91

> <UniProt (SwissProt) Recommended Name of Target Chain>
Protein cereblon

> <UniProt (SwissProt) Entry Name of Target Chain>
CRBN_HUMAN

> <UniProt (SwissProt) Primary ID of Target Chain>
Q96SW2

> <UniProt (SwissProt) Secondary ID(s) of Target Chain>
B2R6H4 C9IZA9 C9JAH6 Q6AI62 Q6NVZ0 Q9UHW4

> <UniProt (SwissProt) Alternative ID(s) of Target Chain>


> <UniProt (TrEMBL) Submitted Name of Target Chain>


> <UniProt (TrEMBL) Entry Name of Target Chain>


> <UniProt (TrEMBL) Primary ID of Target Chain>


> <UniProt (TrEMBL) Secondary ID(s) of Target Chain>


> <UniProt (TrEMBL) Alternative ID(s) of Target Chain>


$$$$
 
     RDKit          2D

 26 29  0  0  0  0  0  0  0  0999 V2000
   -1.6320    0.3565    0.0000 C   0  0  0  0  0  0  0  0  0  0  0  0
   -0.9176    0.7691    0.0000 C   0  0  0  0  0  0  0  0  0  0  0  0
   -0.2031    0.3565    0.0000 C   0  0  0  0  0  0  0  0  0  0  0  0
   -0.2031   -0.4684    0.0000 C   0  0  0  0  0  0  0  0  0  0  0  0
   -0.9176   -0.8809    0.0000 C   0  0  0  0  0  0  0  0  0  0  0  0
   -1.6320   -0.4684    0.0000 C   0  0  0  0  0  0  0  0  0  0  0  0
    0.5813   -0.7233    0.0000 C   0  0  0  0  0  0  0  0  0  0  0  0
    1.0662   -0.0559    0.0000 N   0  0  0  0  0  0  0  0  0  0  0  0
    0.5814    0.6115    0.0000 C   0  0  0  0  0  0  0  0  0  0  0  0
    0.7949    1.4081    0.0000 O   0  0  0  0  0  0  0  0  0  0  0  0
    1.8910   -0.0559    0.0000 C   0  0  0  0  0  0  0  0  0  0  0  0
    2.3034    0.6582    0.0000 C   0  0  0  0  0  0  0  0  0  0  0  0
    3.1281    0.6582    0.0000 C   0  0  0  0  0  0  0  0  0  0  0  0
    3.5405   -0.0560    0.0000 C   0  0  0  0  0  0  0  0  0  0  0  0
    3.1281   -0.7702    0.0000 N   0  0  0  0  0  0  0  0  0  0  0  0
    2.3034   -0.7702    0.0000 C   0  0  0  0  0  0  0  0  0  0  0  0
    1.8910   -1.4845    0.0000 O   0  0  0  0  0  0  0  0  0  0  0  0
    4.3653   -0.0560    0.0000 O   0  0  0  0  0  0  0  0  0  0  0  0
   -2.3463    0.7689    0.0000 S   0  0  0  0  0  0  0  0  0  0  0  0
   -3.0606    0.3565    0.0000 N   0  0  0  0  0  0  0  0  0  0  0  0
   -1.9332    1.4845    0.0000 O   0  0  0  0  0  0  0  0  0  0  0  0
   -2.7579    1.4845    0.0000 O   0  0  0  0  0  0  0  0  0  0  0  0
   -3.1467   -0.4632    0.0000 C   0  0  0  0  0  0  0  0  0  0  0  0
   -3.9531   -0.6346    0.0000 N   0  0  0  0  0  0  0  0  0  0  0  0
   -4.3653    0.0792    0.0000 C   0  0  0  0  0  0  0  0  0  0  0  0
   -3.8137    0.6918    0.0000 N   0  0  0  0  0  0  0  0  0  0  0  0
  1  2  1  0
  3  2  2  0
  4  3  1  0
  5  4  2  0
  6  5  1  0
  1  6  2  0
  4  7  1  0
  8  7  1  0
  9  8  1  0
  3  9  1  0
  9 10  2  0
  8 11  1  0
 12 11  1  0
 13 12  1  0
 14 13  1  0
 15 14  1  0
 16 15  1  0
 11 16  1  0
 16 17  2  0
 14 18  2  0
  1 19  1  0
 19 20  1  0
 19 21  2  0
 19 22  2  0
 23 20  1  0
 23 24  2  0
 24 25  1  0
 25 26  2  0
 26 20  1  0
M  END
> <From>
www.bindingDB.org

> <BindingDB Reactant_set_id>
51568397

> <Ligand InChI>
InChI=1S/C15H13N5O5S/c21-13-4-3-12(14(22)18-13)19-6-9-1-2-10(5-11(9)15(19)23)26(24,25)20-8-16-7-17-20/h1-2,5,7-8,12H,3-4,6H2,(H,18,21,22)

> <Ligand InChI Key>
GYSXFSKJGFNFSL-UHFFFAOYSA-N

> <BindingDB MonomerID>
50630770

> <BindingDB Ligand Name>
CHEMBL5420894

> <Target Name>
Protein cereblon

> <Target Source Organism According to Curator or DataSource>
Homo sapiens

> <Ki (nM)>


> <IC50 (nM)>
 78

> <Kd (nM)>


> <EC50 (nM)>


> <kon (M-1-s-1)>


> <koff (s-1)>


> <pH>


> <Temp C>


> <Curation/DataSource>
ChEMBL

> <Article DOI>
10.1021/acsmedchemlett.3c00371

> <BindingDB Entry DOI>
10.7270/Q28D01RH

> <PMID>
37974938

> <PubChem AID>


> <Patent Number>


> <Authors>
Cruite, JT; Nowak, RP; Donovan, KA; Ficarro, SB; Huang, H; Liu, H; Liu, Y; Marto, JA; Metivier, RJ; Fischer, ES; Jones, LH

> <Date of publication>
11/9/2023

> <Date in BindingDB>
12/20/2024

> <Institution>
Dana-Farber Cancer Institute

> <Link to Ligand in BindingDB>
http://www.bindingdb.org/bind/chemsearch/marvin/MolStructure.jsp?monomerid=50630770

> <Link to Ligand-Target Pair in BindingDB>
http://www.bindingdb.org/jsp/dbsearch/PrimarySearch_ki.jsp?energyterm=kJ/mole&tag=pol&polymerid=50007050&target=Protein+cereblon&column=ki&startPg=0&Increment=50&submit=Search

> <Link to Ligand-Target Pair in BindingDB>
http://www.bindingdb.org/jsp/dbsearch/PrimarySearch_ki.jsp?energyterm=kJ/mole&tag=r21&monomerid=50630770&enzyme=Protein+cereblon&column=ki&startPg=0&Increment=50&submit=Search

> <Ligand HET ID in PDB>


> <PDB ID(s) for Ligand-Target Complex>


> <PubChem CID of Ligand>
168190695

> <PubChem SID of Ligand>
505048741

> <ChEBI ID of Ligand>


> <ChEMBL ID of Ligand>


> <DrugBank ID of Ligand>


> <IUPHAR_GRAC ID of Ligand>


> <KEGG ID of Ligand>


> <ZINC ID of Ligand>


> <Number of Protein Chains in Target (bigger than 1 implies a multichain complex)>
1

> <BindingDB Target Chain Sequence>
MAGEGDQQDAAHNMGNHLPLLPAESEEEDEMEVEDQDSKEAKKPNIINFDTSLPTSHTYLGADMEEFHGRTLHDDDSCQVIPVLPQVMMILIPGQTLPLQLFHPQEVSMVRNLIQKDRTFAVLAYSNVQEREAQFGTTAEIYAYREEQDFGIEIVKVKAIGRQRFKVLELRTQSDGIQQAKVQILPECVLPSTMSAVQLESLNKCQIFPSKPVSREDQCSYKWWQKYQKRKFHCANLTSWPRWLYSLYDAETLMDRIKKQLREWDENLKDDSLPSNPIDFSYRVAACLPIDDVLRIQLLKIGSAIQRLRCELDIMNKCTSLCCKQCQETEITTKNEIFSLSLCGPMAAYVNPHGYVHETLTVYKACNLNLIGRPSTEHSWFPGYAWTVAQCKICASHIGWKFTATKKDMSPQKFWGLTRSALLPTIPDTEDEISPDKVILCL

> <PDB ID(s) of Target Chain>
8TNR,8TNQ,8TNP,8D81,8D80,8D7Z,8D7Y,8D7X,8D7W,8D7V,8D7U,8CVP,9DQD,8UH6,6BOY,6BNB,6BN9,6BN8,6BN7,6XK9,6UML,5V3O,5HXB,7U8F,8OJH,8OIZ,7LPS,4TZ4,9DJX,9DJT,8U17,8U16,8U15,8TZX,8DEY,9CUO,4M91

> <UniProt (SwissProt) Recommended Name of Target Chain>
Protein cereblon

> <UniProt (SwissProt) Entry Name of Target Chain>
CRBN_HUMAN

> <UniProt (SwissProt) Primary ID of Target Chain>
Q96SW2

> <UniProt (SwissProt) Secondary ID(s) of Target Chain>
B2R6H4 C9IZA9 C9JAH6 Q6AI62 Q6NVZ0 Q9UHW4

> <UniProt (SwissProt) Alternative ID(s) of Target Chain>


> <UniProt (TrEMBL) Submitted Name of Target Chain>


> <UniProt (TrEMBL) Entry Name of Target Chain>


> <UniProt (TrEMBL) Primary ID of Target Chain>


> <UniProt (TrEMBL) Secondary ID(s) of Target Chain>


> <UniProt (TrEMBL) Alternative ID(s) of Target Chain>


$$$$

     RDKit          2D

 55 60  0  0  0  0  0  0  0  0999 V2000
   -1.5639    5.4635    0.0000 C   0  0  0  0  0  0  0  0  0  0  0  0
   -0.0967    5.1517    0.0000 C   0  0  0  0  0  0  0  0  0  0  0  0
    1.3705    4.8398    0.0000 C   0  0  0  0  0  0  0  0  0  0  0  0
    0.2152    6.6189    0.0000 O   0  0  0  0  0  0  0  0  0  0  0  0
   -0.4086    3.6844    0.0000 C   0  0  0  0  0  0  0  0  0  0  0  0
    0.7062    2.6807    0.0000 C   0  0  0  0  0  0  0  0  0  0  0  0
    0.3943    1.2135    0.0000 C   0  0  0  0  0  0  0  0  0  0  0  0
    1.2760    0.0000    0.0000 N   0  0  0  0  0  0  0  0  0  0  0  0
    0.3943   -1.2135    0.0000 N   0  0  0  0  0  0  0  0  0  0  0  0
    0.8578   -2.6401    0.0000 C   0  0  0  0  0  0  0  0  0  0  0  0
   -0.1459   -3.7548    0.0000 C   0  0  0  0  0  0  0  0  0  0  0  0
    0.3177   -5.1814    0.0000 C   0  0  0  0  0  0  0  0  0  0  0  0
   -0.6860   -6.2961    0.0000 C   0  0  0  0  0  0  0  0  0  0  0  0
   -0.2225   -7.7227    0.0000 C   0  0  0  0  0  0  0  0  0  0  0  0
   -1.2262   -8.8374    0.0000 N   0  0  0  0  0  0  0  0  0  0  0  0
   -0.7627  -10.2640    0.0000 C   0  0  0  0  0  0  0  0  0  0  0  0
   -1.7664  -11.3787    0.0000 C   0  0  0  0  0  0  0  0  0  0  0  0
   -1.3029  -12.8053    0.0000 C   0  0  0  0  0  0  0  0  0  0  0  0
   -2.3066  -13.9200    0.0000 N   0  0  0  0  0  0  0  0  0  0  0  0
   -1.8430  -15.3466    0.0000 C   0  0  0  0  0  0  0  0  0  0  0  0
   -0.3758  -15.6585    0.0000 C   0  0  0  0  0  0  0  0  0  0  0  0
    0.0877  -17.0851    0.0000 C   0  0  0  0  0  0  0  0  0  0  0  0
   -0.9160  -18.1998    0.0000 C   0  0  0  0  0  0  0  0  0  0  0  0
   -2.3832  -17.8879    0.0000 C   0  0  0  0  0  0  0  0  0  0  0  0
   -2.8467  -16.4613    0.0000 C   0  0  0  0  0  0  0  0  0  0  0  0
   -4.3467  -16.4613    0.0000 C   0  0  0  0  0  0  0  0  0  0  0  0
   -5.2284  -15.2478    0.0000 O   0  0  0  0  0  0  0  0  0  0  0  0
   -4.8102  -17.8879    0.0000 N   0  0  0  0  0  0  0  0  0  0  0  0
   -6.2368  -18.3514    0.0000 C   0  0  0  0  0  0  0  0  0  0  0  0
   -7.3516  -17.3478    0.0000 C   0  0  0  0  0  0  0  0  0  0  0  0
   -8.7781  -17.8113    0.0000 C   0  0  0  0  0  0  0  0  0  0  0  0
   -9.0900  -19.2785    0.0000 C   0  0  0  0  0  0  0  0  0  0  0  0
  -10.5166  -19.7420    0.0000 O   0  0  0  0  0  0  0  0  0  0  0  0
   -7.9753  -20.2822    0.0000 N   0  0  0  0  0  0  0  0  0  0  0  0
   -6.5487  -19.8187    0.0000 C   0  0  0  0  0  0  0  0  0  0  0  0
   -5.4340  -20.8224    0.0000 O   0  0  0  0  0  0  0  0  0  0  0  0
   -3.5967  -18.7696    0.0000 C   0  0  0  0  0  0  0  0  0  0  0  0
   -3.5967  -20.2696    0.0000 O   0  0  0  0  0  0  0  0  0  0  0  0
   -1.0323   -0.7500    0.0000 C   0  0  0  0  0  0  0  0  0  0  0  0
   -1.0323    0.7500    0.0000 C   0  0  0  0  0  0  0  0  0  0  0  0
   -2.1470    1.7537    0.0000 C   0  0  0  0  0  0  0  0  0  0  0  0
   -1.8351    3.2209    0.0000 C   0  0  0  0  0  0  0  0  0  0  0  0
   -2.9499    4.2246    0.0000 N   0  0  0  0  0  0  0  0  0  0  0  0
   -4.3764    3.7611    0.0000 C   0  0  0  0  0  0  0  0  0  0  0  0
   -4.6883    2.2939    0.0000 O   0  0  0  0  0  0  0  0  0  0  0  0
   -5.4912    4.7648    0.0000 C   0  0  0  0  0  0  0  0  0  0  0  0
   -5.1793    6.2320    0.0000 C   0  0  0  0  0  0  0  0  0  0  0  0
   -6.2940    7.2357    0.0000 C   0  0  0  0  0  0  0  0  0  0  0  0
   -7.7206    6.7722    0.0000 C   0  0  0  0  0  0  0  0  0  0  0  0
   -8.0325    5.3050    0.0000 C   0  0  0  0  0  0  0  0  0  0  0  0
   -9.4590    4.8414    0.0000 C   0  0  0  0  0  0  0  0  0  0  0  0
  -10.8856    4.3779    0.0000 F   0  0  0  0  0  0  0  0  0  0  0  0
   -9.9226    6.2680    0.0000 F   0  0  0  0  0  0  0  0  0  0  0  0
   -8.9955    3.4148    0.0000 F   0  0  0  0  0  0  0  0  0  0  0  0
   -6.9177    4.3013    0.0000 N   0  0  0  0  0  0  0  0  0  0  0  0
  1  2  1  0
  2  3  1  0
  2  4  1  0
  2  5  1  0
  5  6  2  0
  6  7  1  0
  7  8  2  0
  8  9  1  0
  9 10  1  0
 10 11  1  0
 11 12  1  0
 12 13  1  0
 13 14  1  0
 14 15  1  0
 15 16  1  0
 16 17  1  0
 17 18  1  0
 18 19  1  0
 19 20  1  0
 20 21  2  0
 21 22  1  0
 22 23  2  0
 23 24  1  0
 24 25  2  0
 25 26  1  0
 26 27  2  0
 26 28  1  0
 28 29  1  0
 29 30  1  0
 30 31  1  0
 31 32  1  0
 32 33  2  0
 32 34  1  0
 34 35  1  0
 35 36  2  0
 28 37  1  0
 37 38  2  0
  9 39  1  0
 39 40  2  0
 40 41  1  0
 41 42  2  0
 42 43  1  0
 43 44  1  0
 44 45  2  0
 44 46  1  0
 46 47  2  0
 47 48  1  0
 48 49  2  0
 49 50  1  0
 50 51  1  0
 51 52  1  0
 51 53  1  0
 51 54  1  0
 50 55  2  0
 42  5  1  0
 55 46  1  0
 40  7  1  0
 25 20  1  0
 35 29  1  0
 37 24  1  0
M  END
> <From>
www.bindingDB.org

> <BindingDB Reactant_set_id>
51589151

> <Ligand InChI>
InChI=1S/C38H41F3N8O6/c1-37(2,55)24-20-27-22(19-28(24)45-33(51)26-11-7-12-30(44-26)38(39,40)41)21-48(47-27)18-5-3-4-15-42-16-8-17-43-25-10-6-9-23-32(25)36(54)49(35(23)53)29-13-14-31(50)46-34(29)52/h6-7,9-12,19-21,29,42-43,55H,3-5,8,13-18H2,1-2H3,(H,45,51)(H,46,50,52)

> <Ligand InChI Key>
RKDBBXGRXIYXMB-UHFFFAOYSA-N

> <BindingDB MonomerID>
50639835

> <BindingDB Ligand Name>
CHEMBL5560913

> <Target Name>
Protein cereblon

> <Target Source Organism According to Curator or DataSource>
Human

> <Ki (nM)>


> <IC50 (nM)>
 79

> <Kd (nM)>


> <EC50 (nM)>


> <kon (M-1-s-1)>


> <koff (s-1)>


> <pH>


> <Temp C>


> <Curation/DataSource>
ChEMBL

> <Article DOI>


> <BindingDB Entry DOI>
10.7270/Q23F4V8G

> <PMID>
38920289

> <PubChem AID>


> <Patent Number>


> <Authors>
Weiss, MM; Zheng, X; Ji, N; Browne, CM; Campbell, V; Chen, D; Enerson, B; Fei, X; Huang, X; Klaus, CR; Li, H; Mayo, M; McDonald, AA; Paul, A; Rong, H; Sharma, K; Shi, Y; Slavin, A; Walther, DM; Yuan, K; Zhang, Y; Zhu, X; Kelleher, J; Walker, D; Mainolfi, N

> <Date of publication>
//0

> <Date in BindingDB>
10/11/2025

> <Institution>
Kymera Therapeutics

> <Link to Ligand in BindingDB>
http://www.bindingdb.org/bind/chemsearch/marvin/MolStructure.jsp?monomerid=50639835

> <Link to Ligand-Target Pair in BindingDB>
http://www.bindingdb.org/rwd/jsp/dbsearch/PrimarySearch_ki.jsp?energyterm=kJ/mole&tag=pol&polymerid=50007050&target=Protein+cereblon&column=ki&startPg=0&Increment=50&submit=Search

> <Link to Ligand-Target Pair in BindingDB>
http://www.bindingdb.org/rwd/jsp/dbsearch/PrimarySearch_ki.jsp?energyterm=kJ/mole&tag=r21&monomerid=50639835&enzyme=Protein+cereblon&column=ki&startPg=0&Increment=50&submit=Search

> <Ligand HET ID in PDB>


> <PDB ID(s) for Ligand-Target Complex>


> <PubChem CID of Ligand>
177376821

> <PubChem SID of Ligand>
519660238

> <ChEBI ID of Ligand>


> <ChEMBL ID of Ligand>


> <DrugBank ID of Ligand>


> <IUPHAR_GRAC ID of Ligand>


> <KEGG ID of Ligand>


> <ZINC ID of Ligand>


> <Number of Protein Chains in Target (bigger than 1 implies a multichain complex)>
1

> <BindingDB Target Chain Sequence>
MAGEGDQQDAAHNMGNHLPLLPAESEEEDEMEVEDQDSKEAKKPNIINFDTSLPTSHTYLGADMEEFHGRTLHDDDSCQVIPVLPQVMMILIPGQTLPLQLFHPQEVSMVRNLIQKDRTFAVLAYSNVQEREAQFGTTAEIYAYREEQDFGIEIVKVKAIGRQRFKVLELRTQSDGIQQAKVQILPECVLPSTMSAVQLESLNKCQIFPSKPVSREDQCSYKWWQKYQKRKFHCANLTSWPRWLYSLYDAETLMDRIKKQLREWDENLKDDSLPSNPIDFSYRVAACLPIDDVLRIQLLKIGSAIQRLRCELDIMNKCTSLCCKQCQETEITTKNEIFSLSLCGPMAAYVNPHGYVHETLTVYKACNLNLIGRPSTEHSWFPGYAWTVAQCKICASHIGWKFTATKKDMSPQKFWGLTRSALLPTIPDTEDEISPDKVILCL

> <PDB ID(s) of Target Chain>
9DUR,8TNR,8TNQ,8TNP,9DWW,9DWV,9NGT,9NFR,9NFQ,8D81,8D80,8D7Z,8D7Y,8D7X,8D7W,8D7V,8D7U,8CVP,9Q2D,9Q03,9DQD,8UH6,9SAI,9SAF,9H59,9E2U,6BOY,6BNB,6BN9,6BN8,6BN7,9OUL,9Y7D,6XK9,6UML,5V3O,5HXB,9HNE,9D0X,9D0W,7U8F,9FJX,8OJH,8OIZ,7LPS,9SFM,9OTY,4TZ4,9DJX,9DJT,8U17,8U16,8U15,8TZX,8DEY,9CUO,4M91

> <UniProt (SwissProt) Recommended Name of Target Chain>
Protein cereblon

> <UniProt (SwissProt) Entry Name of Target Chain>
CRBN_HUMAN

> <UniProt (SwissProt) Primary ID of Target Chain>
Q96SW2

> <UniProt (SwissProt) Secondary ID(s) of Target Chain>
B2R6H4 C9IZA9 C9JAH6 Q6AI62 Q6NVZ0 Q9UHW4

> <UniProt (SwissProt) Alternative ID(s) of Target Chain>


> <UniProt (TrEMBL) Submitted Name of Target Chain>


> <UniProt (TrEMBL) Entry Name of Target Chain>


> <UniProt (TrEMBL) Primary ID of Target Chain>


> <UniProt (TrEMBL) Secondary ID(s) of Target Chain>


> <UniProt (TrEMBL) Alternative ID(s) of Target Chain>


$$$$
134780
  Mrv0541 01031813182D          

 20 22  0  0  1  0            999 V2000
    5.1662   -1.6578    0.0000 O   0  0  0  0  0  0  0  0  0  0  0  0
    4.1159    1.2193    0.0000 O   0  0  0  0  0  0  0  0  0  0  0  0
    4.1159   -1.6769    0.0000 O   0  0  0  0  0  0  0  0  0  0  0  0
    7.6412   -0.2289    0.0000 O   0  0  0  0  0  0  0  0  0  0  0  0
    4.3412   -0.2289    0.0000 N   0  0  0  0  0  0  0  0  0  0  0  0
    6.4037   -0.9433    0.0000 N   0  0  0  0  0  0  0  0  0  0  0  0
    2.3645    1.4212    0.0000 N   0  0  0  0  0  0  0  0  0  0  0  0
    5.1662   -0.2289    0.0000 C   0  0  0  0  0  0  0  0  0  0  0  0
    5.5787    0.4857    0.0000 C   0  0  0  0  0  0  0  0  0  0  0  0
    6.4037    0.4857    0.0000 C   0  0  0  0  0  0  0  0  0  0  0  0
    5.5787   -0.9433    0.0000 C   0  0  0  0  0  0  0  0  0  0  0  0
    3.8597    0.4351    0.0000 C   0  0  0  0  0  0  0  0  0  0  0  0
    3.8597   -0.8928    0.0000 C   0  0  0  0  0  0  0  0  0  0  0  0
    3.0790    0.1836    0.0000 C   0  0  0  0  0  0  0  0  0  0  0  0
    3.0790   -0.6414    0.0000 C   0  0  0  0  0  0  0  0  0  0  0  0
    6.8162   -0.2289    0.0000 C   0  0  0  0  0  0  0  0  0  0  0  0
    2.3645    0.5962    0.0000 C   0  0  0  0  0  0  0  0  0  0  0  0
    2.3645   -1.0539    0.0000 C   0  0  0  0  0  0  0  0  0  0  0  0
    1.6500    0.1836    0.0000 C   0  0  0  0  0  0  0  0  0  0  0  0
    1.6500   -0.6414    0.0000 C   0  0  0  0  0  0  0  0  0  0  0  0
  1 11  2  0  0  0  0
  2 12  2  0  0  0  0
  3 13  2  0  0  0  0
  4 16  2  0  0  0  0
  5  8  1  0  0  0  0
  5 12  1  0  0  0  0
  5 13  1  0  0  0  0
  6 11  1  0  0  0  0
  6 16  1  0  0  0  0
  7 17  1  0  0  0  0
  8  9  1  0  0  0  0
  8 11  1  0  0  0  0
  9 10  1  0  0  0  0
 10 16  1  0  0  0  0
 12 14  1  0  0  0  0
 13 15  1  0  0  0  0
 14 15  4  0  0  0  0
 14 17  4  0  0  0  0
 15 18  4  0  0  0  0
 17 19  4  0  0  0  0
 18 20  4  0  0  0  0
 19 20  4  0  0  0  0
M  END
> <From>
www.bindingDB.org

> <BindingDB Reactant_set_id>
51547156

> <Ligand InChI>
InChI=1S/C13H11N3O4/c14-7-3-1-2-6-10(7)13(20)16(12(6)19)8-4-5-9(17)15-11(8)18/h1-3,8H,4-5,14H2,(H,15,17,18)

> <Ligand InChI Key>
UVSMNLNDYGZFPF-UHFFFAOYSA-N

> <BindingDB MonomerID>
65456

> <BindingDB Ligand Name>
19171-19-8::4-amino-2-(2,6-dioxopiperidin-3-yl)isoindoline-1,3-dione::Actimid::CC-4047::Pomalyst::US11059801, Compound D-4::US20230271966, Compound Pomalidomide::US9694015, 6.2::pomalidomide

> <Target Name>
Protein cereblon

> <Target Source Organism According to Curator or DataSource>
Homo sapiens

> <Ki (nM)>


> <IC50 (nM)>
 83

> <Kd (nM)>


> <EC50 (nM)>


> <kon (M-1-s-1)>


> <koff (s-1)>


> <pH>


> <Temp C>


> <Curation/DataSource>
ChEMBL

> <Article DOI>
10.1021/acs.jmedchem.3c00176

> <BindingDB Entry DOI>
10.7270/Q2GX4GZ4

> <PMID>
37195170

> <PubChem AID>


> <Patent Number>


> <Authors>
n/a

> <Date of publication>
6/8/2023

> <Date in BindingDB>
12/17/2024

> <Institution>
n/a

> <Link to Ligand in BindingDB>
http://www.bindingdb.org/bind/chemsearch/marvin/MolStructure.jsp?monomerid=65456

> <Link to Ligand-Target Pair in BindingDB>
http://www.bindingdb.org/jsp/dbsearch/PrimarySearch_ki.jsp?energyterm=kJ/mole&tag=pol&polymerid=50007050&target=Protein+cereblon&column=ki&startPg=0&Increment=50&submit=Search

> <Link to Ligand-Target Pair in BindingDB>
http://www.bindingdb.org/jsp/dbsearch/PrimarySearch_ki.jsp?energyterm=kJ/mole&tag=r21&monomerid=65456&enzyme=Protein+cereblon&column=ki&startPg=0&Increment=50&submit=Search

> <Ligand HET ID in PDB>
Y70    

> <PDB ID(s) for Ligand-Target Complex>
7SZA

> <PubChem CID of Ligand>
134780

> <PubChem SID of Ligand>
350083086

> <ChEBI ID of Ligand>


> <ChEMBL ID of Ligand>


> <DrugBank ID of Ligand>
DB08910

> <IUPHAR_GRAC ID of Ligand>


> <KEGG ID of Ligand>


> <ZINC ID of Ligand>
ZINC15953204

> <Number of Protein Chains in Target (bigger than 1 implies a multichain complex)>
1

> <BindingDB Target Chain Sequence>
MAGEGDQQDAAHNMGNHLPLLPAESEEEDEMEVEDQDSKEAKKPNIINFDTSLPTSHTYLGADMEEFHGRTLHDDDSCQVIPVLPQVMMILIPGQTLPLQLFHPQEVSMVRNLIQKDRTFAVLAYSNVQEREAQFGTTAEIYAYREEQDFGIEIVKVKAIGRQRFKVLELRTQSDGIQQAKVQILPECVLPSTMSAVQLESLNKCQIFPSKPVSREDQCSYKWWQKYQKRKFHCANLTSWPRWLYSLYDAETLMDRIKKQLREWDENLKDDSLPSNPIDFSYRVAACLPIDDVLRIQLLKIGSAIQRLRCELDIMNKCTSLCCKQCQETEITTKNEIFSLSLCGPMAAYVNPHGYVHETLTVYKACNLNLIGRPSTEHSWFPGYAWTVAQCKICASHIGWKFTATKKDMSPQKFWGLTRSALLPTIPDTEDEISPDKVILCL

> <PDB ID(s) of Target Chain>
8TNR,8TNQ,8TNP,8D81,8D80,8D7Z,8D7Y,8D7X,8D7W,8D7V,8D7U,8CVP,9DQD,8UH6,6BOY,6BNB,6BN9,6BN8,6BN7,6XK9,6UML,5V3O,5HXB,7U8F,8OJH,8OIZ,7LPS,4TZ4,9DJX,9DJT,8U17,8U16,8U15,8TZX,8DEY,9CUO,4M91

> <UniProt (SwissProt) Recommended Name of Target Chain>
Protein cereblon

> <UniProt (SwissProt) Entry Name of Target Chain>
CRBN_HUMAN

> <UniProt (SwissProt) Primary ID of Target Chain>
Q96SW2

> <UniProt (SwissProt) Secondary ID(s) of Target Chain>
B2R6H4 C9IZA9 C9JAH6 Q6AI62 Q6NVZ0 Q9UHW4

> <UniProt (SwissProt) Alternative ID(s) of Target Chain>


> <UniProt (TrEMBL) Submitted Name of Target Chain>


> <UniProt (TrEMBL) Entry Name of Target Chain>


> <UniProt (TrEMBL) Primary ID of Target Chain>


> <UniProt (TrEMBL) Secondary ID(s) of Target Chain>


> <UniProt (TrEMBL) Alternative ID(s) of Target Chain>


$$$$

     RDKit          2D

 58 64  0  0  0  0  0  0  0  0999 V2000
    7.5000   -5.1962    0.0000 C   0  0  0  0  0  0  0  0  0  0  0  0
    6.0000   -5.1962    0.0000 N   0  0  0  0  0  0  0  0  0  0  0  0
    5.2500   -3.8971    0.0000 C   0  0  0  0  0  0  0  0  0  0  0  0
    3.7500   -3.8971    0.0000 C   0  0  0  0  0  0  0  0  0  0  0  0
    3.0000   -2.5981    0.0000 C   0  0  0  0  0  0  0  0  0  0  0  0
    1.5000   -2.5981    0.0000 C   0  0  0  0  0  0  0  0  0  0  0  0
    0.7500   -1.2990    0.0000 C   0  0  0  0  0  0  0  0  0  0  0  0
    1.5000    0.0000    0.0000 C   0  0  0  0  0  0  0  0  0  0  0  0
    0.7500    1.2990    0.0000 C   0  0  0  0  0  0  0  0  0  0  0  0
   -0.7500    1.2990    0.0000 C   0  0  0  0  0  0  0  0  0  0  0  0
   -1.5000    0.0000    0.0000 C   0  0  0  0  0  0  0  0  0  0  0  0
   -0.7500   -1.2990    0.0000 C   0  0  0  0  0  0  0  0  0  0  0  0
   -1.7537   -2.4138    0.0000 C   0  0  0  0  0  0  0  0  0  0  0  0
   -1.4418   -3.8810    0.0000 O   0  0  0  0  0  0  0  0  0  0  0  0
   -3.1240   -1.8037    0.0000 N   0  0  0  0  0  0  0  0  0  0  0  0
   -4.4231   -2.5537    0.0000 C   0  0  0  0  0  0  0  0  0  0  0  0
   -5.7221   -1.8037    0.0000 C   0  0  0  0  0  0  0  0  0  0  0  0
   -7.0211   -2.5537    0.0000 C   0  0  0  0  0  0  0  0  0  0  0  0
   -7.0211   -4.0537    0.0000 C   0  0  0  0  0  0  0  0  0  0  0  0
   -8.3202   -4.8037    0.0000 O   0  0  0  0  0  0  0  0  0  0  0  0
   -5.7221   -4.8037    0.0000 N   0  0  0  0  0  0  0  0  0  0  0  0
   -4.4231   -4.0537    0.0000 C   0  0  0  0  0  0  0  0  0  0  0  0
   -3.1240   -4.8037    0.0000 O   0  0  0  0  0  0  0  0  0  0  0  0
   -2.9672   -0.3119    0.0000 C   0  0  0  0  0  0  0  0  0  0  0  0
   -4.0819    0.6918    0.0000 O   0  0  0  0  0  0  0  0  0  0  0  0
    5.2500   -6.4952    0.0000 C   0  0  0  0  0  0  0  0  0  0  0  0
    6.0000   -7.7942    0.0000 C   0  0  0  0  0  0  0  0  0  0  0  0
    5.2500   -9.0933    0.0000 C   0  0  0  0  0  0  0  0  0  0  0  0
    6.0000  -10.3923    0.0000 C   0  0  0  0  0  0  0  0  0  0  0  0
    7.5000  -10.3923    0.0000 C   0  0  0  0  0  0  0  0  0  0  0  0
    8.2500  -11.6913    0.0000 N   0  0  0  0  0  0  0  0  0  0  0  0
    9.7418  -11.8481    0.0000 C   0  0  0  0  0  0  0  0  0  0  0  0
   10.0537  -13.3154    0.0000 C   0  0  0  0  0  0  0  0  0  0  0  0
   11.3527  -14.0654    0.0000 C   0  0  0  0  0  0  0  0  0  0  0  0
   11.3527  -15.5654    0.0000 C   0  0  0  0  0  0  0  0  0  0  0  0
   12.6517  -16.3154    0.0000 N   0  0  0  0  0  0  0  0  0  0  0  0
   13.9508  -15.5654    0.0000 C   0  0  0  0  0  0  0  0  0  0  0  0
   13.9508  -14.0654    0.0000 O   0  0  0  0  0  0  0  0  0  0  0  0
   15.2498  -16.3154    0.0000 C   0  0  0  0  0  0  0  0  0  0  0  0
   16.5488  -15.5654    0.0000 C   0  0  0  0  0  0  0  0  0  0  0  0
   17.8479  -16.3154    0.0000 C   0  0  0  0  0  0  0  0  0  0  0  0
   17.8479  -17.8154    0.0000 C   0  0  0  0  0  0  0  0  0  0  0  0
   16.5488  -18.5654    0.0000 C   0  0  0  0  0  0  0  0  0  0  0  0
   16.5488  -20.0654    0.0000 C   0  0  0  0  0  0  0  0  0  0  0  0
   16.5488  -21.5654    0.0000 F   0  0  0  0  0  0  0  0  0  0  0  0
   18.0488  -20.0654    0.0000 F   0  0  0  0  0  0  0  0  0  0  0  0
   15.0488  -20.0654    0.0000 F   0  0  0  0  0  0  0  0  0  0  0  0
   15.2498  -17.8154    0.0000 N   0  0  0  0  0  0  0  0  0  0  0  0
   10.0537  -16.3154    0.0000 C   0  0  0  0  0  0  0  0  0  0  0  0
   10.0537  -17.8154    0.0000 C   0  0  0  0  0  0  0  0  0  0  0  0
    8.5537  -17.8154    0.0000 C   0  0  0  0  0  0  0  0  0  0  0  0
   11.5537  -17.8154    0.0000 C   0  0  0  0  0  0  0  0  0  0  0  0
   10.0537  -19.3154    0.0000 O   0  0  0  0  0  0  0  0  0  0  0  0
    8.7546  -15.5654    0.0000 C   0  0  0  0  0  0  0  0  0  0  0  0
    8.7546  -14.0654    0.0000 C   0  0  0  0  0  0  0  0  0  0  0  0
    7.6399  -13.0617    0.0000 N   0  0  0  0  0  0  0  0  0  0  0  0
    8.2500   -9.0933    0.0000 C   0  0  0  0  0  0  0  0  0  0  0  0
    7.5000   -7.7942    0.0000 C   0  0  0  0  0  0  0  0  0  0  0  0
  1  2  1  0
  2  3  1  0
  3  4  1  0
  4  5  1  0
  5  6  1  0
  6  7  1  0
  7  8  2  0
  8  9  1  0
  9 10  2  0
 10 11  1  0
 11 12  2  0
 12 13  1  0
 13 14  2  0
 13 15  1  0
 15 16  1  0
 16 17  1  0
 17 18  1  0
 18 19  1  0
 19 20  2  0
 19 21  1  0
 21 22  1  0
 22 23  2  0
 15 24  1  0
 24 25  2  0
  2 26  1  0
 27 26  1  6
 27 28  1  0
 28 29  1  0
 29 30  1  0
 30 31  1  1
 31 32  1  0
 32 33  2  0
 33 34  1  0
 34 35  2  0
 35 36  1  0
 36 37  1  0
 37 38  2  0
 37 39  1  0
 39 40  2  0
 40 41  1  0
 41 42  2  0
 42 43  1  0
 43 44  1  0
 44 45  1  0
 44 46  1  0
 44 47  1  0
 43 48  2  0
 35 49  1  0
 49 50  1  0
 50 51  1  0
 50 52  1  0
 50 53  1  0
 49 54  2  0
 54 55  1  0
 55 56  2  0
 30 57  1  0
 57 58  1  0
 12  7  1  0
 22 16  1  0
 58 27  1  0
 24 11  1  0
 56 31  1  0
 55 33  1  0
 48 39  1  0
M  END
> <From>
www.bindingDB.org

> <BindingDB Reactant_set_id>
51589154

> <Ligand InChI>
InChI=1S/C42H46F3N7O6/c1-41(2,58)29-21-31-26(20-32(29)47-37(54)30-11-7-12-34(46-30)42(43,44)45)23-51(49-31)27-15-13-24(14-16-27)22-50(3)19-5-4-8-25-9-6-10-28-36(25)40(57)52(39(28)56)33-17-18-35(53)48-38(33)55/h6-7,9-12,20-21,23-24,27,33,58H,4-5,8,13-19,22H2,1-3H3,(H,47,54)(H,48,53,55)

> <Ligand InChI Key>
TXXHHAICAYYMLP-UHFFFAOYSA-N

> <BindingDB MonomerID>
50639838

> <BindingDB Ligand Name>
CHEMBL5561819

> <Target Name>
Protein cereblon

> <Target Source Organism According to Curator or DataSource>
Human

> <Ki (nM)>


> <IC50 (nM)>
 91

> <Kd (nM)>


> <EC50 (nM)>


> <kon (M-1-s-1)>


> <koff (s-1)>


> <pH>


> <Temp C>


> <Curation/DataSource>
ChEMBL

> <Article DOI>


> <BindingDB Entry DOI>
10.7270/Q23F4V8G

> <PMID>
38920289

> <PubChem AID>


> <Patent Number>


> <Authors>
Weiss, MM; Zheng, X; Ji, N; Browne, CM; Campbell, V; Chen, D; Enerson, B; Fei, X; Huang, X; Klaus, CR; Li, H; Mayo, M; McDonald, AA; Paul, A; Rong, H; Sharma, K; Shi, Y; Slavin, A; Walther, DM; Yuan, K; Zhang, Y; Zhu, X; Kelleher, J; Walker, D; Mainolfi, N

> <Date of publication>
//0

> <Date in BindingDB>
10/11/2025

> <Institution>
Kymera Therapeutics

> <Link to Ligand in BindingDB>
http://www.bindingdb.org/bind/chemsearch/marvin/MolStructure.jsp?monomerid=50639838

> <Link to Ligand-Target Pair in BindingDB>
http://www.bindingdb.org/rwd/jsp/dbsearch/PrimarySearch_ki.jsp?energyterm=kJ/mole&tag=pol&polymerid=50007050&target=Protein+cereblon&column=ki&startPg=0&Increment=50&submit=Search

> <Link to Ligand-Target Pair in BindingDB>
http://www.bindingdb.org/rwd/jsp/dbsearch/PrimarySearch_ki.jsp?energyterm=kJ/mole&tag=r21&monomerid=50639838&enzyme=Protein+cereblon&column=ki&startPg=0&Increment=50&submit=Search

> <Ligand HET ID in PDB>


> <PDB ID(s) for Ligand-Target Complex>


> <PubChem CID of Ligand>
177376823

> <PubChem SID of Ligand>
519660241

> <ChEBI ID of Ligand>


> <ChEMBL ID of Ligand>


> <DrugBank ID of Ligand>


> <IUPHAR_GRAC ID of Ligand>


> <KEGG ID of Ligand>


> <ZINC ID of Ligand>


> <Number of Protein Chains in Target (bigger than 1 implies a multichain complex)>
1

> <BindingDB Target Chain Sequence>
MAGEGDQQDAAHNMGNHLPLLPAESEEEDEMEVEDQDSKEAKKPNIINFDTSLPTSHTYLGADMEEFHGRTLHDDDSCQVIPVLPQVMMILIPGQTLPLQLFHPQEVSMVRNLIQKDRTFAVLAYSNVQEREAQFGTTAEIYAYREEQDFGIEIVKVKAIGRQRFKVLELRTQSDGIQQAKVQILPECVLPSTMSAVQLESLNKCQIFPSKPVSREDQCSYKWWQKYQKRKFHCANLTSWPRWLYSLYDAETLMDRIKKQLREWDENLKDDSLPSNPIDFSYRVAACLPIDDVLRIQLLKIGSAIQRLRCELDIMNKCTSLCCKQCQETEITTKNEIFSLSLCGPMAAYVNPHGYVHETLTVYKACNLNLIGRPSTEHSWFPGYAWTVAQCKICASHIGWKFTATKKDMSPQKFWGLTRSALLPTIPDTEDEISPDKVILCL

> <PDB ID(s) of Target Chain>
9DUR,8TNR,8TNQ,8TNP,9DWW,9DWV,9NGT,9NFR,9NFQ,8D81,8D80,8D7Z,8D7Y,8D7X,8D7W,8D7V,8D7U,8CVP,9Q2D,9Q03,9DQD,8UH6,9SAI,9SAF,9H59,9E2U,6BOY,6BNB,6BN9,6BN8,6BN7,9OUL,9Y7D,6XK9,6UML,5V3O,5HXB,9HNE,9D0X,9D0W,7U8F,9FJX,8OJH,8OIZ,7LPS,9SFM,9OTY,4TZ4,9DJX,9DJT,8U17,8U16,8U15,8TZX,8DEY,9CUO,4M91

> <UniProt (SwissProt) Recommended Name of Target Chain>
Protein cereblon

> <UniProt (SwissProt) Entry Name of Target Chain>
CRBN_HUMAN

> <UniProt (SwissProt) Primary ID of Target Chain>
Q96SW2

> <UniProt (SwissProt) Secondary ID(s) of Target Chain>
B2R6H4 C9IZA9 C9JAH6 Q6AI62 Q6NVZ0 Q9UHW4

> <UniProt (SwissProt) Alternative ID(s) of Target Chain>


> <UniProt (TrEMBL) Submitted Name of Target Chain>


> <UniProt (TrEMBL) Entry Name of Target Chain>


> <UniProt (TrEMBL) Primary ID of Target Chain>


> <UniProt (TrEMBL) Secondary ID(s) of Target Chain>


> <UniProt (TrEMBL) Alternative ID(s) of Target Chain>


$$$$
 
     RDKit          2D

 54 61  0  0  0  0  0  0  0  0999 V2000
   10.7339  -16.2570    0.0000 C   0  0  0  0  0  0  0  0  0  0  0  0
   11.8815  -15.0974    0.0000 C   0  0  0  0  0  0  0  0  0  0  0  0
   11.0866  -14.8905    0.0000 C   0  0  0  0  0  0  0  0  0  0  0  0
   10.5148  -15.4714    0.0000 C   0  0  0  0  0  0  0  0  0  0  0  0
   12.0960  -15.8868    0.0000 C   0  0  0  0  0  0  0  0  0  0  0  0
   11.5211  -16.4637    0.0000 C   0  0  0  0  0  0  0  0  0  0  0  0
   11.8920  -17.1889    0.0000 C   0  0  0  0  0  0  0  0  0  0  0  0
   12.6964  -17.0601    0.0000 N   0  0  0  0  0  0  0  0  0  0  0  0
   12.8223  -16.2554    0.0000 C   0  0  0  0  0  0  0  0  0  0  0  0
   13.5498  -15.8832    0.0000 O   0  0  0  0  0  0  0  0  0  0  0  0
   13.2734  -17.6350    0.0000 C   0  0  0  0  0  0  0  0  0  0  0  0
   13.0611  -18.4251    0.0000 C   0  0  0  0  0  0  0  0  0  0  0  0
   13.6361  -19.0008    0.0000 C   0  0  0  0  0  0  0  0  0  0  0  0
   14.4265  -18.7920    0.0000 C   0  0  0  0  0  0  0  0  0  0  0  0
   14.6388  -18.0018    0.0000 N   0  0  0  0  0  0  0  0  0  0  0  0
   14.0606  -17.4206    0.0000 C   0  0  0  0  0  0  0  0  0  0  0  0
   14.2716  -16.6311    0.0000 O   0  0  0  0  0  0  0  0  0  0  0  0
   15.0031  -19.3710    0.0000 O   0  0  0  0  0  0  0  0  0  0  0  0
    7.0039  -19.8437    0.0000 C   0  0  0  0  0  0  0  0  0  0  0  0
    7.2144  -20.6320    0.0000 C   0  0  0  0  0  0  0  0  0  0  0  0
    7.9980  -20.8427    0.0000 C   0  0  0  0  0  0  0  0  0  0  0  0
    8.5766  -20.2683    0.0000 C   0  0  0  0  0  0  0  0  0  0  0  0
    8.3661  -19.4800    0.0000 C   0  0  0  0  0  0  0  0  0  0  0  0
    7.5770  -19.2661    0.0000 C   0  0  0  0  0  0  0  0  0  0  0  0
    6.2158  -20.0613    0.0000 C   0  0  0  0  0  0  0  0  0  0  0  0
    7.0437  -19.0306    0.0000 N   0  0  0  0  0  0  0  0  0  0  0  0
    6.2797  -18.7409    0.0000 C   0  0  0  0  0  0  0  0  0  0  0  0
    5.7682  -19.3779    0.0000 C   0  0  0  0  0  0  0  0  0  0  0  0
    4.0226  -20.3224    0.0000 C   0  0  0  0  0  0  0  0  0  0  0  0
    4.0215  -21.1420    0.0000 C   0  0  0  0  0  0  0  0  0  0  0  0
    4.7295  -21.5509    0.0000 C   0  0  0  0  0  0  0  0  0  0  0  0
    4.7277  -19.9136    0.0000 C   0  0  0  0  0  0  0  0  0  0  0  0
    5.4364  -20.3188    0.0000 C   0  0  0  0  0  0  0  0  0  0  0  0
    5.4412  -21.1374    0.0000 C   0  0  0  0  0  0  0  0  0  0  0  0
    6.2212  -21.3859    0.0000 N   0  0  0  0  0  0  0  0  0  0  0  0
    6.6985  -20.7208    0.0000 C   0  0  0  0  0  0  0  0  0  0  0  0
    3.3135  -21.5500    0.0000 Cl  0  0  0  0  0  0  0  0  0  0  0  0
    7.4042  -21.1273    0.0000 O   0  0  0  0  0  0  0  0  0  0  0  0
    6.0650  -17.9524    0.0000 C   0  0  0  0  0  0  0  0  0  0  0  0
    6.6405  -17.3722    0.0000 N   0  0  0  0  0  0  0  0  0  0  0  0
    5.2748  -17.7441    0.0000 O   0  0  0  0  0  0  0  0  0  0  0  0
    4.9733  -19.1627    0.0000 C   0  0  0  0  0  0  0  0  0  0  0  0
    4.7646  -18.3650    0.0000 C   0  0  0  0  0  0  0  0  0  0  0  0
    3.9706  -18.1497    0.0000 C   0  0  0  0  0  0  0  0  0  0  0  0
    3.3859  -18.7308    0.0000 C   0  0  0  0  0  0  0  0  0  0  0  0
    3.6006  -19.5302    0.0000 C   0  0  0  0  0  0  0  0  0  0  0  0
    4.3943  -19.7418    0.0000 C   0  0  0  0  0  0  0  0  0  0  0  0
    4.7587  -17.5448    0.0000 F   0  0  0  0  0  0  0  0  0  0  0  0
    3.7615  -17.3597    0.0000 Cl  0  0  0  0  0  0  0  0  0  0  0  0
    7.4307  -17.5805    0.0000 C   0  0  0  0  0  0  0  0  0  0  0  0
    8.0062  -17.0003    0.0000 C   0  0  0  0  0  0  0  0  0  0  0  0
    8.7964  -17.2086    0.0000 C   0  0  0  0  0  0  0  0  0  0  0  0
    9.3719  -16.6285    0.0000 C   0  0  0  0  0  0  0  0  0  0  0  0
   10.1621  -16.8368    0.0000 C   0  0  0  0  0  0  0  0  0  0  0  0
  1  6  2  0
  5  2  2  0
  2  3  1  0
  3  4  2  0
  4  1  1  0
  5  6  1  0
  6  7  1  0
  7  8  1  0
  8  9  1  0
  9  5  1  0
  9 10  2  0
 11 12  1  0
 11 16  1  0
 12 13  1  0
 13 14  1  0
 14 15  1  0
 15 16  1  0
  8 11  1  0
 16 17  2  0
 14 18  2  0
 19 20  1  0
 19 24  1  0
 20 21  1  0
 21 22  1  0
 22 23  1  0
 23 24  1  0
 25 19  1  0
 19 26  1  0
 26 27  1  0
 27 28  1  0
 28 25  1  0
 29 30  2  0
 30 31  1  0
 31 34  2  0
 33 32  2  0
 32 29  1  0
 33 34  1  0
 34 35  1  0
 35 36  1  0
 25 36  1  1
 25 33  1  0
 30 37  1  0
 36 38  2  0
 27 39  1  6
 39 40  1  0
 39 41  2  0
 28 42  1  1
 42 43  2  0
 43 44  1  0
 44 45  2  0
 45 46  1  0
 46 47  2  0
 47 42  1  0
 43 48  1  0
 44 49  1  0
 40 50  1  0
 50 51  1  0
 51 52  1  0
 52 53  1  0
 53 54  1  0
 54  1  1  0
M  END
> <From>
www.bindingDB.org

> <BindingDB Reactant_set_id>
51235016

> <Ligand InChI>
InChI=1S/C41H42Cl2FN5O5/c42-24-14-15-28-30(21-24)46-39(54)41(28)33(26-12-8-13-29(43)34(26)44)35(48-40(41)18-4-2-5-19-40)37(52)45-20-6-1-3-9-23-10-7-11-25-27(23)22-49(38(25)53)31-16-17-32(50)47-36(31)51/h7-8,10-15,21,31,33,35,48H,1-6,9,16-20,22H2,(H,45,52)(H,46,54)(H,47,50,51)/t31?,33-,35+,41+/m0/s1

> <Ligand InChI Key>
BANRYGZZIMCKNA-OYGJEQPESA-N

> <BindingDB MonomerID>
50505628

> <BindingDB Ligand Name>
CHEMBL4449512

> <Target Name>
Protein cereblon

> <Target Source Organism According to Curator or DataSource>
Human

> <Ki (nM)>


> <IC50 (nM)>
 96

> <Kd (nM)>


> <EC50 (nM)>


> <kon (M-1-s-1)>


> <koff (s-1)>


> <pH>


> <Temp C>


> <Curation/DataSource>
ChEMBL

> <Article DOI>
10.1021/acs.jmedchem.9b00846

> <BindingDB Entry DOI>
10.7270/Q20C5026

> <PMID>
31560543

> <PubChem AID>


> <Patent Number>


> <Authors>
Yang, J; Li, Y; Aguilar, A; Liu, Z; Yang, CY; Wang, S

> <Date of publication>
11/14/2019

> <Date in BindingDB>
2/18/2021

> <Institution>
TBA

> <Link to Ligand in BindingDB>
http://www.bindingdb.org/bind/chemsearch/marvin/MolStructure.jsp?monomerid=50505628

> <Link to Ligand-Target Pair in BindingDB>
http://www.bindingdb.org/jsp/dbsearch/PrimarySearch_ki.jsp?energyterm=kJ/mole&tag=pol&polymerid=50007050&target=Protein+cereblon&column=ki&startPg=0&Increment=50&submit=Search

> <Link to Ligand-Target Pair in BindingDB>
http://www.bindingdb.org/jsp/dbsearch/PrimarySearch_ki.jsp?energyterm=kJ/mole&tag=r21&monomerid=50505628&enzyme=Protein+cereblon&column=ki&startPg=0&Increment=50&submit=Search

> <Ligand HET ID in PDB>


> <PDB ID(s) for Ligand-Target Complex>


> <PubChem CID of Ligand>
139600332

> <PubChem SID of Ligand>
440714213

> <ChEBI ID of Ligand>


> <ChEMBL ID of Ligand>


> <DrugBank ID of Ligand>


> <IUPHAR_GRAC ID of Ligand>


> <KEGG ID of Ligand>


> <ZINC ID of Ligand>


> <Number of Protein Chains in Target (bigger than 1 implies a multichain complex)>
1

> <BindingDB Target Chain Sequence>
MAGEGDQQDAAHNMGNHLPLLPAESEEEDEMEVEDQDSKEAKKPNIINFDTSLPTSHTYLGADMEEFHGRTLHDDDSCQVIPVLPQVMMILIPGQTLPLQLFHPQEVSMVRNLIQKDRTFAVLAYSNVQEREAQFGTTAEIYAYREEQDFGIEIVKVKAIGRQRFKVLELRTQSDGIQQAKVQILPECVLPSTMSAVQLESLNKCQIFPSKPVSREDQCSYKWWQKYQKRKFHCANLTSWPRWLYSLYDAETLMDRIKKQLREWDENLKDDSLPSNPIDFSYRVAACLPIDDVLRIQLLKIGSAIQRLRCELDIMNKCTSLCCKQCQETEITTKNEIFSLSLCGPMAAYVNPHGYVHETLTVYKACNLNLIGRPSTEHSWFPGYAWTVAQCKICASHIGWKFTATKKDMSPQKFWGLTRSALLPTIPDTEDEISPDKVILCL

> <PDB ID(s) of Target Chain>
4TZ4,5HXB,5V3O,6UML,6XK9,7LPS,7U8F,8CVP,8D7U,8D7V,8D7W,8D7X,8D7Y,8D7Z,8D80,8D81,8DEY,8OIZ,8OJH

> <UniProt (SwissProt) Recommended Name of Target Chain>
Protein cereblon

> <UniProt (SwissProt) Entry Name of Target Chain>
CRBN_HUMAN

> <UniProt (SwissProt) Primary ID of Target Chain>
Q96SW2

> <UniProt (SwissProt) Secondary ID(s) of Target Chain>
B2R6H4 C9IZA9 C9JAH6 Q6AI62 Q6NVZ0 Q9UHW4

> <UniProt (SwissProt) Alternative ID(s) of Target Chain>


> <UniProt (TrEMBL) Submitted Name of Target Chain>


> <UniProt (TrEMBL) Entry Name of Target Chain>


> <UniProt (TrEMBL) Primary ID of Target Chain>


> <UniProt (TrEMBL) Secondary ID(s) of Target Chain>


> <UniProt (TrEMBL) Alternative ID(s) of Target Chain>


$$$$
 
     RDKit          2D

 68 77  0  0  0  0  0  0  0  0999 V2000
    0.0832   -1.9563    0.0000 O   0  0  0  0  0  0  0  0  0  0  0  0
    0.6381   -2.5667    0.0000 C   0  0  0  0  0  0  0  0  0  0  0  0
    1.4429   -2.4002    0.0000 N   0  0  0  0  0  0  0  0  0  0  0  0
    1.7204   -1.5955    0.0000 C   0  0  0  0  0  0  0  0  0  0  0  0
    1.9979   -3.0107    0.0000 C   0  0  0  0  0  0  0  0  0  0  0  0
    1.7482   -3.8154    0.0000 C   0  0  0  0  0  0  0  0  0  0  0  0
    2.3031   -4.4260    0.0000 C   0  0  0  0  0  0  0  0  0  0  0  0
    2.0534   -5.2307    0.0000 C   0  0  0  0  0  0  0  0  0  0  0  0
    2.6084   -5.8411    0.0000 C   0  0  0  0  0  0  0  0  0  0  0  0
    3.4131   -5.6746    0.0000 N   0  0  0  0  0  0  0  0  0  0  0  0
    3.6906   -4.8700    0.0000 C   0  0  0  0  0  0  0  0  0  0  0  0
    4.4953   -4.7035    0.0000 N   0  0  0  0  0  0  0  0  0  0  0  0
    4.7451   -3.8987    0.0000 C   0  0  0  0  0  0  0  0  0  0  0  0
    5.5776   -3.7322    0.0000 C   0  0  0  0  0  0  0  0  0  0  0  0
    6.1325   -4.3427    0.0000 N   0  0  0  0  0  0  0  0  0  0  0  0
    5.8551   -5.1474    0.0000 C   0  0  0  0  0  0  0  0  0  0  0  0
    5.0503   -5.3139    0.0000 C   0  0  0  0  0  0  0  0  0  0  0  0
    4.8006   -6.1186    0.0000 O   0  0  0  0  0  0  0  0  0  0  0  0
    6.5488   -5.6469    0.0000 C   0  0  0  0  0  0  0  0  0  0  0  0
    7.2148   -5.1474    0.0000 C   0  0  0  0  0  0  0  0  0  0  0  0
    6.9650   -4.3427    0.0000 C   0  0  0  0  0  0  0  0  0  0  0  0
    7.6310   -3.8710    0.0000 C   0  0  0  0  0  0  0  0  0  0  0  0
    8.2970   -4.3427    0.0000 C   0  0  0  0  0  0  0  0  0  0  0  0
    8.8520   -3.7322    0.0000 C   0  0  0  0  0  0  0  0  0  0  0  0
    9.1295   -4.5369    0.0000 C   0  0  0  0  0  0  0  0  0  0  0  0
    8.0472   -5.1474    0.0000 C   0  0  0  0  0  0  0  0  0  0  0  0
    3.1356   -4.2595    0.0000 C   0  0  0  0  0  0  0  0  0  0  0  0
    3.3853   -3.4547    0.0000 C   0  0  0  0  0  0  0  0  0  0  0  0
    4.1901   -3.2882    0.0000 O   0  0  0  0  0  0  0  0  0  0  0  0
    0.9435   -3.9819    0.0000 C   0  0  0  0  0  0  0  0  0  0  0  0
    0.3884   -3.3715    0.0000 C   0  0  0  0  0  0  0  0  0  0  0  0
   -0.4440   -3.5380    0.0000 N   0  0  0  0  0  0  0  0  0  0  0  0
   -0.9989   -2.9275    0.0000 C   0  0  0  0  0  0  0  0  0  0  0  0
   -1.8036   -3.0940    0.0000 C   0  0  0  0  0  0  0  0  0  0  0  0
   -2.3586   -2.4835    0.0000 C   0  0  0  0  0  0  0  0  0  0  0  0
   -2.1089   -1.6788    0.0000 C   0  0  0  0  0  0  0  0  0  0  0  0
   -1.3041   -1.5123    0.0000 C   0  0  0  0  0  0  0  0  0  0  0  0
   -0.7214   -2.1227    0.0000 N   0  0  0  0  0  0  0  0  0  0  0  0
   -2.6639   -1.0683    0.0000 N   0  0  0  0  0  0  0  0  0  0  0  0
   -3.4686   -1.2347    0.0000 C   0  0  0  0  0  0  0  0  0  0  0  0
   -4.0236   -0.6243    0.0000 C   0  0  0  0  0  0  0  0  0  0  0  0
   -3.7739    0.1804    0.0000 N   0  0  0  0  0  0  0  0  0  0  0  0
   -4.3289    0.7907    0.0000 C   0  0  0  0  0  0  0  0  0  0  0  0
   -5.1613    0.6243    0.0000 C   0  0  0  0  0  0  0  0  0  0  0  0
   -5.7163    1.2347    0.0000 N   0  0  0  0  0  0  0  0  0  0  0  0
   -6.5211    1.0683    0.0000 C   0  0  0  0  0  0  0  0  0  0  0  0
   -6.7708    0.2636    0.0000 C   0  0  0  0  0  0  0  0  0  0  0  0
   -7.6033    0.0971    0.0000 C   0  0  0  0  0  0  0  0  0  0  0  0
   -8.1583    0.7076    0.0000 C   0  0  0  0  0  0  0  0  0  0  0  0
   -7.8807    1.5123    0.0000 C   0  0  0  0  0  0  0  0  0  0  0  0
   -7.0760    1.6788    0.0000 C   0  0  0  0  0  0  0  0  0  0  0  0
   -6.9928    2.5113    0.0000 C   0  0  0  0  0  0  0  0  0  0  0  0
   -7.7420    2.8443    0.0000 N   0  0  0  0  0  0  0  0  0  0  0  0
   -7.9363    3.6768    0.0000 C   0  0  0  0  0  0  0  0  0  0  0  0
   -8.7132    3.9265    0.0000 C   0  0  0  0  0  0  0  0  0  0  0  0
   -8.8797    4.7312    0.0000 C   0  0  0  0  0  0  0  0  0  0  0  0
   -8.2693    5.2862    0.0000 C   0  0  0  0  0  0  0  0  0  0  0  0
   -7.4645    5.0365    0.0000 N   0  0  0  0  0  0  0  0  0  0  0  0
   -7.2980    4.2317    0.0000 C   0  0  0  0  0  0  0  0  0  0  0  0
   -6.5211    3.9542    0.0000 O   0  0  0  0  0  0  0  0  0  0  0  0
   -8.4358    6.1186    0.0000 O   0  0  0  0  0  0  0  0  0  0  0  0
   -8.2970    2.2338    0.0000 C   0  0  0  0  0  0  0  0  0  0  0  0
   -9.1295    2.3170    0.0000 O   0  0  0  0  0  0  0  0  0  0  0  0
   -6.2713    2.9276    0.0000 O   0  0  0  0  0  0  0  0  0  0  0  0
   -4.0791    1.5955    0.0000 O   0  0  0  0  0  0  0  0  0  0  0  0
   -2.9691    0.3468    0.0000 C   0  0  0  0  0  0  0  0  0  0  0  0
   -2.4141   -0.2635    0.0000 C   0  0  0  0  0  0  0  0  0  0  0  0
   -1.5817   -0.0971    0.0000 C   0  0  0  0  0  0  0  0  0  0  0  0
  1  2  2  0
  2  3  1  0
  3  4  1  0
  3  5  1  0
  5  6  2  0
  6  7  1  0
  7  8  2  0
  8  9  1  0
  9 10  2  0
 10 11  1  0
 11 12  1  0
 12 13  1  0
 13 14  1  0
 14 15  1  0
 15 16  1  0
 16 17  1  0
 12 17  1  0
 17 18  2  0
 16 19  2  0
 19 20  1  0
 20 21  2  0
 15 21  1  0
 21 22  1  0
 22 23  1  0
 23 24  1  0
 23 25  1  0
 23 26  1  0
 20 26  1  0
 11 27  2  0
  7 27  1  0
 27 28  1  0
 28 29  1  0
  6 30  1  0
 30 31  2  0
  2 31  1  0
 31 32  1  0
 32 33  1  0
 33 34  1  0
 34 35  2  0
 35 36  1  0
 37 36  2  0
 33 38  2  0
 38 37  1  0
 36 39  1  0
 39 40  1  0
 40 41  1  0
 41 42  1  0
 42 43  1  0
 43 44  1  0
 44 45  1  0
 45 46  1  0
 46 47  2  0
 47 48  1  0
 48 49  2  0
 49 50  1  0
 50 51  2  0
 46 51  1  0
 51 52  1  0
 52 53  1  0
 53 54  1  0
 54 55  1  0
 55 56  1  0
 56 57  1  0
 57 58  1  0
 58 59  1  0
 54 59  1  0
 59 60  2  0
 57 61  2  0
 53 62  1  0
 50 62  1  0
 62 63  2  0
 52 64  2  0
 43 65  2  0
 42 66  1  0
 66 67  1  0
 39 67  1  0
 67 68  1  6
M  END
> <From>
www.bindingDB.org

> <BindingDB Reactant_set_id>
51547153

> <Ligand InChI>
InChI=1S/C49H51N11O8/c1-27-24-56(41(63)23-51-34-7-5-6-32-42(34)48(68)60(45(32)65)36-9-11-40(62)54-44(36)64)14-15-57(27)30-8-10-39(52-22-30)53-35-18-29(25-55(4)46(35)66)31-12-13-50-43(33(31)26-61)59-17-16-58-37(47(59)67)19-28-20-49(2,3)21-38(28)58/h5-8,10,12-13,18-19,22,25,27,36,51,61H,9,11,14-17,20-21,23-24,26H2,1-4H3,(H,52,53)(H,54,62,64)/t27-,36?/m0/s1

> <Ligand InChI Key>
DGDYTCIJBXSVPQ-XLYAUNJQSA-N

> <BindingDB MonomerID>
50622267

> <BindingDB Ligand Name>
CHEMBL5408743

> <Target Name>
Protein cereblon

> <Target Source Organism According to Curator or DataSource>
Homo sapiens

> <Ki (nM)>


> <IC50 (nM)>
 107

> <Kd (nM)>


> <EC50 (nM)>


> <kon (M-1-s-1)>


> <koff (s-1)>


> <pH>


> <Temp C>


> <Curation/DataSource>
ChEMBL

> <Article DOI>
10.1021/acs.jmedchem.3c00176

> <BindingDB Entry DOI>
10.7270/Q2GX4GZ4

> <PMID>
37195170

> <PubChem AID>


> <Patent Number>


> <Authors>
n/a

> <Date of publication>
6/8/2023

> <Date in BindingDB>
12/17/2024

> <Institution>
n/a

> <Link to Ligand in BindingDB>
http://www.bindingdb.org/bind/chemsearch/marvin/MolStructure.jsp?monomerid=50622267

> <Link to Ligand-Target Pair in BindingDB>
http://www.bindingdb.org/jsp/dbsearch/PrimarySearch_ki.jsp?energyterm=kJ/mole&tag=pol&polymerid=50007050&target=Protein+cereblon&column=ki&startPg=0&Increment=50&submit=Search

> <Link to Ligand-Target Pair in BindingDB>
http://www.bindingdb.org/jsp/dbsearch/PrimarySearch_ki.jsp?energyterm=kJ/mole&tag=r21&monomerid=50622267&enzyme=Protein+cereblon&column=ki&startPg=0&Increment=50&submit=Search

> <Ligand HET ID in PDB>


> <PDB ID(s) for Ligand-Target Complex>


> <PubChem CID>


> <PubChem SID>


> <ChEBI ID of Ligand>


> <ChEMBL ID of Ligand>


> <DrugBank ID of Ligand>


> <IUPHAR_GRAC ID of Ligand>


> <KEGG ID of Ligand>


> <ZINC ID of Ligand>


> <Number of Protein Chains in Target (bigger than 1 implies a multichain complex)>
1

> <BindingDB Target Chain Sequence>
MAGEGDQQDAAHNMGNHLPLLPAESEEEDEMEVEDQDSKEAKKPNIINFDTSLPTSHTYLGADMEEFHGRTLHDDDSCQVIPVLPQVMMILIPGQTLPLQLFHPQEVSMVRNLIQKDRTFAVLAYSNVQEREAQFGTTAEIYAYREEQDFGIEIVKVKAIGRQRFKVLELRTQSDGIQQAKVQILPECVLPSTMSAVQLESLNKCQIFPSKPVSREDQCSYKWWQKYQKRKFHCANLTSWPRWLYSLYDAETLMDRIKKQLREWDENLKDDSLPSNPIDFSYRVAACLPIDDVLRIQLLKIGSAIQRLRCELDIMNKCTSLCCKQCQETEITTKNEIFSLSLCGPMAAYVNPHGYVHETLTVYKACNLNLIGRPSTEHSWFPGYAWTVAQCKICASHIGWKFTATKKDMSPQKFWGLTRSALLPTIPDTEDEISPDKVILCL

> <PDB ID(s) of Target Chain>
8TNR,8TNQ,8TNP,8D81,8D80,8D7Z,8D7Y,8D7X,8D7W,8D7V,8D7U,8CVP,9DQD,8UH6,6BOY,6BNB,6BN9,6BN8,6BN7,6XK9,6UML,5V3O,5HXB,7U8F,8OJH,8OIZ,7LPS,4TZ4,9DJX,9DJT,8U17,8U16,8U15,8TZX,8DEY,9CUO,4M91

> <UniProt (SwissProt) Recommended Name of Target Chain>
Protein cereblon

> <UniProt (SwissProt) Entry Name of Target Chain>
CRBN_HUMAN

> <UniProt (SwissProt) Primary ID of Target Chain>
Q96SW2

> <UniProt (SwissProt) Secondary ID(s) of Target Chain>
B2R6H4 C9IZA9 C9JAH6 Q6AI62 Q6NVZ0 Q9UHW4

> <UniProt (SwissProt) Alternative ID(s) of Target Chain>


> <UniProt (TrEMBL) Submitted Name of Target Chain>


> <UniProt (TrEMBL) Entry Name of Target Chain>


> <UniProt (TrEMBL) Primary ID of Target Chain>


> <UniProt (TrEMBL) Secondary ID(s) of Target Chain>


> <UniProt (TrEMBL) Alternative ID(s) of Target Chain>


$$$$

     RDKit          2D

 62 70  0  0  0  0  0  0  0  0999 V2000
   -1.5639    5.4635    0.0000 C   0  0  0  0  0  0  0  0  0  0  0  0
   -0.0967    5.1517    0.0000 C   0  0  0  0  0  0  0  0  0  0  0  0
    1.3705    4.8398    0.0000 C   0  0  0  0  0  0  0  0  0  0  0  0
    0.2152    6.6189    0.0000 O   0  0  0  0  0  0  0  0  0  0  0  0
   -0.4086    3.6844    0.0000 C   0  0  0  0  0  0  0  0  0  0  0  0
    0.7062    2.6807    0.0000 C   0  0  0  0  0  0  0  0  0  0  0  0
    0.3943    1.2135    0.0000 C   0  0  0  0  0  0  0  0  0  0  0  0
    1.2760    0.0000    0.0000 N   0  0  0  0  0  0  0  0  0  0  0  0
    0.3943   -1.2135    0.0000 C   0  0  0  0  0  0  0  0  0  0  0  0
    0.8578   -2.6401    0.0000 C   0  0  0  0  0  0  0  0  0  0  0  0
   -0.1459   -3.7548    0.0000 C   0  0  0  0  0  0  0  0  0  0  0  0
    0.3177   -5.1814    0.0000 C   0  0  0  0  0  0  0  0  0  0  0  0
    1.7849   -5.4933    0.0000 C   0  0  0  0  0  0  0  0  0  0  0  0
    2.2484   -6.9199    0.0000 C   0  0  0  0  0  0  0  0  0  0  0  0
    1.2447   -8.0346    0.0000 N   0  0  0  0  0  0  0  0  0  0  0  0
   -0.2532   -8.1131    0.0000 C   0  0  0  0  0  0  0  0  0  0  0  0
   -0.1747   -9.6110    0.0000 C   0  0  0  0  0  0  0  0  0  0  0  0
   -1.6727   -9.6895    0.0000 C   0  0  0  0  0  0  0  0  0  0  0  0
   -1.5942  -11.1875    0.0000 C   0  0  0  0  0  0  0  0  0  0  0  0
   -2.5979  -12.3022    0.0000 C   0  0  0  0  0  0  0  0  0  0  0  0
   -4.0651  -11.9903    0.0000 C   0  0  0  0  0  0  0  0  0  0  0  0
   -5.0688  -13.1050    0.0000 N   0  0  0  0  0  0  0  0  0  0  0  0
   -6.5360  -12.7932    0.0000 C   0  0  0  0  0  0  0  0  0  0  0  0
   -6.9995  -11.3666    0.0000 C   0  0  0  0  0  0  0  0  0  0  0  0
   -8.4668  -11.0547    0.0000 C   0  0  0  0  0  0  0  0  0  0  0  0
   -9.4705  -12.1694    0.0000 C   0  0  0  0  0  0  0  0  0  0  0  0
   -9.0069  -13.5960    0.0000 C   0  0  0  0  0  0  0  0  0  0  0  0
   -7.5397  -13.9079    0.0000 C   0  0  0  0  0  0  0  0  0  0  0  0
   -7.3829  -15.3997    0.0000 C   0  0  0  0  0  0  0  0  0  0  0  0
   -6.0839  -16.1497    0.0000 O   0  0  0  0  0  0  0  0  0  0  0  0
   -8.7532  -16.0098    0.0000 N   0  0  0  0  0  0  0  0  0  0  0  0
   -9.0651  -17.4770    0.0000 C   0  0  0  0  0  0  0  0  0  0  0  0
  -10.4917  -17.9405    0.0000 C   0  0  0  0  0  0  0  0  0  0  0  0
  -10.8036  -19.4078    0.0000 C   0  0  0  0  0  0  0  0  0  0  0  0
   -9.6888  -20.4114    0.0000 C   0  0  0  0  0  0  0  0  0  0  0  0
  -10.0007  -21.8787    0.0000 O   0  0  0  0  0  0  0  0  0  0  0  0
   -8.2623  -19.9479    0.0000 N   0  0  0  0  0  0  0  0  0  0  0  0
   -7.9504  -18.4807    0.0000 C   0  0  0  0  0  0  0  0  0  0  0  0
   -6.5238  -18.0172    0.0000 O   0  0  0  0  0  0  0  0  0  0  0  0
   -9.7569  -14.8951    0.0000 C   0  0  0  0  0  0  0  0  0  0  0  0
  -11.2487  -15.0519    0.0000 O   0  0  0  0  0  0  0  0  0  0  0  0
   -0.0962  -11.1090    0.0000 C   0  0  0  0  0  0  0  0  0  0  0  0
    1.3232   -9.5325    0.0000 C   0  0  0  0  0  0  0  0  0  0  0  0
    2.7886   -4.3786    0.0000 C   0  0  0  0  0  0  0  0  0  0  0  0
    2.3250   -2.9520    0.0000 C   0  0  0  0  0  0  0  0  0  0  0  0
   -1.0323   -0.7500    0.0000 S   0  0  0  0  0  0  0  0  0  0  0  0
   -1.0323    0.7500    0.0000 C   0  0  0  0  0  0  0  0  0  0  0  0
   -2.1470    1.7537    0.0000 C   0  0  0  0  0  0  0  0  0  0  0  0
   -1.8351    3.2209    0.0000 C   0  0  0  0  0  0  0  0  0  0  0  0
   -2.9499    4.2246    0.0000 N   0  0  0  0  0  0  0  0  0  0  0  0
   -4.3764    3.7611    0.0000 C   0  0  0  0  0  0  0  0  0  0  0  0
   -4.6883    2.2939    0.0000 O   0  0  0  0  0  0  0  0  0  0  0  0
   -5.4912    4.7648    0.0000 C   0  0  0  0  0  0  0  0  0  0  0  0
   -5.1793    6.2320    0.0000 C   0  0  0  0  0  0  0  0  0  0  0  0
   -6.2940    7.2357    0.0000 C   0  0  0  0  0  0  0  0  0  0  0  0
   -7.7206    6.7722    0.0000 C   0  0  0  0  0  0  0  0  0  0  0  0
   -8.0325    5.3050    0.0000 C   0  0  0  0  0  0  0  0  0  0  0  0
   -9.4590    4.8414    0.0000 C   0  0  0  0  0  0  0  0  0  0  0  0
  -10.8856    4.3779    0.0000 F   0  0  0  0  0  0  0  0  0  0  0  0
   -9.9226    6.2680    0.0000 F   0  0  0  0  0  0  0  0  0  0  0  0
   -8.9955    3.4148    0.0000 F   0  0  0  0  0  0  0  0  0  0  0  0
   -6.9177    4.3013    0.0000 N   0  0  0  0  0  0  0  0  0  0  0  0
  1  2  1  0
  2  3  1  0
  2  4  1  0
  2  5  1  0
  5  6  2  0
  6  7  1  0
  7  8  1  0
  8  9  2  0
 10  9  1  6
 10 11  1  0
 11 12  1  0
 12 13  1  0
 13 14  1  1
 14 15  1  0
 15 16  1  0
 16 17  1  0
 17 18  1  0
 18 19  1  0
 19 20  1  0
 20 21  1  0
 21 22  1  0
 22 23  1  0
 23 24  2  0
 24 25  1  0
 25 26  2  0
 26 27  1  0
 27 28  2  0
 28 29  1  0
 29 30  2  0
 29 31  1  0
 32 31  1  1
 32 33  1  0
 33 34  1  0
 34 35  1  0
 35 36  2  0
 35 37  1  0
 37 38  1  0
 38 39  2  0
 31 40  1  0
 40 41  2  0
 19 42  1  0
 17 43  1  0
 13 44  1  0
 44 45  1  0
  9 46  1  0
 46 47  1  0
 47 48  1  0
 48 49  2  0
 49 50  1  0
 50 51  1  0
 51 52  2  0
 51 53  1  0
 53 54  2  0
 54 55  1  0
 55 56  2  0
 56 57  1  0
 57 58  1  0
 58 59  1  0
 58 60  1  0
 58 61  1  0
 57 62  2  0
 49  5  1  0
 62 53  1  0
 47  7  2  0
 45 10  1  0
 43 15  1  0
 42 17  1  0
 28 23  1  0
 38 32  1  0
 40 27  1  0
M  END
> <From>
www.bindingDB.org

> <BindingDB Reactant_set_id>
51589170

> <Ligand InChI>
InChI=1S/C45H48F3N7O6S/c1-43(2,61)28-17-32-34(18-31(28)51-38(57)30-7-4-8-35(50-30)45(46,47)48)62-40(52-32)26-11-9-24(10-12-26)21-54-22-44(23-54)19-25(20-44)15-16-49-29-6-3-5-27-37(29)42(60)55(41(27)59)33-13-14-36(56)53-39(33)58/h3-8,17-18,24-26,33,49,61H,9-16,19-23H2,1-2H3,(H,51,57)(H,53,56,58)

> <Ligand InChI Key>
WDRJGMSUTPVXDH-UHFFFAOYSA-N

> <BindingDB MonomerID>
50639853

> <BindingDB Ligand Name>
CHEMBL5561239

> <Target Name>
Protein cereblon

> <Target Source Organism According to Curator or DataSource>
Human

> <Ki (nM)>


> <IC50 (nM)>
 110

> <Kd (nM)>


> <EC50 (nM)>


> <kon (M-1-s-1)>


> <koff (s-1)>


> <pH>


> <Temp C>


> <Curation/DataSource>
ChEMBL

> <Article DOI>


> <BindingDB Entry DOI>
10.7270/Q23F4V8G

> <PMID>
38920289

> <PubChem AID>


> <Patent Number>


> <Authors>
Weiss, MM; Zheng, X; Ji, N; Browne, CM; Campbell, V; Chen, D; Enerson, B; Fei, X; Huang, X; Klaus, CR; Li, H; Mayo, M; McDonald, AA; Paul, A; Rong, H; Sharma, K; Shi, Y; Slavin, A; Walther, DM; Yuan, K; Zhang, Y; Zhu, X; Kelleher, J; Walker, D; Mainolfi, N

> <Date of publication>
//0

> <Date in BindingDB>
10/11/2025

> <Institution>
Kymera Therapeutics

> <Link to Ligand in BindingDB>
http://www.bindingdb.org/bind/chemsearch/marvin/MolStructure.jsp?monomerid=50639853

> <Link to Ligand-Target Pair in BindingDB>
http://www.bindingdb.org/rwd/jsp/dbsearch/PrimarySearch_ki.jsp?energyterm=kJ/mole&tag=pol&polymerid=50007050&target=Protein+cereblon&column=ki&startPg=0&Increment=50&submit=Search

> <Link to Ligand-Target Pair in BindingDB>
http://www.bindingdb.org/rwd/jsp/dbsearch/PrimarySearch_ki.jsp?energyterm=kJ/mole&tag=r21&monomerid=50639853&enzyme=Protein+cereblon&column=ki&startPg=0&Increment=50&submit=Search

> <Ligand HET ID in PDB>


> <PDB ID(s) for Ligand-Target Complex>


> <PubChem CID of Ligand>
156506629

> <PubChem SID of Ligand>
519660256

> <ChEBI ID of Ligand>


> <ChEMBL ID of Ligand>


> <DrugBank ID of Ligand>


> <IUPHAR_GRAC ID of Ligand>


> <KEGG ID of Ligand>


> <ZINC ID of Ligand>


> <Number of Protein Chains in Target (bigger than 1 implies a multichain complex)>
1

> <BindingDB Target Chain Sequence>
MAGEGDQQDAAHNMGNHLPLLPAESEEEDEMEVEDQDSKEAKKPNIINFDTSLPTSHTYLGADMEEFHGRTLHDDDSCQVIPVLPQVMMILIPGQTLPLQLFHPQEVSMVRNLIQKDRTFAVLAYSNVQEREAQFGTTAEIYAYREEQDFGIEIVKVKAIGRQRFKVLELRTQSDGIQQAKVQILPECVLPSTMSAVQLESLNKCQIFPSKPVSREDQCSYKWWQKYQKRKFHCANLTSWPRWLYSLYDAETLMDRIKKQLREWDENLKDDSLPSNPIDFSYRVAACLPIDDVLRIQLLKIGSAIQRLRCELDIMNKCTSLCCKQCQETEITTKNEIFSLSLCGPMAAYVNPHGYVHETLTVYKACNLNLIGRPSTEHSWFPGYAWTVAQCKICASHIGWKFTATKKDMSPQKFWGLTRSALLPTIPDTEDEISPDKVILCL

> <PDB ID(s) of Target Chain>
9DUR,8TNR,8TNQ,8TNP,9DWW,9DWV,9NGT,9NFR,9NFQ,8D81,8D80,8D7Z,8D7Y,8D7X,8D7W,8D7V,8D7U,8CVP,9Q2D,9Q03,9DQD,8UH6,9SAI,9SAF,9H59,9E2U,6BOY,6BNB,6BN9,6BN8,6BN7,9OUL,9Y7D,6XK9,6UML,5V3O,5HXB,9HNE,9D0X,9D0W,7U8F,9FJX,8OJH,8OIZ,7LPS,9SFM,9OTY,4TZ4,9DJX,9DJT,8U17,8U16,8U15,8TZX,8DEY,9CUO,4M91

> <UniProt (SwissProt) Recommended Name of Target Chain>
Protein cereblon

> <UniProt (SwissProt) Entry Name of Target Chain>
CRBN_HUMAN

> <UniProt (SwissProt) Primary ID of Target Chain>
Q96SW2

> <UniProt (SwissProt) Secondary ID(s) of Target Chain>
B2R6H4 C9IZA9 C9JAH6 Q6AI62 Q6NVZ0 Q9UHW4

> <UniProt (SwissProt) Alternative ID(s) of Target Chain>


> <UniProt (TrEMBL) Submitted Name of Target Chain>


> <UniProt (TrEMBL) Entry Name of Target Chain>


> <UniProt (TrEMBL) Primary ID of Target Chain>


> <UniProt (TrEMBL) Secondary ID(s) of Target Chain>


> <UniProt (TrEMBL) Alternative ID(s) of Target Chain>


$$$$
 
     RDKit          2D

 56 63  0  0  0  0  0  0  0  0999 V2000
    3.7200    3.3630    0.0000 C   0  0  0  0  0  0  0  0  0  0  0  0
    3.0015    2.9577    0.0000 C   0  0  0  0  0  0  0  0  0  0  0  0
    2.9931    2.1327    0.0000 C   0  0  0  0  0  0  0  0  0  0  0  0
    2.2745    1.7274    0.0000 C   0  0  0  0  0  0  0  0  0  0  0  0
    1.5641    2.1469    0.0000 C   0  0  0  0  0  0  0  0  0  0  0  0
    0.8456    1.7418    0.0000 C   0  0  0  0  0  0  0  0  0  0  0  0
    0.8373    0.9167    0.0000 N   0  0  0  0  0  0  0  0  0  0  0  0
    0.1186    0.5115    0.0000 C   0  0  0  0  0  0  0  0  0  0  0  0
   -0.5916    0.9312    0.0000 C   0  0  0  0  0  0  0  0  0  0  0  0
   -1.3102    0.5259    0.0000 C   0  0  0  0  0  0  0  0  0  0  0  0
   -2.0206    0.9456    0.0000 C   0  0  0  0  0  0  0  0  0  0  0  0
   -2.7392    0.5403    0.0000 C   0  0  0  0  0  0  0  0  0  0  0  0
   -3.4495    0.9599    0.0000 N   0  0  0  0  0  0  0  0  0  0  0  0
   -4.1682    0.5547    0.0000 C   0  0  0  0  0  0  0  0  0  0  0  0
   -4.8784    0.9743    0.0000 C   0  0  0  0  0  0  0  0  0  0  0  0
   -5.5971    0.5689    0.0000 C   0  0  0  0  0  0  0  0  0  0  0  0
   -5.5437   -0.2541    0.0000 N   0  0  0  0  0  0  0  0  0  0  0  0
   -6.1541   -0.8092    0.0000 C   0  0  0  0  0  0  0  0  0  0  0  0
   -5.9189   -1.5999    0.0000 C   0  0  0  0  0  0  0  0  0  0  0  0
   -6.4861   -2.1991    0.0000 C   0  0  0  0  0  0  0  0  0  0  0  0
   -6.2509   -2.9899    0.0000 C   0  0  0  0  0  0  0  0  0  0  0  0
   -5.4484   -3.1816    0.0000 C   0  0  0  0  0  0  0  0  0  0  0  0
   -5.2131   -3.9724    0.0000 Cl  0  0  0  0  0  0  0  0  0  0  0  0
   -4.8812   -2.5825    0.0000 C   0  0  0  0  0  0  0  0  0  0  0  0
   -5.1163   -1.7917    0.0000 C   0  0  0  0  0  0  0  0  0  0  0  0
   -6.9687   -0.6780    0.0000 C   0  0  0  0  0  0  0  0  0  0  0  0
   -7.5269   -1.2855    0.0000 C   0  0  0  0  0  0  0  0  0  0  0  0
   -7.3635   -2.0942    0.0000 C   0  0  0  0  0  0  0  0  0  0  0  0
   -8.2772   -0.9424    0.0000 C   0  0  0  0  0  0  0  0  0  0  0  0
   -8.9957   -1.3476    0.0000 C   0  0  0  0  0  0  0  0  0  0  0  0
   -8.1827   -0.1228    0.0000 S   0  0  0  0  0  0  0  0  0  0  0  0
   -7.3738    0.0405    0.0000 C   0  0  0  0  0  0  0  0  0  0  0  0
   -7.0648    0.8053    0.0000 N   0  0  0  0  0  0  0  0  0  0  0  0
   -7.5329    1.4847    0.0000 C   0  0  0  0  0  0  0  0  0  0  0  0
   -8.3577    1.5055    0.0000 C   0  0  0  0  0  0  0  0  0  0  0  0
   -7.0314    2.1400    0.0000 N   0  0  0  0  0  0  0  0  0  0  0  0
   -6.2534    1.8655    0.0000 N   0  0  0  0  0  0  0  0  0  0  0  0
   -6.2740    1.0406    0.0000 C   0  0  0  0  0  0  0  0  0  0  0  0
   -4.1765   -0.2702    0.0000 O   0  0  0  0  0  0  0  0  0  0  0  0
    1.5475    0.4970    0.0000 C   0  0  0  0  0  0  0  0  0  0  0  0
    2.2662    0.9024    0.0000 C   0  0  0  0  0  0  0  0  0  0  0  0
    3.7034    1.7130    0.0000 C   0  0  0  0  0  0  0  0  0  0  0  0
    4.4221    2.1183    0.0000 C   0  0  0  0  0  0  0  0  0  0  0  0
    5.2042    1.8554    0.0000 C   0  0  0  0  0  0  0  0  0  0  0  0
    5.6958    2.5179    0.0000 N   0  0  0  0  0  0  0  0  0  0  0  0
    6.5208    2.5097    0.0000 C   0  0  0  0  0  0  0  0  0  0  0  0
    6.9260    1.7911    0.0000 C   0  0  0  0  0  0  0  0  0  0  0  0
    6.5064    1.0807    0.0000 O   0  0  0  0  0  0  0  0  0  0  0  0
    7.7511    1.7828    0.0000 N   0  0  0  0  0  0  0  0  0  0  0  0
    8.1708    2.4930    0.0000 C   0  0  0  0  0  0  0  0  0  0  0  0
    8.9957    2.4847    0.0000 O   0  0  0  0  0  0  0  0  0  0  0  0
    7.7655    3.2117    0.0000 C   0  0  0  0  0  0  0  0  0  0  0  0
    6.9404    3.2200    0.0000 C   0  0  0  0  0  0  0  0  0  0  0  0
    5.2176    3.1903    0.0000 C   0  0  0  0  0  0  0  0  0  0  0  0
    5.4804    3.9724    0.0000 O   0  0  0  0  0  0  0  0  0  0  0  0
    4.4304    2.9432    0.0000 C   0  0  0  0  0  0  0  0  0  0  0  0
  1  2  1  0
  2  3  2  0
  4  3  1  0
  4  5  1  0
  5  6  1  0
  6  7  1  0
  8  7  1  0
  9  8  1  0
 10  9  1  0
 11 10  1  0
 12 11  1  0
 13 12  1  0
 14 13  1  0
 14 15  1  0
 16 15  1  6
 16 17  1  0
 17 18  2  0
 18 19  1  0
 19 20  1  0
 20 21  2  0
 21 22  1  0
 22 23  1  0
 22 24  2  0
 24 25  1  0
 25 19  2  0
 18 26  1  0
 26 27  1  0
 27 28  1  0
 27 29  2  0
 29 30  1  0
 29 31  1  0
 32 31  1  0
 26 32  2  0
 33 32  1  0
 33 34  1  0
 34 35  1  0
 34 36  2  0
 36 37  1  0
 38 37  2  0
 38 33  1  0
 38 16  1  0
 14 39  2  0
 40  7  1  0
 40 41  1  0
  4 41  1  0
  3 42  1  0
 42 43  2  0
 43 44  1  0
 45 44  1  0
 45 46  1  0
 46 47  1  0
 47 48  2  0
 47 49  1  0
 49 50  1  0
 50 51  2  0
 50 52  1  0
 52 53  1  0
 53 46  1  0
 54 45  1  0
 54 55  2  0
 56 54  1  0
 43 56  1  0
 56  1  2  0
M  END
> <From>
www.bindingDB.org

> <BindingDB Reactant_set_id>
51570522

> <Ligand InChI>
InChI=1S/C42H47ClN8O4S/c1-24-25(2)56-42-37(24)38(28-7-10-31(43)11-8-28)45-33(39-48-47-26(3)51(39)42)22-36(53)44-17-5-4-6-18-49-19-15-27(16-20-49)29-9-12-32-30(21-29)23-50(41(32)55)34-13-14-35(52)46-40(34)54/h7-12,21,27,33-34H,4-6,13-20,22-23H2,1-3H3,(H,44,53)(H,46,52,54)/t33-,34?/m0/s1

> <Ligand InChI Key>
OJBZGRZGVKAUHH-CDRRMRQFSA-N

> <BindingDB MonomerID>
50631626

> <BindingDB Ligand Name>
CHEMBL5394571

> <Target Name>
Protein cereblon

> <Target Source Organism According to Curator or DataSource>
Homo sapiens

> <Ki (nM)>


> <IC50 (nM)>
 137

> <Kd (nM)>


> <EC50 (nM)>


> <kon (M-1-s-1)>


> <koff (s-1)>


> <pH>


> <Temp C>


> <Curation/DataSource>
ChEMBL

> <Article DOI>
10.1021/acs.jmedchem.3c01613

> <BindingDB Entry DOI>
10.7270/Q2T1583Z

> <PMID>
38096359

> <PubChem AID>


> <Patent Number>


> <Authors>
Arndt, CM; Bitai, J; Brunner, J; Opatz, T; Martinelli, P; Gollner, A; Sokol, KR; Krumb, M

> <Date of publication>
12/28/2023

> <Date in BindingDB>
12/21/2024

> <Institution>
Boehringer Ingelheim Rcv

> <Link to Ligand in BindingDB>
http://www.bindingdb.org/bind/chemsearch/marvin/MolStructure.jsp?monomerid=50631626

> <Link to Ligand-Target Pair in BindingDB>
http://www.bindingdb.org/jsp/dbsearch/PrimarySearch_ki.jsp?energyterm=kJ/mole&tag=pol&polymerid=50007050&target=Protein+cereblon&column=ki&startPg=0&Increment=50&submit=Search

> <Link to Ligand-Target Pair in BindingDB>
http://www.bindingdb.org/jsp/dbsearch/PrimarySearch_ki.jsp?energyterm=kJ/mole&tag=r21&monomerid=50631626&enzyme=Protein+cereblon&column=ki&startPg=0&Increment=50&submit=Search

> <Ligand HET ID in PDB>


> <PDB ID(s) for Ligand-Target Complex>


> <PubChem CID of Ligand>
172439829

> <PubChem SID of Ligand>
505035960

> <ChEBI ID of Ligand>


> <ChEMBL ID of Ligand>


> <DrugBank ID of Ligand>


> <IUPHAR_GRAC ID of Ligand>


> <KEGG ID of Ligand>


> <ZINC ID of Ligand>


> <Number of Protein Chains in Target (bigger than 1 implies a multichain complex)>
1

> <BindingDB Target Chain Sequence>
MAGEGDQQDAAHNMGNHLPLLPAESEEEDEMEVEDQDSKEAKKPNIINFDTSLPTSHTYLGADMEEFHGRTLHDDDSCQVIPVLPQVMMILIPGQTLPLQLFHPQEVSMVRNLIQKDRTFAVLAYSNVQEREAQFGTTAEIYAYREEQDFGIEIVKVKAIGRQRFKVLELRTQSDGIQQAKVQILPECVLPSTMSAVQLESLNKCQIFPSKPVSREDQCSYKWWQKYQKRKFHCANLTSWPRWLYSLYDAETLMDRIKKQLREWDENLKDDSLPSNPIDFSYRVAACLPIDDVLRIQLLKIGSAIQRLRCELDIMNKCTSLCCKQCQETEITTKNEIFSLSLCGPMAAYVNPHGYVHETLTVYKACNLNLIGRPSTEHSWFPGYAWTVAQCKICASHIGWKFTATKKDMSPQKFWGLTRSALLPTIPDTEDEISPDKVILCL

> <PDB ID(s) of Target Chain>
8TNR,8TNQ,8TNP,8D81,8D80,8D7Z,8D7Y,8D7X,8D7W,8D7V,8D7U,8CVP,9DQD,8UH6,6BOY,6BNB,6BN9,6BN8,6BN7,6XK9,6UML,5V3O,5HXB,7U8F,8OJH,8OIZ,7LPS,4TZ4,9DJX,9DJT,8U17,8U16,8U15,8TZX,8DEY,9CUO,4M91

> <UniProt (SwissProt) Recommended Name of Target Chain>
Protein cereblon

> <UniProt (SwissProt) Entry Name of Target Chain>
CRBN_HUMAN

> <UniProt (SwissProt) Primary ID of Target Chain>
Q96SW2

> <UniProt (SwissProt) Secondary ID(s) of Target Chain>
B2R6H4 C9IZA9 C9JAH6 Q6AI62 Q6NVZ0 Q9UHW4

> <UniProt (SwissProt) Alternative ID(s) of Target Chain>


> <UniProt (TrEMBL) Submitted Name of Target Chain>


> <UniProt (TrEMBL) Entry Name of Target Chain>


> <UniProt (TrEMBL) Primary ID of Target Chain>


> <UniProt (TrEMBL) Secondary ID(s) of Target Chain>


> <UniProt (TrEMBL) Alternative ID(s) of Target Chain>


$$$$
 
     RDKit          2D

 54 61  0  0  0  0  0  0  0  0999 V2000
   10.7339  -16.2570    0.0000 C   0  0  0  0  0  0  0  0  0  0  0  0
   11.8815  -15.0974    0.0000 C   0  0  0  0  0  0  0  0  0  0  0  0
   11.0866  -14.8905    0.0000 C   0  0  0  0  0  0  0  0  0  0  0  0
   10.5148  -15.4714    0.0000 C   0  0  0  0  0  0  0  0  0  0  0  0
   12.0960  -15.8868    0.0000 C   0  0  0  0  0  0  0  0  0  0  0  0
   11.5211  -16.4637    0.0000 C   0  0  0  0  0  0  0  0  0  0  0  0
   11.8920  -17.1889    0.0000 C   0  0  0  0  0  0  0  0  0  0  0  0
   12.6964  -17.0601    0.0000 N   0  0  0  0  0  0  0  0  0  0  0  0
   12.8223  -16.2554    0.0000 C   0  0  0  0  0  0  0  0  0  0  0  0
   13.5498  -15.8832    0.0000 O   0  0  0  0  0  0  0  0  0  0  0  0
   13.2734  -17.6350    0.0000 C   0  0  0  0  0  0  0  0  0  0  0  0
   13.0611  -18.4251    0.0000 C   0  0  0  0  0  0  0  0  0  0  0  0
   13.6361  -19.0008    0.0000 C   0  0  0  0  0  0  0  0  0  0  0  0
   14.4265  -18.7920    0.0000 C   0  0  0  0  0  0  0  0  0  0  0  0
   14.6388  -18.0018    0.0000 N   0  0  0  0  0  0  0  0  0  0  0  0
   14.0606  -17.4206    0.0000 C   0  0  0  0  0  0  0  0  0  0  0  0
   14.2716  -16.6311    0.0000 O   0  0  0  0  0  0  0  0  0  0  0  0
   15.0031  -19.3710    0.0000 O   0  0  0  0  0  0  0  0  0  0  0  0
    7.0039  -19.8437    0.0000 C   0  0  0  0  0  0  0  0  0  0  0  0
    7.2144  -20.6320    0.0000 C   0  0  0  0  0  0  0  0  0  0  0  0
    7.9980  -20.8427    0.0000 C   0  0  0  0  0  0  0  0  0  0  0  0
    8.5766  -20.2683    0.0000 C   0  0  0  0  0  0  0  0  0  0  0  0
    8.3661  -19.4800    0.0000 C   0  0  0  0  0  0  0  0  0  0  0  0
    7.5770  -19.2661    0.0000 C   0  0  0  0  0  0  0  0  0  0  0  0
    6.2158  -20.0613    0.0000 C   0  0  0  0  0  0  0  0  0  0  0  0
    7.0437  -19.0306    0.0000 N   0  0  0  0  0  0  0  0  0  0  0  0
    6.2797  -18.7409    0.0000 C   0  0  0  0  0  0  0  0  0  0  0  0
    5.7682  -19.3779    0.0000 C   0  0  0  0  0  0  0  0  0  0  0  0
    4.0226  -20.3224    0.0000 C   0  0  0  0  0  0  0  0  0  0  0  0
    4.0215  -21.1420    0.0000 C   0  0  0  0  0  0  0  0  0  0  0  0
    4.7295  -21.5509    0.0000 C   0  0  0  0  0  0  0  0  0  0  0  0
    4.7277  -19.9136    0.0000 C   0  0  0  0  0  0  0  0  0  0  0  0
    5.4364  -20.3188    0.0000 C   0  0  0  0  0  0  0  0  0  0  0  0
    5.4412  -21.1374    0.0000 C   0  0  0  0  0  0  0  0  0  0  0  0
    6.2212  -21.3859    0.0000 N   0  0  0  0  0  0  0  0  0  0  0  0
    6.6985  -20.7208    0.0000 C   0  0  0  0  0  0  0  0  0  0  0  0
    3.3135  -21.5500    0.0000 Cl  0  0  0  0  0  0  0  0  0  0  0  0
    7.4042  -21.1273    0.0000 O   0  0  0  0  0  0  0  0  0  0  0  0
    6.0650  -17.9524    0.0000 C   0  0  0  0  0  0  0  0  0  0  0  0
    6.6405  -17.3722    0.0000 N   0  0  0  0  0  0  0  0  0  0  0  0
    5.2748  -17.7441    0.0000 O   0  0  0  0  0  0  0  0  0  0  0  0
    4.9733  -19.1627    0.0000 C   0  0  0  0  0  0  0  0  0  0  0  0
    4.7646  -18.3650    0.0000 C   0  0  0  0  0  0  0  0  0  0  0  0
    3.9706  -18.1497    0.0000 C   0  0  0  0  0  0  0  0  0  0  0  0
    3.3859  -18.7308    0.0000 C   0  0  0  0  0  0  0  0  0  0  0  0
    3.6006  -19.5302    0.0000 C   0  0  0  0  0  0  0  0  0  0  0  0
    4.3943  -19.7418    0.0000 C   0  0  0  0  0  0  0  0  0  0  0  0
    4.7587  -17.5448    0.0000 F   0  0  0  0  0  0  0  0  0  0  0  0
    3.7615  -17.3597    0.0000 Cl  0  0  0  0  0  0  0  0  0  0  0  0
    7.4307  -17.5805    0.0000 C   0  0  0  0  0  0  0  0  0  0  0  0
    8.0062  -17.0003    0.0000 C   0  0  0  0  0  0  0  0  0  0  0  0
    8.7964  -17.2086    0.0000 C   0  0  0  0  0  0  0  0  0  0  0  0
    9.3719  -16.6285    0.0000 C   0  0  0  0  0  0  0  0  0  0  0  0
   10.1621  -16.8368    0.0000 C   0  0  0  0  0  0  0  0  0  0  0  0
  1  6  2  0
  5  2  2  0
  2  3  1  0
  3  4  2  0
  4  1  1  0
  5  6  1  0
  6  7  1  0
  7  8  1  0
  8  9  1  0
  9  5  1  0
  9 10  2  0
 11 12  1  0
 11 16  1  0
 12 13  1  0
 13 14  1  0
 14 15  1  0
 15 16  1  0
  8 11  1  0
 16 17  2  0
 14 18  2  0
 19 20  1  0
 19 24  1  0
 20 21  1  0
 21 22  1  0
 22 23  1  0
 23 24  1  0
 25 19  1  0
 19 26  1  0
 26 27  1  0
 27 28  1  0
 28 25  1  0
 29 30  2  0
 30 31  1  0
 31 34  2  0
 33 32  2  0
 32 29  1  0
 33 34  1  0
 34 35  1  0
 35 36  1  0
 25 36  1  1
 25 33  1  0
 30 37  1  0
 36 38  2  0
 27 39  1  6
 39 40  1  0
 39 41  2  0
 28 42  1  1
 42 43  2  0
 43 44  1  0
 44 45  2  0
 45 46  1  0
 46 47  2  0
 47 42  1  0
 43 48  1  0
 44 49  1  0
 40 50  1  0
 50 51  1  0
 51 52  1  0
 52 53  1  0
 53 54  1  0
 54  1  1  0
M  END
> <From>
www.bindingDB.org

> <BindingDB Reactant_set_id>
51235027

> <Ligand InChI>
InChI=1S/C41H42Cl2FN5O5/c42-24-14-15-28-30(21-24)46-39(54)41(28)33(26-12-8-13-29(43)34(26)44)35(48-40(41)18-4-2-5-19-40)37(52)45-20-6-1-3-9-23-10-7-11-25-27(23)22-49(38(25)53)31-16-17-32(50)47-36(31)51/h7-8,10-15,21,31,33,35,48H,1-6,9,16-20,22H2,(H,45,52)(H,46,54)(H,47,50,51)/t31?,33-,35+,41+/m0/s1

> <Ligand InChI Key>
BANRYGZZIMCKNA-OYGJEQPESA-N

> <BindingDB MonomerID>
50505628

> <BindingDB Ligand Name>
CHEMBL4449512

> <Target Name>
Protein cereblon

> <Target Source Organism According to Curator or DataSource>
Human

> <Ki (nM)>


> <IC50 (nM)>
 168

> <Kd (nM)>


> <EC50 (nM)>


> <kon (M-1-s-1)>


> <koff (s-1)>


> <pH>


> <Temp C>


> <Curation/DataSource>
ChEMBL

> <Article DOI>
10.1021/acs.jmedchem.9b00846

> <BindingDB Entry DOI>
10.7270/Q20C5026

> <PMID>
31560543

> <PubChem AID>


> <Patent Number>


> <Authors>
Yang, J; Li, Y; Aguilar, A; Liu, Z; Yang, CY; Wang, S

> <Date of publication>
11/14/2019

> <Date in BindingDB>
2/18/2021

> <Institution>
TBA

> <Link to Ligand in BindingDB>
http://www.bindingdb.org/bind/chemsearch/marvin/MolStructure.jsp?monomerid=50505628

> <Link to Ligand-Target Pair in BindingDB>
http://www.bindingdb.org/jsp/dbsearch/PrimarySearch_ki.jsp?energyterm=kJ/mole&tag=pol&polymerid=50007050&target=Protein+cereblon&column=ki&startPg=0&Increment=50&submit=Search

> <Link to Ligand-Target Pair in BindingDB>
http://www.bindingdb.org/jsp/dbsearch/PrimarySearch_ki.jsp?energyterm=kJ/mole&tag=r21&monomerid=50505628&enzyme=Protein+cereblon&column=ki&startPg=0&Increment=50&submit=Search

> <Ligand HET ID in PDB>


> <PDB ID(s) for Ligand-Target Complex>


> <PubChem CID of Ligand>
139600332

> <PubChem SID of Ligand>
440714213

> <ChEBI ID of Ligand>


> <ChEMBL ID of Ligand>


> <DrugBank ID of Ligand>


> <IUPHAR_GRAC ID of Ligand>


> <KEGG ID of Ligand>


> <ZINC ID of Ligand>


> <Number of Protein Chains in Target (bigger than 1 implies a multichain complex)>
1

> <BindingDB Target Chain Sequence>
MAGEGDQQDAAHNMGNHLPLLPAESEEEDEMEVEDQDSKEAKKPNIINFDTSLPTSHTYLGADMEEFHGRTLHDDDSCQVIPVLPQVMMILIPGQTLPLQLFHPQEVSMVRNLIQKDRTFAVLAYSNVQEREAQFGTTAEIYAYREEQDFGIEIVKVKAIGRQRFKVLELRTQSDGIQQAKVQILPECVLPSTMSAVQLESLNKCQIFPSKPVSREDQCSYKWWQKYQKRKFHCANLTSWPRWLYSLYDAETLMDRIKKQLREWDENLKDDSLPSNPIDFSYRVAACLPIDDVLRIQLLKIGSAIQRLRCELDIMNKCTSLCCKQCQETEITTKNEIFSLSLCGPMAAYVNPHGYVHETLTVYKACNLNLIGRPSTEHSWFPGYAWTVAQCKICASHIGWKFTATKKDMSPQKFWGLTRSALLPTIPDTEDEISPDKVILCL

> <PDB ID(s) of Target Chain>
4TZ4,5HXB,5V3O,6UML,6XK9,7LPS,7U8F,8CVP,8D7U,8D7V,8D7W,8D7X,8D7Y,8D7Z,8D80,8D81,8DEY,8OIZ,8OJH

> <UniProt (SwissProt) Recommended Name of Target Chain>
Protein cereblon

> <UniProt (SwissProt) Entry Name of Target Chain>
CRBN_HUMAN

> <UniProt (SwissProt) Primary ID of Target Chain>
Q96SW2

> <UniProt (SwissProt) Secondary ID(s) of Target Chain>
B2R6H4 C9IZA9 C9JAH6 Q6AI62 Q6NVZ0 Q9UHW4

> <UniProt (SwissProt) Alternative ID(s) of Target Chain>


> <UniProt (TrEMBL) Submitted Name of Target Chain>


> <UniProt (TrEMBL) Entry Name of Target Chain>


> <UniProt (TrEMBL) Primary ID of Target Chain>


> <UniProt (TrEMBL) Secondary ID(s) of Target Chain>


> <UniProt (TrEMBL) Alternative ID(s) of Target Chain>


$$$$
 
     RDKit          2D

 57 65  0  0  0  0  0  0  0  0999 V2000
    3.3747    1.0117    0.0000 C   0  0  0  0  0  0  0  0  0  0  0  0
    4.0891    0.5990    0.0000 C   0  0  0  0  0  0  0  0  0  0  0  0
    4.0891   -0.2256    0.0000 C   0  0  0  0  0  0  0  0  0  0  0  0
    4.8037   -0.6381    0.0000 C   0  0  0  0  0  0  0  0  0  0  0  0
    4.9752   -1.4453    0.0000 C   0  0  0  0  0  0  0  0  0  0  0  0
    5.7957   -1.5315    0.0000 N   0  0  0  0  0  0  0  0  0  0  0  0
    6.2082   -2.2458    0.0000 C   0  0  0  0  0  0  0  0  0  0  0  0
    5.7957   -2.9604    0.0000 C   0  0  0  0  0  0  0  0  0  0  0  0
    4.9707   -2.9604    0.0000 O   0  0  0  0  0  0  0  0  0  0  0  0
    6.2082   -3.6750    0.0000 N   0  0  0  0  0  0  0  0  0  0  0  0
    7.0332   -3.6750    0.0000 C   0  0  0  0  0  0  0  0  0  0  0  0
    7.4458   -4.3894    0.0000 O   0  0  0  0  0  0  0  0  0  0  0  0
    7.4458   -2.9604    0.0000 C   0  0  0  0  0  0  0  0  0  0  0  0
    7.0332   -2.2458    0.0000 C   0  0  0  0  0  0  0  0  0  0  0  0
    6.1313   -0.7776    0.0000 C   0  0  0  0  0  0  0  0  0  0  0  0
    6.9383   -0.6062    0.0000 O   0  0  0  0  0  0  0  0  0  0  0  0
    5.5182   -0.2256    0.0000 C   0  0  0  0  0  0  0  0  0  0  0  0
    5.5182    0.5990    0.0000 C   0  0  0  0  0  0  0  0  0  0  0  0
    4.8037    1.0117    0.0000 C   0  0  0  0  0  0  0  0  0  0  0  0
    1.9453    1.0117    0.0000 C   0  0  0  0  0  0  0  0  0  0  0  0
    2.6600    0.5990    0.0000 C   0  0  0  0  0  0  0  0  0  0  0  0
    3.3747    1.8369    0.0000 C   0  0  0  0  0  0  0  0  0  0  0  0
    2.6600    2.2495    0.0000 C   0  0  0  0  0  0  0  0  0  0  0  0
    1.9453    1.8369    0.0000 N   0  0  0  0  0  0  0  0  0  0  0  0
   -2.6375    2.0078    0.0000 O   0  0  0  0  0  0  0  0  0  0  0  0
   -4.7481    3.2979    0.0000 C   0  0  0  0  0  0  0  0  0  0  0  0
   -4.7359    4.1227    0.0000 N   0  0  0  0  0  0  0  0  0  0  0  0
   -5.5167    4.3894    0.0000 N   0  0  0  0  0  0  0  0  0  0  0  0
   -6.8365    3.7416    0.0000 C   0  0  0  0  0  0  0  0  0  0  0  0
   -6.0115    3.7293    0.0000 C   0  0  0  0  0  0  0  0  0  0  0  0
   -5.5367    3.0546    0.0000 N   0  0  0  0  0  0  0  0  0  0  0  0
   -5.8381    2.2867    0.0000 C   0  0  0  0  0  0  0  0  0  0  0  0
   -6.6451    2.1151    0.0000 S   0  0  0  0  0  0  0  0  0  0  0  0
   -7.4458    0.8820    0.0000 C   0  0  0  0  0  0  0  0  0  0  0  0
   -6.7313    1.2946    0.0000 C   0  0  0  0  0  0  0  0  0  0  0  0
   -5.8061    0.1521    0.0000 C   0  0  0  0  0  0  0  0  0  0  0  0
   -5.9774    0.9589    0.0000 C   0  0  0  0  0  0  0  0  0  0  0  0
   -5.4255    1.5720    0.0000 C   0  0  0  0  0  0  0  0  0  0  0  0
   -3.5620    0.4771    0.0000 C   0  0  0  0  0  0  0  0  0  0  0  0
   -3.3190   -0.3109    0.0000 C   0  0  0  0  0  0  0  0  0  0  0  0
   -3.6370   -1.7041    0.0000 Cl  0  0  0  0  0  0  0  0  0  0  0  0
   -3.8802   -0.9158    0.0000 C   0  0  0  0  0  0  0  0  0  0  0  0
   -4.6845   -0.7322    0.0000 C   0  0  0  0  0  0  0  0  0  0  0  0
   -4.9277    0.0561    0.0000 C   0  0  0  0  0  0  0  0  0  0  0  0
   -4.3666    0.6606    0.0000 C   0  0  0  0  0  0  0  0  0  0  0  0
   -4.6097    1.4492    0.0000 C   0  0  0  0  0  0  0  0  0  0  0  0
   -4.0050    2.0102    0.0000 N   0  0  0  0  0  0  0  0  0  0  0  0
   -4.0666    2.8330    0.0000 C   0  0  0  0  0  0  0  0  0  0  0  0
   -3.3521    3.2455    0.0000 C   0  0  0  0  0  0  0  0  0  0  0  0
   -2.6375    2.8330    0.0000 C   0  0  0  0  0  0  0  0  0  0  0  0
   -1.9230    3.2455    0.0000 N   0  0  0  0  0  0  0  0  0  0  0  0
   -1.2087    2.8330    0.0000 C   0  0  0  0  0  0  0  0  0  0  0  0
   -0.4941    3.2455    0.0000 C   0  0  0  0  0  0  0  0  0  0  0  0
    0.4337    2.0360    0.0000 C   0  0  0  0  0  0  0  0  0  0  0  0
    0.2202    2.8330    0.0000 N   0  0  0  0  0  0  0  0  0  0  0  0
    1.0170    3.0465    0.0000 C   0  0  0  0  0  0  0  0  0  0  0  0
    1.2306    2.2495    0.0000 C   0  0  0  0  0  0  0  0  0  0  0  0
  1  2  1  0
  2  3  1  0
  3  4  2  0
  4  5  1  0
  6  5  1  0
  6  7  1  0
  7  8  1  0
  8  9  2  0
  8 10  1  0
 10 11  1  0
 11 12  2  0
 11 13  1  0
 13 14  1  0
 14  7  1  0
 15  6  1  0
 15 16  2  0
 17 15  1  0
  4 17  1  0
 17 18  2  0
 18 19  1  0
 19  2  2  0
 20 21  1  0
 21  1  1  0
  1 22  1  0
 22 23  1  0
 23 24  1  0
 24 20  1  0
 26 27  2  0
 28 27  1  0
 30 29  1  0
 30 28  2  0
 31 30  1  0
 26 31  1  0
 31 32  1  0
 32 33  1  0
 35 34  1  0
 35 33  1  0
 37 36  1  0
 37 35  2  0
 38 37  1  0
 38 32  2  0
 40 39  1  0
 42 41  1  0
 42 40  2  0
 43 42  1  0
 44 43  2  0
 45 44  1  0
 39 45  2  0
 46 45  1  0
 46 38  1  0
 47 46  2  0
 48 47  1  0
 26 48  1  0
 48 49  1  6
 50 49  1  0
 50 25  2  0
 50 51  1  0
 51 52  1  0
 52 53  1  0
 55 54  1  0
 55 53  1  0
 55 56  1  0
 57 56  1  0
 54 57  1  0
 57 24  1  0
M  END
> <From>
www.bindingDB.org

> <BindingDB Reactant_set_id>
51570532

> <Ligand InChI>
InChI=1S/C42H46ClN9O4S/c1-23-24(2)57-42-37(23)38(27-4-7-30(43)8-5-27)45-33(39-48-47-25(3)52(39)42)19-36(54)44-14-17-49-21-31(22-49)50-15-12-26(13-16-50)28-6-9-32-29(18-28)20-51(41(32)56)34-10-11-35(53)46-40(34)55/h4-9,18,26,31,33-34H,10-17,19-22H2,1-3H3,(H,44,54)(H,46,53,55)/t33-,34?/m0/s1

> <Ligand InChI Key>
LHUVKOFLIPGEIS-CDRRMRQFSA-N

> <BindingDB MonomerID>
50631636

> <BindingDB Ligand Name>
CHEMBL5421315

> <Target Name>
Protein cereblon

> <Target Source Organism According to Curator or DataSource>
Homo sapiens

> <Ki (nM)>


> <IC50 (nM)>
 169

> <Kd (nM)>


> <EC50 (nM)>


> <kon (M-1-s-1)>


> <koff (s-1)>


> <pH>


> <Temp C>


> <Curation/DataSource>
ChEMBL

> <Article DOI>
10.1021/acs.jmedchem.3c01613

> <BindingDB Entry DOI>
10.7270/Q2T1583Z

> <PMID>
38096359

> <PubChem AID>


> <Patent Number>


> <Authors>
Arndt, CM; Bitai, J; Brunner, J; Opatz, T; Martinelli, P; Gollner, A; Sokol, KR; Krumb, M

> <Date of publication>
12/28/2023

> <Date in BindingDB>
12/21/2024

> <Institution>
Boehringer Ingelheim Rcv

> <Link to Ligand in BindingDB>
http://www.bindingdb.org/bind/chemsearch/marvin/MolStructure.jsp?monomerid=50631636

> <Link to Ligand-Target Pair in BindingDB>
http://www.bindingdb.org/jsp/dbsearch/PrimarySearch_ki.jsp?energyterm=kJ/mole&tag=pol&polymerid=50007050&target=Protein+cereblon&column=ki&startPg=0&Increment=50&submit=Search

> <Link to Ligand-Target Pair in BindingDB>
http://www.bindingdb.org/jsp/dbsearch/PrimarySearch_ki.jsp?energyterm=kJ/mole&tag=r21&monomerid=50631636&enzyme=Protein+cereblon&column=ki&startPg=0&Increment=50&submit=Search

> <Ligand HET ID in PDB>


> <PDB ID(s) for Ligand-Target Complex>


> <PubChem CID of Ligand>
172457373

> <PubChem SID of Ligand>
505035970

> <ChEBI ID of Ligand>


> <ChEMBL ID of Ligand>


> <DrugBank ID of Ligand>


> <IUPHAR_GRAC ID of Ligand>


> <KEGG ID of Ligand>


> <ZINC ID of Ligand>


> <Number of Protein Chains in Target (bigger than 1 implies a multichain complex)>
1

> <BindingDB Target Chain Sequence>
MAGEGDQQDAAHNMGNHLPLLPAESEEEDEMEVEDQDSKEAKKPNIINFDTSLPTSHTYLGADMEEFHGRTLHDDDSCQVIPVLPQVMMILIPGQTLPLQLFHPQEVSMVRNLIQKDRTFAVLAYSNVQEREAQFGTTAEIYAYREEQDFGIEIVKVKAIGRQRFKVLELRTQSDGIQQAKVQILPECVLPSTMSAVQLESLNKCQIFPSKPVSREDQCSYKWWQKYQKRKFHCANLTSWPRWLYSLYDAETLMDRIKKQLREWDENLKDDSLPSNPIDFSYRVAACLPIDDVLRIQLLKIGSAIQRLRCELDIMNKCTSLCCKQCQETEITTKNEIFSLSLCGPMAAYVNPHGYVHETLTVYKACNLNLIGRPSTEHSWFPGYAWTVAQCKICASHIGWKFTATKKDMSPQKFWGLTRSALLPTIPDTEDEISPDKVILCL

> <PDB ID(s) of Target Chain>
8TNR,8TNQ,8TNP,8D81,8D80,8D7Z,8D7Y,8D7X,8D7W,8D7V,8D7U,8CVP,9DQD,8UH6,6BOY,6BNB,6BN9,6BN8,6BN7,6XK9,6UML,5V3O,5HXB,7U8F,8OJH,8OIZ,7LPS,4TZ4,9DJX,9DJT,8U17,8U16,8U15,8TZX,8DEY,9CUO,4M91

> <UniProt (SwissProt) Recommended Name of Target Chain>
Protein cereblon

> <UniProt (SwissProt) Entry Name of Target Chain>
CRBN_HUMAN

> <UniProt (SwissProt) Primary ID of Target Chain>
Q96SW2

> <UniProt (SwissProt) Secondary ID(s) of Target Chain>
B2R6H4 C9IZA9 C9JAH6 Q6AI62 Q6NVZ0 Q9UHW4

> <UniProt (SwissProt) Alternative ID(s) of Target Chain>


> <UniProt (TrEMBL) Submitted Name of Target Chain>


> <UniProt (TrEMBL) Entry Name of Target Chain>


> <UniProt (TrEMBL) Primary ID of Target Chain>


> <UniProt (TrEMBL) Secondary ID(s) of Target Chain>


> <UniProt (TrEMBL) Alternative ID(s) of Target Chain>


$$$$

     RDKit          2D

 59 65  0  0  0  0  0  0  0  0999 V2000
   -2.9520   -4.6564    0.0000 C   0  0  0  0  0  0  0  0  0  0  0  0
   -2.6401   -3.1891    0.0000 C   0  0  0  0  0  0  0  0  0  0  0  0
   -3.7548   -2.1855    0.0000 O   0  0  0  0  0  0  0  0  0  0  0  0
   -1.2135   -2.7256    0.0000 C   0  0  0  0  0  0  0  0  0  0  0  0
   -0.0000   -3.6073    0.0000 C   0  0  0  0  0  0  0  0  0  0  0  0
    1.2135   -2.7256    0.0000 C   0  0  0  0  0  0  0  0  0  0  0  0
    2.6401   -3.1891    0.0000 C   0  0  0  0  0  0  0  0  0  0  0  0
    3.7548   -2.1855    0.0000 O   0  0  0  0  0  0  0  0  0  0  0  0
    2.9520   -4.6564    0.0000 N   0  0  0  0  0  0  0  0  0  0  0  0
    4.3786   -5.1199    0.0000 C   0  0  0  0  0  0  0  0  0  0  0  0
    4.6904   -6.5871    0.0000 C   0  0  0  0  0  0  0  0  0  0  0  0
    6.1170   -7.0506    0.0000 C   0  0  0  0  0  0  0  0  0  0  0  0
    6.4289   -8.5179    0.0000 C   0  0  0  0  0  0  0  0  0  0  0  0
    5.3142   -9.5216    0.0000 O   0  0  0  0  0  0  0  0  0  0  0  0
    7.2317   -6.0469    0.0000 C   0  0  0  0  0  0  0  0  0  0  0  0
    6.9199   -4.5797    0.0000 C   0  0  0  0  0  0  0  0  0  0  0  0
    8.0346   -3.5760    0.0000 C   0  0  0  0  0  0  0  0  0  0  0  0
    7.8778   -2.0842    0.0000 C   0  0  0  0  0  0  0  0  0  0  0  0
    9.2481   -1.4741    0.0000 N   0  0  0  0  0  0  0  0  0  0  0  0
   10.2518   -2.5889    0.0000 N   0  0  0  0  0  0  0  0  0  0  0  0
   11.7436   -2.4321    0.0000 C   0  0  0  0  0  0  0  0  0  0  0  0
    9.5018   -3.8879    0.0000 C   0  0  0  0  0  0  0  0  0  0  0  0
    5.4933   -4.1162    0.0000 C   0  0  0  0  0  0  0  0  0  0  0  0
    5.1814   -2.6490    0.0000 F   0  0  0  0  0  0  0  0  0  0  0  0
    0.7500   -1.2990    0.0000 C   0  0  0  0  0  0  0  0  0  0  0  0
    1.5000    0.0000    0.0000 C   0  0  0  0  0  0  0  0  0  0  0  0
    0.7500    1.2990    0.0000 C   0  0  0  0  0  0  0  0  0  0  0  0
    1.5000    2.5981    0.0000 O   0  0  0  0  0  0  0  0  0  0  0  0
    3.0000    2.5981    0.0000 C   0  0  0  0  0  0  0  0  0  0  0  0
    3.7500    3.8971    0.0000 C   0  0  0  0  0  0  0  0  0  0  0  0
    3.0000    5.1962    0.0000 O   0  0  0  0  0  0  0  0  0  0  0  0
    5.2500    3.8971    0.0000 N   0  0  0  0  0  0  0  0  0  0  0  0
    6.0000    5.1962    0.0000 C   0  0  0  0  0  0  0  0  0  0  0  0
    7.5000    5.1962    0.0000 C   0  0  0  0  0  0  0  0  0  0  0  0
    8.2500    6.4952    0.0000 C   0  0  0  0  0  0  0  0  0  0  0  0
    9.7500    6.4952    0.0000 C   0  0  0  0  0  0  0  0  0  0  0  0
   10.5000    7.7942    0.0000 N   0  0  0  0  0  0  0  0  0  0  0  0
   12.0000    7.7942    0.0000 C   0  0  0  0  0  0  0  0  0  0  0  0
   12.7500    6.4952    0.0000 C   0  0  0  0  0  0  0  0  0  0  0  0
   14.2500    6.4952    0.0000 C   0  0  0  0  0  0  0  0  0  0  0  0
   15.0000    7.7942    0.0000 C   0  0  0  0  0  0  0  0  0  0  0  0
   14.2500    9.0933    0.0000 C   0  0  0  0  0  0  0  0  0  0  0  0
   12.7500    9.0933    0.0000 C   0  0  0  0  0  0  0  0  0  0  0  0
   12.2865   10.5199    0.0000 C   0  0  0  0  0  0  0  0  0  0  0  0
   10.8599   10.9834    0.0000 O   0  0  0  0  0  0  0  0  0  0  0  0
   13.5000   11.4015    0.0000 N   0  0  0  0  0  0  0  0  0  0  0  0
   13.5000   12.9015    0.0000 C   0  0  0  0  0  0  0  0  0  0  0  0
   14.7990   13.6515    0.0000 C   0  0  0  0  0  0  0  0  0  0  0  0
   14.7990   15.1515    0.0000 C   0  0  0  0  0  0  0  0  0  0  0  0
   13.5000   15.9015    0.0000 C   0  0  0  0  0  0  0  0  0  0  0  0
   13.5000   17.4015    0.0000 O   0  0  0  0  0  0  0  0  0  0  0  0
   12.2010   15.1515    0.0000 N   0  0  0  0  0  0  0  0  0  0  0  0
   12.2010   13.6515    0.0000 C   0  0  0  0  0  0  0  0  0  0  0  0
   10.9019   12.9015    0.0000 O   0  0  0  0  0  0  0  0  0  0  0  0
   14.7135   10.5199    0.0000 C   0  0  0  0  0  0  0  0  0  0  0  0
   16.1401   10.9834    0.0000 O   0  0  0  0  0  0  0  0  0  0  0  0
   -0.7500    1.2990    0.0000 C   0  0  0  0  0  0  0  0  0  0  0  0
   -1.5000    0.0000    0.0000 C   0  0  0  0  0  0  0  0  0  0  0  0
   -0.7500   -1.2990    0.0000 N   0  0  0  0  0  0  0  0  0  0  0  0
  1  2  1  0
  2  3  2  0
  2  4  1  0
  4  5  2  0
  5  6  1  0
  6  7  1  0
  7  8  2  0
  7  9  1  0
  9 10  1  0
 10 11  2  0
 11 12  1  0
 12 13  1  0
 13 14  1  0
 12 15  2  0
 15 16  1  0
 16 17  1  0
 17 18  1  0
 18 19  2  0
 19 20  1  0
 20 21  1  0
 20 22  1  0
 16 23  2  0
 23 24  1  0
  6 25  2  0
 25 26  1  0
 26 27  2  0
 27 28  1  0
 28 29  1  0
 29 30  1  0
 30 31  2  0
 30 32  1  0
 32 33  1  0
 33 34  1  0
 34 35  1  0
 35 36  1  0
 36 37  1  0
 37 38  1  0
 38 39  2  0
 39 40  1  0
 40 41  2  0
 41 42  1  0
 42 43  2  0
 43 44  1  0
 44 45  2  0
 44 46  1  0
 46 47  1  0
 47 48  1  0
 48 49  1  0
 49 50  1  0
 50 51  2  0
 50 52  1  0
 52 53  1  0
 53 54  2  0
 46 55  1  0
 55 56  2  0
 27 57  1  0
 57 58  2  0
 58 59  1  0
 59  4  1  0
 23 10  1  0
 59 25  1  0
 22 17  2  0
 43 38  1  0
 53 47  1  0
 55 42  1  0
M  END
> <From>
www.bindingDB.org

> <BindingDB Reactant_set_id>
51586041

> <Ligand InChI>
InChI=1S/C41H39FN8O9/c1-22(52)32-17-28(38(55)46-30-15-23(20-51)14-27(37(30)42)24-18-45-48(2)19-24)33-16-25(10-13-49(32)33)59-21-35(54)44-12-4-3-11-43-29-7-5-6-26-36(29)41(58)50(40(26)57)31-8-9-34(53)47-39(31)56/h5-7,10,13-19,31,43,51H,3-4,8-9,11-12,20-21H2,1-2H3,(H,44,54)(H,46,55)(H,47,53,56)

> <Ligand InChI Key>
IQZLAXNGIATBBF-UHFFFAOYSA-N

> <BindingDB MonomerID>
50638390

> <BindingDB Ligand Name>
CHEMBL5558461

> <Target Name>
Protein cereblon

> <Target Source Organism According to Curator or DataSource>
Human

> <Ki (nM)>


> <IC50 (nM)>
 180

> <Kd (nM)>


> <EC50 (nM)>


> <kon (M-1-s-1)>


> <koff (s-1)>


> <pH>


> <Temp C>


> <Curation/DataSource>
ChEMBL

> <Article DOI>


> <BindingDB Entry DOI>
10.7270/Q2NV9PV1

> <PMID>
38829718

> <PubChem AID>


> <Patent Number>


> <Authors>
Wu, T; Hu, J; Zhao, X; Zhang, C; Dong, R; Hu, Q; Xu, H; Shen, H; Zhang, X; Zhang, Y; Lin, B; Wu, X; Xiang, Q; Xu, Y

> <Date of publication>
//0

> <Date in BindingDB>
10/11/2025

> <Institution>
Shenyang Pharmaceutical University

> <Link to Ligand in BindingDB>
http://www.bindingdb.org/bind/chemsearch/marvin/MolStructure.jsp?monomerid=50638390

> <Link to Ligand-Target Pair in BindingDB>
http://www.bindingdb.org/rwd/jsp/dbsearch/PrimarySearch_ki.jsp?energyterm=kJ/mole&tag=pol&polymerid=50007050&target=Protein+cereblon&column=ki&startPg=0&Increment=50&submit=Search

> <Link to Ligand-Target Pair in BindingDB>
http://www.bindingdb.org/rwd/jsp/dbsearch/PrimarySearch_ki.jsp?energyterm=kJ/mole&tag=r21&monomerid=50638390&enzyme=Protein+cereblon&column=ki&startPg=0&Increment=50&submit=Search

> <Ligand HET ID in PDB>


> <PDB ID(s) for Ligand-Target Complex>


> <PubChem CID of Ligand>
171934798

> <PubChem SID of Ligand>
519658793

> <ChEBI ID of Ligand>


> <ChEMBL ID of Ligand>


> <DrugBank ID of Ligand>


> <IUPHAR_GRAC ID of Ligand>


> <KEGG ID of Ligand>


> <ZINC ID of Ligand>


> <Number of Protein Chains in Target (bigger than 1 implies a multichain complex)>
1

> <BindingDB Target Chain Sequence>
MAGEGDQQDAAHNMGNHLPLLPAESEEEDEMEVEDQDSKEAKKPNIINFDTSLPTSHTYLGADMEEFHGRTLHDDDSCQVIPVLPQVMMILIPGQTLPLQLFHPQEVSMVRNLIQKDRTFAVLAYSNVQEREAQFGTTAEIYAYREEQDFGIEIVKVKAIGRQRFKVLELRTQSDGIQQAKVQILPECVLPSTMSAVQLESLNKCQIFPSKPVSREDQCSYKWWQKYQKRKFHCANLTSWPRWLYSLYDAETLMDRIKKQLREWDENLKDDSLPSNPIDFSYRVAACLPIDDVLRIQLLKIGSAIQRLRCELDIMNKCTSLCCKQCQETEITTKNEIFSLSLCGPMAAYVNPHGYVHETLTVYKACNLNLIGRPSTEHSWFPGYAWTVAQCKICASHIGWKFTATKKDMSPQKFWGLTRSALLPTIPDTEDEISPDKVILCL

> <PDB ID(s) of Target Chain>
9DUR,8TNR,8TNQ,8TNP,9DWW,9DWV,9NGT,9NFR,9NFQ,8D81,8D80,8D7Z,8D7Y,8D7X,8D7W,8D7V,8D7U,8CVP,9Q2D,9Q03,9DQD,8UH6,9SAI,9SAF,9H59,9E2U,6BOY,6BNB,6BN9,6BN8,6BN7,9OUL,9Y7D,6XK9,6UML,5V3O,5HXB,9HNE,9D0X,9D0W,7U8F,9FJX,8OJH,8OIZ,7LPS,9SFM,9OTY,4TZ4,9DJX,9DJT,8U17,8U16,8U15,8TZX,8DEY,9CUO,4M91

> <UniProt (SwissProt) Recommended Name of Target Chain>
Protein cereblon

> <UniProt (SwissProt) Entry Name of Target Chain>
CRBN_HUMAN

> <UniProt (SwissProt) Primary ID of Target Chain>
Q96SW2

> <UniProt (SwissProt) Secondary ID(s) of Target Chain>
B2R6H4 C9IZA9 C9JAH6 Q6AI62 Q6NVZ0 Q9UHW4

> <UniProt (SwissProt) Alternative ID(s) of Target Chain>


> <UniProt (TrEMBL) Submitted Name of Target Chain>


> <UniProt (TrEMBL) Entry Name of Target Chain>


> <UniProt (TrEMBL) Primary ID of Target Chain>


> <UniProt (TrEMBL) Secondary ID(s) of Target Chain>


> <UniProt (TrEMBL) Alternative ID(s) of Target Chain>


$$$$

     RDKit          2D

 59 65  0  0  0  0  0  0  0  0999 V2000
    0.7500   -9.0933    0.0000 C   0  0  0  0  0  0  0  0  0  0  0  0
    1.5000   -7.7942    0.0000 N   0  0  0  0  0  0  0  0  0  0  0  0
    0.7500   -6.4952    0.0000 C   0  0  0  0  0  0  0  0  0  0  0  0
    1.5000   -5.1962    0.0000 C   0  0  0  0  0  0  0  0  0  0  0  0
    0.7500   -3.8971    0.0000 C   0  0  0  0  0  0  0  0  0  0  0  0
    1.5000   -2.5981    0.0000 N   0  0  0  0  0  0  0  0  0  0  0  0
    3.0000   -2.5981    0.0000 C   0  0  0  0  0  0  0  0  0  0  0  0
    0.7500   -1.2990    0.0000 C   0  0  0  0  0  0  0  0  0  0  0  0
    1.5000    0.0000    0.0000 C   0  0  0  0  0  0  0  0  0  0  0  0
    0.7500    1.2990    0.0000 C   0  0  0  0  0  0  0  0  0  0  0  0
   -0.7500    1.2990    0.0000 C   0  0  0  0  0  0  0  0  0  0  0  0
   -1.5000    0.0000    0.0000 C   0  0  0  0  0  0  0  0  0  0  0  0
   -0.7500   -1.2990    0.0000 C   0  0  0  0  0  0  0  0  0  0  0  0
   -1.7537   -2.4138    0.0000 C   0  0  0  0  0  0  0  0  0  0  0  0
   -1.4418   -3.8810    0.0000 O   0  0  0  0  0  0  0  0  0  0  0  0
   -3.1240   -1.8037    0.0000 N   0  0  0  0  0  0  0  0  0  0  0  0
   -4.4231   -2.5537    0.0000 C   0  0  0  0  0  0  0  0  0  0  0  0
   -5.7221   -1.8037    0.0000 C   0  0  0  0  0  0  0  0  0  0  0  0
   -7.0211   -2.5537    0.0000 C   0  0  0  0  0  0  0  0  0  0  0  0
   -7.0211   -4.0537    0.0000 C   0  0  0  0  0  0  0  0  0  0  0  0
   -8.3202   -4.8037    0.0000 O   0  0  0  0  0  0  0  0  0  0  0  0
   -5.7221   -4.8037    0.0000 N   0  0  0  0  0  0  0  0  0  0  0  0
   -4.4231   -4.0537    0.0000 C   0  0  0  0  0  0  0  0  0  0  0  0
   -3.1240   -4.8037    0.0000 O   0  0  0  0  0  0  0  0  0  0  0  0
   -2.9672   -0.3119    0.0000 C   0  0  0  0  0  0  0  0  0  0  0  0
   -4.0819    0.6918    0.0000 O   0  0  0  0  0  0  0  0  0  0  0  0
    3.0000   -7.7942    0.0000 C   0  0  0  0  0  0  0  0  0  0  0  0
    3.7500   -9.0933    0.0000 C   0  0  0  0  0  0  0  0  0  0  0  0
    3.0000  -10.3923    0.0000 C   0  0  0  0  0  0  0  0  0  0  0  0
    3.7500  -11.6913    0.0000 C   0  0  0  0  0  0  0  0  0  0  0  0
    5.2500  -11.6913    0.0000 C   0  0  0  0  0  0  0  0  0  0  0  0
    6.0000  -12.9904    0.0000 N   0  0  0  0  0  0  0  0  0  0  0  0
    7.4918  -13.1472    0.0000 C   0  0  0  0  0  0  0  0  0  0  0  0
    7.8037  -14.6144    0.0000 C   0  0  0  0  0  0  0  0  0  0  0  0
    9.1027  -15.3644    0.0000 C   0  0  0  0  0  0  0  0  0  0  0  0
    9.1027  -16.8644    0.0000 C   0  0  0  0  0  0  0  0  0  0  0  0
   10.4017  -17.6144    0.0000 N   0  0  0  0  0  0  0  0  0  0  0  0
   11.7008  -16.8644    0.0000 C   0  0  0  0  0  0  0  0  0  0  0  0
   11.7008  -15.3644    0.0000 O   0  0  0  0  0  0  0  0  0  0  0  0
   12.9998  -17.6144    0.0000 C   0  0  0  0  0  0  0  0  0  0  0  0
   14.2988  -16.8644    0.0000 C   0  0  0  0  0  0  0  0  0  0  0  0
   15.5979  -17.6144    0.0000 C   0  0  0  0  0  0  0  0  0  0  0  0
   15.5979  -19.1144    0.0000 C   0  0  0  0  0  0  0  0  0  0  0  0
   14.2988  -19.8644    0.0000 C   0  0  0  0  0  0  0  0  0  0  0  0
   14.2988  -21.3644    0.0000 C   0  0  0  0  0  0  0  0  0  0  0  0
   14.2988  -22.8644    0.0000 F   0  0  0  0  0  0  0  0  0  0  0  0
   15.7988  -21.3644    0.0000 F   0  0  0  0  0  0  0  0  0  0  0  0
   12.7988  -21.3644    0.0000 F   0  0  0  0  0  0  0  0  0  0  0  0
   12.9998  -19.1144    0.0000 N   0  0  0  0  0  0  0  0  0  0  0  0
    7.8037  -17.6144    0.0000 C   0  0  0  0  0  0  0  0  0  0  0  0
    7.8037  -19.1144    0.0000 C   0  0  0  0  0  0  0  0  0  0  0  0
    9.3037  -19.1144    0.0000 C   0  0  0  0  0  0  0  0  0  0  0  0
    6.3037  -19.1144    0.0000 C   0  0  0  0  0  0  0  0  0  0  0  0
    7.8037  -20.6144    0.0000 O   0  0  0  0  0  0  0  0  0  0  0  0
    6.5046  -16.8644    0.0000 C   0  0  0  0  0  0  0  0  0  0  0  0
    6.5046  -15.3644    0.0000 C   0  0  0  0  0  0  0  0  0  0  0  0
    5.3899  -14.3607    0.0000 N   0  0  0  0  0  0  0  0  0  0  0  0
    6.0000  -10.3923    0.0000 C   0  0  0  0  0  0  0  0  0  0  0  0
    5.2500   -9.0933    0.0000 C   0  0  0  0  0  0  0  0  0  0  0  0
  1  2  1  0
  2  3  1  0
  3  4  1  0
  4  5  1  0
  5  6  1  0
  6  7  1  0
  6  8  1  0
  8  9  2  0
  9 10  1  0
 10 11  2  0
 11 12  1  0
 12 13  2  0
 13 14  1  0
 14 15  2  0
 14 16  1  0
 16 17  1  0
 17 18  1  0
 18 19  1  0
 19 20  1  0
 20 21  2  0
 20 22  1  0
 22 23  1  0
 23 24  2  0
 16 25  1  0
 25 26  2  0
  2 27  1  0
 28 27  1  6
 28 29  1  0
 29 30  1  0
 30 31  1  0
 31 32  1  1
 32 33  1  0
 33 34  2  0
 34 35  1  0
 35 36  2  0
 36 37  1  0
 37 38  1  0
 38 39  2  0
 38 40  1  0
 40 41  2  0
 41 42  1  0
 42 43  2  0
 43 44  1  0
 44 45  1  0
 45 46  1  0
 45 47  1  0
 45 48  1  0
 44 49  2  0
 36 50  1  0
 50 51  1  0
 51 52  1  0
 51 53  1  0
 51 54  1  0
 50 55  2  0
 55 56  1  0
 56 57  2  0
 31 58  1  0
 58 59  1  0
 13  8  1  0
 23 17  1  0
 59 28  1  0
 25 12  1  0
 57 32  1  0
 56 34  1  0
 49 40  1  0
M  END
> <From>
www.bindingDB.org

> <BindingDB Reactant_set_id>
51589153

> <Ligand InChI>
InChI=1S/C42H47F3N8O6/c1-41(2,59)28-21-30-25(20-31(28)47-37(55)29-9-6-11-34(46-29)42(43,44)45)23-52(49-30)26-14-12-24(13-15-26)22-50(3)18-7-19-51(4)32-10-5-8-27-36(32)40(58)53(39(27)57)33-16-17-35(54)48-38(33)56/h5-6,8-11,20-21,23-24,26,33,59H,7,12-19,22H2,1-4H3,(H,47,55)(H,48,54,56)

> <Ligand InChI Key>
SIVKMVMSQFNJAG-UHFFFAOYSA-N

> <BindingDB MonomerID>
50639837

> <BindingDB Ligand Name>
CHEMBL5567792

> <Target Name>
Protein cereblon

> <Target Source Organism According to Curator or DataSource>
Human

> <Ki (nM)>


> <IC50 (nM)>
 200

> <Kd (nM)>


> <EC50 (nM)>


> <kon (M-1-s-1)>


> <koff (s-1)>


> <pH>


> <Temp C>


> <Curation/DataSource>
ChEMBL

> <Article DOI>


> <BindingDB Entry DOI>
10.7270/Q23F4V8G

> <PMID>
38920289

> <PubChem AID>


> <Patent Number>


> <Authors>
Weiss, MM; Zheng, X; Ji, N; Browne, CM; Campbell, V; Chen, D; Enerson, B; Fei, X; Huang, X; Klaus, CR; Li, H; Mayo, M; McDonald, AA; Paul, A; Rong, H; Sharma, K; Shi, Y; Slavin, A; Walther, DM; Yuan, K; Zhang, Y; Zhu, X; Kelleher, J; Walker, D; Mainolfi, N

> <Date of publication>
//0

> <Date in BindingDB>
10/11/2025

> <Institution>
Kymera Therapeutics

> <Link to Ligand in BindingDB>
http://www.bindingdb.org/bind/chemsearch/marvin/MolStructure.jsp?monomerid=50639837

> <Link to Ligand-Target Pair in BindingDB>
http://www.bindingdb.org/rwd/jsp/dbsearch/PrimarySearch_ki.jsp?energyterm=kJ/mole&tag=pol&polymerid=50007050&target=Protein+cereblon&column=ki&startPg=0&Increment=50&submit=Search

> <Link to Ligand-Target Pair in BindingDB>
http://www.bindingdb.org/rwd/jsp/dbsearch/PrimarySearch_ki.jsp?energyterm=kJ/mole&tag=r21&monomerid=50639837&enzyme=Protein+cereblon&column=ki&startPg=0&Increment=50&submit=Search

> <Ligand HET ID in PDB>


> <PDB ID(s) for Ligand-Target Complex>


> <PubChem CID of Ligand>
177376822

> <PubChem SID of Ligand>
519660240

> <ChEBI ID of Ligand>


> <ChEMBL ID of Ligand>


> <DrugBank ID of Ligand>


> <IUPHAR_GRAC ID of Ligand>


> <KEGG ID of Ligand>


> <ZINC ID of Ligand>


> <Number of Protein Chains in Target (bigger than 1 implies a multichain complex)>
1

> <BindingDB Target Chain Sequence>
MAGEGDQQDAAHNMGNHLPLLPAESEEEDEMEVEDQDSKEAKKPNIINFDTSLPTSHTYLGADMEEFHGRTLHDDDSCQVIPVLPQVMMILIPGQTLPLQLFHPQEVSMVRNLIQKDRTFAVLAYSNVQEREAQFGTTAEIYAYREEQDFGIEIVKVKAIGRQRFKVLELRTQSDGIQQAKVQILPECVLPSTMSAVQLESLNKCQIFPSKPVSREDQCSYKWWQKYQKRKFHCANLTSWPRWLYSLYDAETLMDRIKKQLREWDENLKDDSLPSNPIDFSYRVAACLPIDDVLRIQLLKIGSAIQRLRCELDIMNKCTSLCCKQCQETEITTKNEIFSLSLCGPMAAYVNPHGYVHETLTVYKACNLNLIGRPSTEHSWFPGYAWTVAQCKICASHIGWKFTATKKDMSPQKFWGLTRSALLPTIPDTEDEISPDKVILCL

> <PDB ID(s) of Target Chain>
9DUR,8TNR,8TNQ,8TNP,9DWW,9DWV,9NGT,9NFR,9NFQ,8D81,8D80,8D7Z,8D7Y,8D7X,8D7W,8D7V,8D7U,8CVP,9Q2D,9Q03,9DQD,8UH6,9SAI,9SAF,9H59,9E2U,6BOY,6BNB,6BN9,6BN8,6BN7,9OUL,9Y7D,6XK9,6UML,5V3O,5HXB,9HNE,9D0X,9D0W,7U8F,9FJX,8OJH,8OIZ,7LPS,9SFM,9OTY,4TZ4,9DJX,9DJT,8U17,8U16,8U15,8TZX,8DEY,9CUO,4M91

> <UniProt (SwissProt) Recommended Name of Target Chain>
Protein cereblon

> <UniProt (SwissProt) Entry Name of Target Chain>
CRBN_HUMAN

> <UniProt (SwissProt) Primary ID of Target Chain>
Q96SW2

> <UniProt (SwissProt) Secondary ID(s) of Target Chain>
B2R6H4 C9IZA9 C9JAH6 Q6AI62 Q6NVZ0 Q9UHW4

> <UniProt (SwissProt) Alternative ID(s) of Target Chain>


> <UniProt (TrEMBL) Submitted Name of Target Chain>


> <UniProt (TrEMBL) Entry Name of Target Chain>


> <UniProt (TrEMBL) Primary ID of Target Chain>


> <UniProt (TrEMBL) Secondary ID(s) of Target Chain>


> <UniProt (TrEMBL) Alternative ID(s) of Target Chain>


$$$$
 
     RDKit          2D

 54 61  0  0  0  0  0  0  0  0999 V2000
   10.7339  -16.2570    0.0000 C   0  0  0  0  0  0  0  0  0  0  0  0
   11.8815  -15.0974    0.0000 C   0  0  0  0  0  0  0  0  0  0  0  0
   11.0866  -14.8905    0.0000 C   0  0  0  0  0  0  0  0  0  0  0  0
   10.5148  -15.4714    0.0000 C   0  0  0  0  0  0  0  0  0  0  0  0
   12.0960  -15.8868    0.0000 C   0  0  0  0  0  0  0  0  0  0  0  0
   11.5211  -16.4637    0.0000 C   0  0  0  0  0  0  0  0  0  0  0  0
   11.8920  -17.1889    0.0000 C   0  0  0  0  0  0  0  0  0  0  0  0
   12.6964  -17.0601    0.0000 N   0  0  0  0  0  0  0  0  0  0  0  0
   12.8223  -16.2554    0.0000 C   0  0  0  0  0  0  0  0  0  0  0  0
   13.5498  -15.8832    0.0000 O   0  0  0  0  0  0  0  0  0  0  0  0
   13.2734  -17.6350    0.0000 C   0  0  0  0  0  0  0  0  0  0  0  0
   13.0611  -18.4251    0.0000 C   0  0  0  0  0  0  0  0  0  0  0  0
   13.6361  -19.0008    0.0000 C   0  0  0  0  0  0  0  0  0  0  0  0
   14.4265  -18.7920    0.0000 C   0  0  0  0  0  0  0  0  0  0  0  0
   14.6388  -18.0018    0.0000 N   0  0  0  0  0  0  0  0  0  0  0  0
   14.0606  -17.4206    0.0000 C   0  0  0  0  0  0  0  0  0  0  0  0
   14.2716  -16.6311    0.0000 O   0  0  0  0  0  0  0  0  0  0  0  0
   15.0031  -19.3710    0.0000 O   0  0  0  0  0  0  0  0  0  0  0  0
    7.0039  -19.8437    0.0000 C   0  0  0  0  0  0  0  0  0  0  0  0
    7.2144  -20.6320    0.0000 C   0  0  0  0  0  0  0  0  0  0  0  0
    7.9980  -20.8427    0.0000 C   0  0  0  0  0  0  0  0  0  0  0  0
    8.5766  -20.2683    0.0000 C   0  0  0  0  0  0  0  0  0  0  0  0
    8.3661  -19.4800    0.0000 C   0  0  0  0  0  0  0  0  0  0  0  0
    7.5770  -19.2661    0.0000 C   0  0  0  0  0  0  0  0  0  0  0  0
    6.2158  -20.0613    0.0000 C   0  0  0  0  0  0  0  0  0  0  0  0
    7.0437  -19.0306    0.0000 N   0  0  0  0  0  0  0  0  0  0  0  0
    6.2797  -18.7409    0.0000 C   0  0  0  0  0  0  0  0  0  0  0  0
    5.7682  -19.3779    0.0000 C   0  0  0  0  0  0  0  0  0  0  0  0
    4.0226  -20.3224    0.0000 C   0  0  0  0  0  0  0  0  0  0  0  0
    4.0215  -21.1420    0.0000 C   0  0  0  0  0  0  0  0  0  0  0  0
    4.7295  -21.5509    0.0000 C   0  0  0  0  0  0  0  0  0  0  0  0
    4.7277  -19.9136    0.0000 C   0  0  0  0  0  0  0  0  0  0  0  0
    5.4364  -20.3188    0.0000 C   0  0  0  0  0  0  0  0  0  0  0  0
    5.4412  -21.1374    0.0000 C   0  0  0  0  0  0  0  0  0  0  0  0
    6.2212  -21.3859    0.0000 N   0  0  0  0  0  0  0  0  0  0  0  0
    6.6985  -20.7208    0.0000 C   0  0  0  0  0  0  0  0  0  0  0  0
    3.3135  -21.5500    0.0000 Cl  0  0  0  0  0  0  0  0  0  0  0  0
    7.4042  -21.1273    0.0000 O   0  0  0  0  0  0  0  0  0  0  0  0
    6.0650  -17.9524    0.0000 C   0  0  0  0  0  0  0  0  0  0  0  0
    6.6405  -17.3722    0.0000 N   0  0  0  0  0  0  0  0  0  0  0  0
    5.2748  -17.7441    0.0000 O   0  0  0  0  0  0  0  0  0  0  0  0
    4.9733  -19.1627    0.0000 C   0  0  0  0  0  0  0  0  0  0  0  0
    4.7646  -18.3650    0.0000 C   0  0  0  0  0  0  0  0  0  0  0  0
    3.9706  -18.1497    0.0000 C   0  0  0  0  0  0  0  0  0  0  0  0
    3.3859  -18.7308    0.0000 C   0  0  0  0  0  0  0  0  0  0  0  0
    3.6006  -19.5302    0.0000 C   0  0  0  0  0  0  0  0  0  0  0  0
    4.3943  -19.7418    0.0000 C   0  0  0  0  0  0  0  0  0  0  0  0
    4.7587  -17.5448    0.0000 F   0  0  0  0  0  0  0  0  0  0  0  0
    3.7615  -17.3597    0.0000 Cl  0  0  0  0  0  0  0  0  0  0  0  0
    7.4307  -17.5805    0.0000 C   0  0  0  0  0  0  0  0  0  0  0  0
    8.0062  -17.0003    0.0000 C   0  0  0  0  0  0  0  0  0  0  0  0
    8.7964  -17.2086    0.0000 C   0  0  0  0  0  0  0  0  0  0  0  0
    9.3719  -16.6285    0.0000 C   0  0  0  0  0  0  0  0  0  0  0  0
   10.1621  -16.8368    0.0000 C   0  0  0  0  0  0  0  0  0  0  0  0
  1  6  2  0
  5  2  2  0
  2  3  1  0
  3  4  2  0
  4  1  1  0
  5  6  1  0
  6  7  1  0
  7  8  1  0
  8  9  1  0
  9  5  1  0
  9 10  2  0
 11 12  1  0
 11 16  1  0
 12 13  1  0
 13 14  1  0
 14 15  1  0
 15 16  1  0
  8 11  1  0
 16 17  2  0
 14 18  2  0
 19 20  1  0
 19 24  1  0
 20 21  1  0
 21 22  1  0
 22 23  1  0
 23 24  1  0
 25 19  1  0
 19 26  1  0
 26 27  1  0
 27 28  1  0
 28 25  1  0
 29 30  2  0
 30 31  1  0
 31 34  2  0
 33 32  2  0
 32 29  1  0
 33 34  1  0
 34 35  1  0
 35 36  1  0
 25 36  1  1
 25 33  1  0
 30 37  1  0
 36 38  2  0
 27 39  1  6
 39 40  1  0
 39 41  2  0
 28 42  1  1
 42 43  2  0
 43 44  1  0
 44 45  2  0
 45 46  1  0
 46 47  2  0
 47 42  1  0
 43 48  1  0
 44 49  1  0
 40 50  1  0
 50 51  1  0
 51 52  1  0
 52 53  1  0
 53 54  1  0
 54  1  1  0
M  END
> <From>
www.bindingDB.org

> <BindingDB Reactant_set_id>
51235025

> <Ligand InChI>
InChI=1S/C41H42Cl2FN5O5/c42-24-14-15-28-30(21-24)46-39(54)41(28)33(26-12-8-13-29(43)34(26)44)35(48-40(41)18-4-2-5-19-40)37(52)45-20-6-1-3-9-23-10-7-11-25-27(23)22-49(38(25)53)31-16-17-32(50)47-36(31)51/h7-8,10-15,21,31,33,35,48H,1-6,9,16-20,22H2,(H,45,52)(H,46,54)(H,47,50,51)/t31?,33-,35+,41+/m0/s1

> <Ligand InChI Key>
BANRYGZZIMCKNA-OYGJEQPESA-N

> <BindingDB MonomerID>
50505628

> <BindingDB Ligand Name>
CHEMBL4449512

> <Target Name>
Protein cereblon

> <Target Source Organism According to Curator or DataSource>
Human

> <Ki (nM)>


> <IC50 (nM)>
 211

> <Kd (nM)>


> <EC50 (nM)>


> <kon (M-1-s-1)>


> <koff (s-1)>


> <pH>


> <Temp C>


> <Curation/DataSource>
ChEMBL

> <Article DOI>
10.1021/acs.jmedchem.9b00846

> <BindingDB Entry DOI>
10.7270/Q20C5026

> <PMID>
31560543

> <PubChem AID>


> <Patent Number>


> <Authors>
Yang, J; Li, Y; Aguilar, A; Liu, Z; Yang, CY; Wang, S

> <Date of publication>
11/14/2019

> <Date in BindingDB>
2/18/2021

> <Institution>
TBA

> <Link to Ligand in BindingDB>
http://www.bindingdb.org/bind/chemsearch/marvin/MolStructure.jsp?monomerid=50505628

> <Link to Ligand-Target Pair in BindingDB>
http://www.bindingdb.org/jsp/dbsearch/PrimarySearch_ki.jsp?energyterm=kJ/mole&tag=pol&polymerid=50007050&target=Protein+cereblon&column=ki&startPg=0&Increment=50&submit=Search

> <Link to Ligand-Target Pair in BindingDB>
http://www.bindingdb.org/jsp/dbsearch/PrimarySearch_ki.jsp?energyterm=kJ/mole&tag=r21&monomerid=50505628&enzyme=Protein+cereblon&column=ki&startPg=0&Increment=50&submit=Search

> <Ligand HET ID in PDB>


> <PDB ID(s) for Ligand-Target Complex>


> <PubChem CID of Ligand>
139600332

> <PubChem SID of Ligand>
440714213

> <ChEBI ID of Ligand>


> <ChEMBL ID of Ligand>


> <DrugBank ID of Ligand>


> <IUPHAR_GRAC ID of Ligand>


> <KEGG ID of Ligand>


> <ZINC ID of Ligand>


> <Number of Protein Chains in Target (bigger than 1 implies a multichain complex)>
1

> <BindingDB Target Chain Sequence>
MAGEGDQQDAAHNMGNHLPLLPAESEEEDEMEVEDQDSKEAKKPNIINFDTSLPTSHTYLGADMEEFHGRTLHDDDSCQVIPVLPQVMMILIPGQTLPLQLFHPQEVSMVRNLIQKDRTFAVLAYSNVQEREAQFGTTAEIYAYREEQDFGIEIVKVKAIGRQRFKVLELRTQSDGIQQAKVQILPECVLPSTMSAVQLESLNKCQIFPSKPVSREDQCSYKWWQKYQKRKFHCANLTSWPRWLYSLYDAETLMDRIKKQLREWDENLKDDSLPSNPIDFSYRVAACLPIDDVLRIQLLKIGSAIQRLRCELDIMNKCTSLCCKQCQETEITTKNEIFSLSLCGPMAAYVNPHGYVHETLTVYKACNLNLIGRPSTEHSWFPGYAWTVAQCKICASHIGWKFTATKKDMSPQKFWGLTRSALLPTIPDTEDEISPDKVILCL

> <PDB ID(s) of Target Chain>
4TZ4,5HXB,5V3O,6UML,6XK9,7LPS,7U8F,8CVP,8D7U,8D7V,8D7W,8D7X,8D7Y,8D7Z,8D80,8D81,8DEY,8OIZ,8OJH

> <UniProt (SwissProt) Recommended Name of Target Chain>
Protein cereblon

> <UniProt (SwissProt) Entry Name of Target Chain>
CRBN_HUMAN

> <UniProt (SwissProt) Primary ID of Target Chain>
Q96SW2

> <UniProt (SwissProt) Secondary ID(s) of Target Chain>
B2R6H4 C9IZA9 C9JAH6 Q6AI62 Q6NVZ0 Q9UHW4

> <UniProt (SwissProt) Alternative ID(s) of Target Chain>


> <UniProt (TrEMBL) Submitted Name of Target Chain>


> <UniProt (TrEMBL) Entry Name of Target Chain>


> <UniProt (TrEMBL) Primary ID of Target Chain>


> <UniProt (TrEMBL) Secondary ID(s) of Target Chain>


> <UniProt (TrEMBL) Alternative ID(s) of Target Chain>


$$$$
 
     RDKit          2D

 50 57  0  0  0  0  0  0  0  0999 V2000
    1.4796    3.2695    0.0000 C   0  0  0  0  0  0  0  0  0  0  0  0
    2.1842    2.8403    0.0000 C   0  0  0  0  0  0  0  0  0  0  0  0
    2.1643    2.0179    0.0000 C   0  0  0  0  0  0  0  0  0  0  0  0
    1.4403    1.6221    0.0000 C   0  0  0  0  0  0  0  0  0  0  0  0
    0.7382    2.0477    0.0000 C   0  0  0  0  0  0  0  0  0  0  0  0
    0.7527    2.8721    0.0000 C   0  0  0  0  0  0  0  0  0  0  0  0
    2.9400    1.7451    0.0000 C   0  0  0  0  0  0  0  0  0  0  0  0
    2.9722    3.0754    0.0000 C   0  0  0  0  0  0  0  0  0  0  0  0
    3.4394    2.3985    0.0000 N   0  0  0  0  0  0  0  0  0  0  0  0
    3.1852    3.8700    0.0000 O   0  0  0  0  0  0  0  0  0  0  0  0
    4.2619    2.3985    0.0000 C   0  0  0  0  0  0  0  0  0  0  0  0
    4.6733    3.1107    0.0000 C   0  0  0  0  0  0  0  0  0  0  0  0
    5.4959    3.1107    0.0000 C   0  0  0  0  0  0  0  0  0  0  0  0
    5.9071    2.3984    0.0000 C   0  0  0  0  0  0  0  0  0  0  0  0
    5.4959    1.6861    0.0000 N   0  0  0  0  0  0  0  0  0  0  0  0
    4.6733    1.6861    0.0000 C   0  0  0  0  0  0  0  0  0  0  0  0
    4.2619    0.9737    0.0000 O   0  0  0  0  0  0  0  0  0  0  0  0
    6.7298    2.3984    0.0000 O   0  0  0  0  0  0  0  0  0  0  0  0
    0.0259    1.6364    0.0000 C   0  0  0  0  0  0  0  0  0  0  0  0
    0.0259    0.8139    0.0000 C   0  0  0  0  0  0  0  0  0  0  0  0
   -0.6864    0.4025    0.0000 C   0  0  0  0  0  0  0  0  0  0  0  0
   -1.3988    0.8139    0.0000 N   0  0  0  0  0  0  0  0  0  0  0  0
   -1.3988    1.6365    0.0000 C   0  0  0  0  0  0  0  0  0  0  0  0
   -0.6864    2.0477    0.0000 C   0  0  0  0  0  0  0  0  0  0  0  0
   -2.1113    0.4025    0.0000 C   0  0  0  0  0  0  0  0  0  0  0  0
   -2.1113   -0.4200    0.0000 O   0  0  0  0  0  0  0  0  0  0  0  0
   -2.8236    0.8139    0.0000 C   0  0  0  0  0  0  0  0  0  0  0  0
   -3.5360    0.4025    0.0000 C   0  0  0  0  0  0  0  0  0  0  0  0
   -4.2599    0.7952    0.0000 C   0  0  0  0  0  0  0  0  0  0  0  0
   -5.0174    0.4736    0.0000 N   0  0  0  0  0  0  0  0  0  0  0  0
   -5.2303   -0.3209    0.0000 C   0  0  0  0  0  0  0  0  0  0  0  0
   -4.7577   -0.9859    0.0000 C   0  0  0  0  0  0  0  0  0  0  0  0
   -3.9381   -1.0217    0.0000 C   0  0  0  0  0  0  0  0  0  0  0  0
   -3.3947   -0.4029    0.0000 N   0  0  0  0  0  0  0  0  0  0  0  0
   -4.3316    1.6150    0.0000 N   0  0  0  0  0  0  0  0  0  0  0  0
   -5.5573    1.0947    0.0000 C   0  0  0  0  0  0  0  0  0  0  0  0
   -5.1334    1.8001    0.0000 N   0  0  0  0  0  0  0  0  0  0  0  0
   -3.5268   -1.7341    0.0000 C   0  0  0  0  0  0  0  0  0  0  0  0
   -6.3800    1.0947    0.0000 C   0  0  0  0  0  0  0  0  0  0  0  0
   -6.0089   -0.5649    0.0000 S   0  0  0  0  0  0  0  0  0  0  0  0
   -5.2441   -1.6410    0.0000 C   0  0  0  0  0  0  0  0  0  0  0  0
   -6.0174   -1.3807    0.0000 C   0  0  0  0  0  0  0  0  0  0  0  0
   -6.7298   -1.7920    0.0000 C   0  0  0  0  0  0  0  0  0  0  0  0
   -5.0312   -2.4355    0.0000 C   0  0  0  0  0  0  0  0  0  0  0  0
   -2.7041   -1.7343    0.0000 C   0  0  0  0  0  0  0  0  0  0  0  0
   -2.2947   -2.4450    0.0000 C   0  0  0  0  0  0  0  0  0  0  0  0
   -2.7061   -3.1576    0.0000 C   0  0  0  0  0  0  0  0  0  0  0  0
   -3.5247   -3.1591    0.0000 C   0  0  0  0  0  0  0  0  0  0  0  0
   -3.9399   -2.4495    0.0000 C   0  0  0  0  0  0  0  0  0  0  0  0
   -2.2948   -3.8700    0.0000 Cl  0  0  0  0  0  0  0  0  0  0  0  0
  2  1  2  0
  3  2  1  0
  4  3  2  0
  5  4  1  0
  1  6  1  0
  6  5  2  0
  3  7  1  0
  2  8  1  0
  8  9  1  0
  9  7  1  0
  8 10  2  0
  9 11  1  0
 12 11  1  0
 13 12  1  0
 14 13  1  0
 15 14  1  0
 16 15  1  0
 11 16  1  0
 16 17  2  0
 14 18  2  0
 19  5  1  0
 19 20  1  0
 21 20  1  0
 22 21  1  0
 23 22  1  0
 19 24  1  0
 24 23  1  0
 22 25  1  0
 25 26  2  0
 25 27  1  0
 28 27  1  6
 29 28  1  0
 29 30  1  0
 30 31  1  0
 32 31  2  0
 33 32  1  0
 34 33  2  0
 28 34  1  0
 29 35  2  0
 30 36  1  0
 36 37  2  0
 37 35  1  0
 33 38  1  0
 36 39  1  0
 31 40  1  0
 32 41  1  0
 41 42  2  0
 42 40  1  0
 42 43  1  0
 41 44  1  0
 45 38  2  0
 46 45  1  0
 47 46  2  0
 48 47  1  0
 49 48  2  0
 38 49  1  0
 47 50  1  0
M  END
> <From>
www.bindingDB.org

> <BindingDB Reactant_set_id>
51570533

> <Ligand InChI>
InChI=1S/C37H36ClN7O4S/c1-19-20(2)50-37-32(19)33(23-4-7-26(38)8-5-23)39-28(34-42-41-21(3)45(34)37)17-31(47)43-14-12-22(13-15-43)24-6-9-27-25(16-24)18-44(36(27)49)29-10-11-30(46)40-35(29)48/h4-9,16,22,28-29H,10-15,17-18H2,1-3H3,(H,40,46,48)/t28-,29?/m0/s1

> <Ligand InChI Key>
WXSOTMXNHJTFKS-XLTVJXRZSA-N

> <BindingDB MonomerID>
50631622

> <BindingDB Ligand Name>
CHEMBL5394825

> <Target Name>
Protein cereblon

> <Target Source Organism According to Curator or DataSource>
Homo sapiens

> <Ki (nM)>


> <IC50 (nM)>
 216

> <Kd (nM)>


> <EC50 (nM)>


> <kon (M-1-s-1)>


> <koff (s-1)>


> <pH>


> <Temp C>


> <Curation/DataSource>
ChEMBL

> <Article DOI>
10.1021/acs.jmedchem.3c01613

> <BindingDB Entry DOI>
10.7270/Q2T1583Z

> <PMID>
38096359

> <PubChem AID>


> <Patent Number>


> <Authors>
Arndt, CM; Bitai, J; Brunner, J; Opatz, T; Martinelli, P; Gollner, A; Sokol, KR; Krumb, M

> <Date of publication>
12/28/2023

> <Date in BindingDB>
12/21/2024

> <Institution>
Boehringer Ingelheim Rcv

> <Link to Ligand in BindingDB>
http://www.bindingdb.org/bind/chemsearch/marvin/MolStructure.jsp?monomerid=50631622

> <Link to Ligand-Target Pair in BindingDB>
http://www.bindingdb.org/jsp/dbsearch/PrimarySearch_ki.jsp?energyterm=kJ/mole&tag=pol&polymerid=50007050&target=Protein+cereblon&column=ki&startPg=0&Increment=50&submit=Search

> <Link to Ligand-Target Pair in BindingDB>
http://www.bindingdb.org/jsp/dbsearch/PrimarySearch_ki.jsp?energyterm=kJ/mole&tag=r21&monomerid=50631622&enzyme=Protein+cereblon&column=ki&startPg=0&Increment=50&submit=Search

> <Ligand HET ID in PDB>


> <PDB ID(s) for Ligand-Target Complex>


> <PubChem CID of Ligand>
172444229

> <PubChem SID of Ligand>
505035956

> <ChEBI ID of Ligand>


> <ChEMBL ID of Ligand>


> <DrugBank ID of Ligand>


> <IUPHAR_GRAC ID of Ligand>


> <KEGG ID of Ligand>


> <ZINC ID of Ligand>


> <Number of Protein Chains in Target (bigger than 1 implies a multichain complex)>
1

> <BindingDB Target Chain Sequence>
MAGEGDQQDAAHNMGNHLPLLPAESEEEDEMEVEDQDSKEAKKPNIINFDTSLPTSHTYLGADMEEFHGRTLHDDDSCQVIPVLPQVMMILIPGQTLPLQLFHPQEVSMVRNLIQKDRTFAVLAYSNVQEREAQFGTTAEIYAYREEQDFGIEIVKVKAIGRQRFKVLELRTQSDGIQQAKVQILPECVLPSTMSAVQLESLNKCQIFPSKPVSREDQCSYKWWQKYQKRKFHCANLTSWPRWLYSLYDAETLMDRIKKQLREWDENLKDDSLPSNPIDFSYRVAACLPIDDVLRIQLLKIGSAIQRLRCELDIMNKCTSLCCKQCQETEITTKNEIFSLSLCGPMAAYVNPHGYVHETLTVYKACNLNLIGRPSTEHSWFPGYAWTVAQCKICASHIGWKFTATKKDMSPQKFWGLTRSALLPTIPDTEDEISPDKVILCL

> <PDB ID(s) of Target Chain>
8TNR,8TNQ,8TNP,8D81,8D80,8D7Z,8D7Y,8D7X,8D7W,8D7V,8D7U,8CVP,9DQD,8UH6,6BOY,6BNB,6BN9,6BN8,6BN7,6XK9,6UML,5V3O,5HXB,7U8F,8OJH,8OIZ,7LPS,4TZ4,9DJX,9DJT,8U17,8U16,8U15,8TZX,8DEY,9CUO,4M91

> <UniProt (SwissProt) Recommended Name of Target Chain>
Protein cereblon

> <UniProt (SwissProt) Entry Name of Target Chain>
CRBN_HUMAN

> <UniProt (SwissProt) Primary ID of Target Chain>
Q96SW2

> <UniProt (SwissProt) Secondary ID(s) of Target Chain>
B2R6H4 C9IZA9 C9JAH6 Q6AI62 Q6NVZ0 Q9UHW4

> <UniProt (SwissProt) Alternative ID(s) of Target Chain>


> <UniProt (TrEMBL) Submitted Name of Target Chain>


> <UniProt (TrEMBL) Entry Name of Target Chain>


> <UniProt (TrEMBL) Primary ID of Target Chain>


> <UniProt (TrEMBL) Secondary ID(s) of Target Chain>


> <UniProt (TrEMBL) Alternative ID(s) of Target Chain>


$$$$

     RDKit          2D

 19 21  0  0  0  0  0  0  0  0999 V2000
    2.8178  -26.5519    0.0000 C   0  0  0  0  0  0  0  0  0  0  0  0
    2.8167  -27.3788    0.0000 C   0  0  0  0  0  0  0  0  0  0  0  0
    3.5311  -27.7914    0.0000 C   0  0  0  0  0  0  0  0  0  0  0  0
    3.5293  -26.1393    0.0000 C   0  0  0  0  0  0  0  0  0  0  0  0
    5.0352  -26.2897    0.0000 C   0  0  0  0  0  0  0  0  0  0  0  0
    4.2442  -26.5482    0.0000 C   0  0  0  0  0  0  0  0  0  0  0  0
    4.2469  -27.3809    0.0000 C   0  0  0  0  0  0  0  0  0  0  0  0
    5.0402  -27.6344    0.0000 C   0  0  0  0  0  0  0  0  0  0  0  0
    5.5254  -26.9576    0.0000 N   0  0  0  0  0  0  0  0  0  0  0  0
    5.2874  -25.5047    0.0000 O   0  0  0  0  0  0  0  0  0  0  0  0
    6.3483  -26.9575    0.0000 C   0  0  0  0  0  0  0  0  0  0  0  0
    6.7634  -27.6711    0.0000 C   0  0  0  0  0  0  0  0  0  0  0  0
    7.5843  -27.6684    0.0000 C   0  0  0  0  0  0  0  0  0  0  0  0
    7.9964  -26.9538    0.0000 C   0  0  0  0  0  0  0  0  0  0  0  0
    7.5813  -26.2402    0.0000 N   0  0  0  0  0  0  0  0  0  0  0  0
    6.7541  -26.2413    0.0000 C   0  0  0  0  0  0  0  0  0  0  0  0
    6.3385  -25.5292    0.0000 O   0  0  0  0  0  0  0  0  0  0  0  0
    8.8209  -26.9523    0.0000 O   0  0  0  0  0  0  0  0  0  0  0  0
    3.5299  -28.6160    0.0000 O   0  0  0  0  0  0  0  0  0  0  0  0
  1  2  2  0
  2  3  1  0
  3  7  2  0
  6  4  2  0
  4  1  1  0
  6  7  1  0
  5  6  1  0
  7  8  1  0
  8  9  1  0
  9  5  1  0
  5 10  2  0
 11 12  1  0
 11 16  1  0
 12 13  1  0
 13 14  1  0
 14 15  1  0
 15 16  1  0
  9 11  1  0
 16 17  2  0
 14 18  2  0
  3 19  1  0
M  END
> <From>
www.bindingDB.org

> <BindingDB Reactant_set_id>
51526244

> <Ligand InChI>
InChI=1S/C13H12N2O4/c16-10-3-1-2-7-8(10)6-15(13(7)19)9-4-5-11(17)14-12(9)18/h1-3,9,16H,4-6H2,(H,14,17,18)

> <Ligand InChI Key>
HGPRKOYQOBYISD-UHFFFAOYSA-N

> <BindingDB MonomerID>
50614096

> <BindingDB Ligand Name>
CHEMBL2324726

> <Target Name>
Protein cereblon

> <Target Source Organism According to Curator or DataSource>
Human

> <Ki (nM)>


> <IC50 (nM)>
 234

> <Kd (nM)>


> <EC50 (nM)>


> <kon (M-1-s-1)>


> <koff (s-1)>


> <pH>


> <Temp C>


> <Curation/DataSource>
ChEMBL

> <Article DOI>


> <BindingDB Entry DOI>
10.7270/Q2V12923

> <PMID>
36970148

> <PubChem AID>


> <Patent Number>


> <Authors>
n/a

> <Date of publication>
3/22/2023

> <Date in BindingDB>
4/22/2024

> <Institution>
n/a

> <Link to Ligand in BindingDB>
http://www.bindingdb.org/bind/chemsearch/marvin/MolStructure.jsp?monomerid=50614096

> <Link to Ligand-Target Pair in BindingDB>
http://www.bindingdb.org/jsp/dbsearch/PrimarySearch_ki.jsp?energyterm=kJ/mole&tag=pol&polymerid=50007050&target=Protein+cereblon&column=ki&startPg=0&Increment=50&submit=Search

> <Link to Ligand-Target Pair in BindingDB>
http://www.bindingdb.org/jsp/dbsearch/PrimarySearch_ki.jsp?energyterm=kJ/mole&tag=r21&monomerid=50614096&enzyme=Protein+cereblon&column=ki&startPg=0&Increment=50&submit=Search

> <Ligand HET ID in PDB>


> <PDB ID(s) for Ligand-Target Complex>


> <PubChem CID of Ligand>
25015582

> <PubChem SID of Ligand>
494503844

> <ChEBI ID of Ligand>


> <ChEMBL ID of Ligand>


> <DrugBank ID of Ligand>


> <IUPHAR_GRAC ID of Ligand>


> <KEGG ID of Ligand>


> <ZINC ID of Ligand>


> <Number of Protein Chains in Target (bigger than 1 implies a multichain complex)>
1

> <BindingDB Target Chain Sequence>
MAGEGDQQDAAHNMGNHLPLLPAESEEEDEMEVEDQDSKEAKKPNIINFDTSLPTSHTYLGADMEEFHGRTLHDDDSCQVIPVLPQVMMILIPGQTLPLQLFHPQEVSMVRNLIQKDRTFAVLAYSNVQEREAQFGTTAEIYAYREEQDFGIEIVKVKAIGRQRFKVLELRTQSDGIQQAKVQILPECVLPSTMSAVQLESLNKCQIFPSKPVSREDQCSYKWWQKYQKRKFHCANLTSWPRWLYSLYDAETLMDRIKKQLREWDENLKDDSLPSNPIDFSYRVAACLPIDDVLRIQLLKIGSAIQRLRCELDIMNKCTSLCCKQCQETEITTKNEIFSLSLCGPMAAYVNPHGYVHETLTVYKACNLNLIGRPSTEHSWFPGYAWTVAQCKICASHIGWKFTATKKDMSPQKFWGLTRSALLPTIPDTEDEISPDKVILCL

> <PDB ID(s) of Target Chain>
4TZ4,5HXB,5V3O,6UML,6XK9,7LPS,7U8F,8CVP,8D7U,8D7V,8D7W,8D7X,8D7Y,8D7Z,8D80,8D81,8DEY,8OIZ,8OJH,8U15,8U16,8U17

> <UniProt (SwissProt) Recommended Name of Target Chain>
Protein cereblon

> <UniProt (SwissProt) Entry Name of Target Chain>
CRBN_HUMAN

> <UniProt (SwissProt) Primary ID of Target Chain>
Q96SW2

> <UniProt (SwissProt) Secondary ID(s) of Target Chain>
B2R6H4 C9IZA9 C9JAH6 Q6AI62 Q6NVZ0 Q9UHW4

> <UniProt (SwissProt) Alternative ID(s) of Target Chain>


> <UniProt (TrEMBL) Submitted Name of Target Chain>


> <UniProt (TrEMBL) Entry Name of Target Chain>


> <UniProt (TrEMBL) Primary ID of Target Chain>


> <UniProt (TrEMBL) Secondary ID(s) of Target Chain>


> <UniProt (TrEMBL) Alternative ID(s) of Target Chain>


$$$$

     RDKit          2D

 65 73  0  0  0  0  0  0  0  0999 V2000
   -3.9815  -23.5592    0.0000 C   0  0  0  0  0  0  0  0  0  0  0  0
   -2.7680  -22.6775    0.0000 C   0  0  0  0  0  0  0  0  0  0  0  0
   -2.9248  -21.1857    0.0000 C   0  0  0  0  0  0  0  0  0  0  0  0
   -1.7113  -20.3041    0.0000 C   0  0  0  0  0  0  0  0  0  0  0  0
   -1.8681  -18.8123    0.0000 C   0  0  0  0  0  0  0  0  0  0  0  0
   -0.6546  -17.9306    0.0000 N   0  0  0  0  0  0  0  0  0  0  0  0
   -0.8113  -16.4388    0.0000 C   0  0  0  0  0  0  0  0  0  0  0  0
    0.4022  -15.5571    0.0000 N   0  0  0  0  0  0  0  0  0  0  0  0
    0.2454  -14.0654    0.0000 C   0  0  0  0  0  0  0  0  0  0  0  0
   -1.0537  -13.3154    0.0000 C   0  0  0  0  0  0  0  0  0  0  0  0
   -0.7418  -11.8481    0.0000 N   0  0  0  0  0  0  0  0  0  0  0  0
    0.7500  -11.6913    0.0000 N   0  0  0  0  0  0  0  0  0  0  0  0
    1.5000  -10.3923    0.0000 C   0  0  0  0  0  0  0  0  0  0  0  0
    3.0000  -10.3923    0.0000 C   0  0  0  0  0  0  0  0  0  0  0  0
    3.7500   -9.0933    0.0000 C   0  0  0  0  0  0  0  0  0  0  0  0
    3.0000   -7.7942    0.0000 N   0  0  0  0  0  0  0  0  0  0  0  0
    3.7500   -6.4952    0.0000 C   0  0  0  0  0  0  0  0  0  0  0  0
    3.0000   -5.1962    0.0000 C   0  0  0  0  0  0  0  0  0  0  0  0
    3.7500   -3.8971    0.0000 C   0  0  0  0  0  0  0  0  0  0  0  0
    3.0000   -2.5981    0.0000 C   0  0  0  0  0  0  0  0  0  0  0  0
    1.5000   -2.5981    0.0000 N   0  0  0  0  0  0  0  0  0  0  0  0
    0.7500   -1.2990    0.0000 C   0  0  0  0  0  0  0  0  0  0  0  0
    1.5000    0.0000    0.0000 C   0  0  0  0  0  0  0  0  0  0  0  0
    0.7500    1.2990    0.0000 C   0  0  0  0  0  0  0  0  0  0  0  0
   -0.7500    1.2990    0.0000 C   0  0  0  0  0  0  0  0  0  0  0  0
   -1.5000    0.0000    0.0000 C   0  0  0  0  0  0  0  0  0  0  0  0
   -0.7500   -1.2990    0.0000 C   0  0  0  0  0  0  0  0  0  0  0  0
   -2.9672    0.3119    0.0000 C   0  0  0  0  0  0  0  0  0  0  0  0
   -4.0819   -0.6918    0.0000 O   0  0  0  0  0  0  0  0  0  0  0  0
   -3.1240    1.8037    0.0000 N   0  0  0  0  0  0  0  0  0  0  0  0
   -4.4231    2.5537    0.0000 C   0  0  0  0  0  0  0  0  0  0  0  0
   -4.4231    4.0537    0.0000 C   0  0  0  0  0  0  0  0  0  0  0  0
   -5.7221    4.8037    0.0000 C   0  0  0  0  0  0  0  0  0  0  0  0
   -7.0211    4.0537    0.0000 C   0  0  0  0  0  0  0  0  0  0  0  0
   -8.3202    4.8037    0.0000 O   0  0  0  0  0  0  0  0  0  0  0  0
   -7.0211    2.5537    0.0000 N   0  0  0  0  0  0  0  0  0  0  0  0
   -5.7221    1.8037    0.0000 C   0  0  0  0  0  0  0  0  0  0  0  0
   -5.7221    0.3037    0.0000 O   0  0  0  0  0  0  0  0  0  0  0  0
   -1.7537    2.4138    0.0000 C   0  0  0  0  0  0  0  0  0  0  0  0
   -1.4418    3.8810    0.0000 O   0  0  0  0  0  0  0  0  0  0  0  0
    0.7500   -3.8971    0.0000 C   0  0  0  0  0  0  0  0  0  0  0  0
    1.5000   -5.1962    0.0000 C   0  0  0  0  0  0  0  0  0  0  0  0
    1.5000   -7.7942    0.0000 C   0  0  0  0  0  0  0  0  0  0  0  0
    0.7500   -9.0933    0.0000 C   0  0  0  0  0  0  0  0  0  0  0  0
    1.3601  -13.0617    0.0000 C   0  0  0  0  0  0  0  0  0  0  0  0
   -2.1817  -15.8287    0.0000 N   0  0  0  0  0  0  0  0  0  0  0  0
   -3.3952  -16.7104    0.0000 C   0  0  0  0  0  0  0  0  0  0  0  0
   -3.2384  -18.2022    0.0000 C   0  0  0  0  0  0  0  0  0  0  0  0
   -4.4519  -19.0839    0.0000 F   0  0  0  0  0  0  0  0  0  0  0  0
   -0.3410  -20.9142    0.0000 C   0  0  0  0  0  0  0  0  0  0  0  0
   -0.1842  -22.4059    0.0000 C   0  0  0  0  0  0  0  0  0  0  0  0
   -1.3977  -23.2876    0.0000 C   0  0  0  0  0  0  0  0  0  0  0  0
   -1.2409  -24.7794    0.0000 C   0  0  0  0  0  0  0  0  0  0  0  0
    0.1294  -25.3895    0.0000 N   0  0  0  0  0  0  0  0  0  0  0  0
    0.2862  -26.8813    0.0000 C   0  0  0  0  0  0  0  0  0  0  0  0
   -0.9273  -27.7630    0.0000 O   0  0  0  0  0  0  0  0  0  0  0  0
    1.6565  -27.4914    0.0000 C   0  0  0  0  0  0  0  0  0  0  0  0
    2.9556  -26.7414    0.0000 C   0  0  0  0  0  0  0  0  0  0  0  0
    4.0703  -27.7451    0.0000 N   0  0  0  0  0  0  0  0  0  0  0  0
    5.5375  -27.4332    0.0000 C   0  0  0  0  0  0  0  0  0  0  0  0
    5.8494  -28.9005    0.0000 C   0  0  0  0  0  0  0  0  0  0  0  0
    5.2256  -25.9660    0.0000 C   0  0  0  0  0  0  0  0  0  0  0  0
    7.0047  -27.1214    0.0000 C   0  0  0  0  0  0  0  0  0  0  0  0
    3.4602  -29.1154    0.0000 N   0  0  0  0  0  0  0  0  0  0  0  0
    1.9684  -28.9586    0.0000 N   0  0  0  0  0  0  0  0  0  0  0  0
  1  2  1  0
  2  3  2  0
  3  4  1  0
  4  5  1  0
  5  6  2  0
  6  7  1  0
  7  8  1  0
  8  9  1  0
  9 10  1  0
 10 11  2  0
 11 12  1  0
 12 13  1  0
 13 14  1  0
 14 15  1  0
 15 16  1  0
 16 17  1  0
 17 18  1  0
 18 19  1  0
 19 20  1  0
 20 21  1  0
 21 22  1  0
 22 23  2  0
 23 24  1  0
 24 25  2  0
 25 26  1  0
 26 27  2  0
 26 28  1  0
 28 29  2  0
 28 30  1  0
 30 31  1  0
 31 32  1  0
 32 33  1  0
 33 34  1  0
 34 35  2  0
 34 36  1  0
 36 37  1  0
 37 38  2  0
 30 39  1  0
 39 40  2  0
 21 41  1  0
 41 42  1  0
 16 43  1  0
 43 44  1  0
 12 45  1  0
  7 46  2  0
 46 47  1  0
 47 48  2  0
 48 49  1  0
  4 50  2  0
 50 51  1  0
 51 52  2  0
 52 53  1  0
 53 54  1  0
 54 55  1  0
 55 56  2  0
 55 57  1  0
 57 58  2  0
 58 59  1  0
 59 60  1  0
 60 61  1  0
 60 62  1  0
 60 63  1  0
 59 64  1  0
 64 65  2  0
 52  2  1  0
 65 57  1  0
 48  5  1  0
 45  9  2  0
 44 13  1  0
 42 18  1  0
 27 22  1  0
 37 31  1  0
 39 25  1  0
M  END
> <From>
www.bindingDB.org

> <BindingDB Reactant_set_id>
51591331

> <Ligand InChI>
InChI=1S/C46H52FN13O5/c1-27-19-29(5-6-30(27)21-48-41(62)37-26-59(55-54-37)46(2,3)4)40-36(47)23-49-45(53-40)51-31-22-50-58(25-31)32-13-15-56(16-14-32)24-28-11-17-57(18-12-28)33-7-8-34-35(20-33)44(65)60(43(34)64)38-9-10-39(61)52-42(38)63/h5-8,19-20,22-23,25-26,28,32,38H,9-18,21,24H2,1-4H3,(H,48,62)(H,49,51,53)(H,52,61,63)

> <Ligand InChI Key>
YJSLNCQHRATHFV-UHFFFAOYSA-N

> <BindingDB MonomerID>
50640860

> <BindingDB Ligand Name>
CHEMBL5583805

> <Target Name>
Protein cereblon

> <Target Source Organism According to Curator or DataSource>
Human

> <Ki (nM)>


> <IC50 (nM)>
 248

> <Kd (nM)>


> <EC50 (nM)>


> <kon (M-1-s-1)>


> <koff (s-1)>


> <pH>


> <Temp C>


> <Curation/DataSource>
ChEMBL

> <Article DOI>


> <BindingDB Entry DOI>
10.7270/Q2348R1H

> <PMID>
38321747

> <PubChem AID>


> <Patent Number>


> <Authors>
Huang, J; Ma, Z; Peng, X; Yang, Z; Wu, Y; Zhong, G; Ouyang, T; Chen, Z; Liu, Y; Wang, Q; Chen, J; Chen, T; Zeng, Z

> <Date of publication>
//0

> <Date in BindingDB>
10/11/2025

> <Institution>
The People's Hospital of Guangxi Zhuang Autonomous Region & Guangxi Academy of Medical Sciences

> <Link to Ligand in BindingDB>
http://www.bindingdb.org/bind/chemsearch/marvin/MolStructure.jsp?monomerid=50640860

> <Link to Ligand-Target Pair in BindingDB>
http://www.bindingdb.org/rwd/jsp/dbsearch/PrimarySearch_ki.jsp?energyterm=kJ/mole&tag=pol&polymerid=50007050&target=Protein+cereblon&column=ki&startPg=0&Increment=50&submit=Search

> <Link to Ligand-Target Pair in BindingDB>
http://www.bindingdb.org/rwd/jsp/dbsearch/PrimarySearch_ki.jsp?energyterm=kJ/mole&tag=r21&monomerid=50640860&enzyme=Protein+cereblon&column=ki&startPg=0&Increment=50&submit=Search

> <Ligand HET ID in PDB>


> <PDB ID(s) for Ligand-Target Complex>


> <PubChem CID of Ligand>
171037439

> <PubChem SID of Ligand>
519666264

> <ChEBI ID of Ligand>


> <ChEMBL ID of Ligand>


> <DrugBank ID of Ligand>


> <IUPHAR_GRAC ID of Ligand>


> <KEGG ID of Ligand>


> <ZINC ID of Ligand>


> <Number of Protein Chains in Target (bigger than 1 implies a multichain complex)>
1

> <BindingDB Target Chain Sequence>
MAGEGDQQDAAHNMGNHLPLLPAESEEEDEMEVEDQDSKEAKKPNIINFDTSLPTSHTYLGADMEEFHGRTLHDDDSCQVIPVLPQVMMILIPGQTLPLQLFHPQEVSMVRNLIQKDRTFAVLAYSNVQEREAQFGTTAEIYAYREEQDFGIEIVKVKAIGRQRFKVLELRTQSDGIQQAKVQILPECVLPSTMSAVQLESLNKCQIFPSKPVSREDQCSYKWWQKYQKRKFHCANLTSWPRWLYSLYDAETLMDRIKKQLREWDENLKDDSLPSNPIDFSYRVAACLPIDDVLRIQLLKIGSAIQRLRCELDIMNKCTSLCCKQCQETEITTKNEIFSLSLCGPMAAYVNPHGYVHETLTVYKACNLNLIGRPSTEHSWFPGYAWTVAQCKICASHIGWKFTATKKDMSPQKFWGLTRSALLPTIPDTEDEISPDKVILCL

> <PDB ID(s) of Target Chain>
9DUR,8TNR,8TNQ,8TNP,9DWW,9DWV,9NGT,9NFR,9NFQ,8D81,8D80,8D7Z,8D7Y,8D7X,8D7W,8D7V,8D7U,8CVP,9Q2D,9Q03,9DQD,8UH6,9SAI,9SAF,9H59,9E2U,6BOY,6BNB,6BN9,6BN8,6BN7,9OUL,9Y7D,6XK9,6UML,5V3O,5HXB,9HNE,9D0X,9D0W,7U8F,9FJX,8OJH,8OIZ,7LPS,9SFM,9OTY,4TZ4,9DJX,9DJT,8U17,8U16,8U15,8TZX,8DEY,9CUO,4M91

> <UniProt (SwissProt) Recommended Name of Target Chain>
Protein cereblon

> <UniProt (SwissProt) Entry Name of Target Chain>
CRBN_HUMAN

> <UniProt (SwissProt) Primary ID of Target Chain>
Q96SW2

> <UniProt (SwissProt) Secondary ID(s) of Target Chain>
B2R6H4 C9IZA9 C9JAH6 Q6AI62 Q6NVZ0 Q9UHW4

> <UniProt (SwissProt) Alternative ID(s) of Target Chain>


> <UniProt (TrEMBL) Submitted Name of Target Chain>


> <UniProt (TrEMBL) Entry Name of Target Chain>


> <UniProt (TrEMBL) Primary ID of Target Chain>


> <UniProt (TrEMBL) Secondary ID(s) of Target Chain>


> <UniProt (TrEMBL) Alternative ID(s) of Target Chain>


$$$$
 
     RDKit          2D

 23 25  0  0  0  0  0  0  0  0999 V2000
    2.8320    0.6970    0.0000 C   0  0  0  0  0  0  0  0  0  0  0  0
    3.2445   -0.0174    0.0000 C   0  0  0  0  0  0  0  0  0  0  0  0
    2.8320   -0.7318    0.0000 N   0  0  0  0  0  0  0  0  0  0  0  0
    2.0070   -0.7318    0.0000 C   0  0  0  0  0  0  0  0  0  0  0  0
    1.5945   -0.0174    0.0000 C   0  0  0  0  0  0  0  0  0  0  0  0
    2.0070    0.6970    0.0000 C   0  0  0  0  0  0  0  0  0  0  0  0
    0.7698   -0.0174    0.0000 N   0  0  0  0  0  0  0  0  0  0  0  0
    0.2853   -0.6843    0.0000 C   0  0  0  0  0  0  0  0  0  0  0  0
   -0.4986   -0.4295    0.0000 C   0  0  0  0  0  0  0  0  0  0  0  0
   -0.4986    0.3947    0.0000 C   0  0  0  0  0  0  0  0  0  0  0  0
    0.2853    0.6494    0.0000 C   0  0  0  0  0  0  0  0  0  0  0  0
   -1.2106   -0.8400    0.0000 C   0  0  0  0  0  0  0  0  0  0  0  0
   -1.9248   -0.4279    0.0000 C   0  0  0  0  0  0  0  0  0  0  0  0
   -1.9266    0.3922    0.0000 C   0  0  0  0  0  0  0  0  0  0  0  0
   -1.2156    0.8084    0.0000 C   0  0  0  0  0  0  0  0  0  0  0  0
    1.5947   -1.4460    0.0000 O   0  0  0  0  0  0  0  0  0  0  0  0
    4.0693   -0.0174    0.0000 O   0  0  0  0  0  0  0  0  0  0  0  0
    0.4988    1.4460    0.0000 O   0  0  0  0  0  0  0  0  0  0  0  0
   -2.6408    0.8045    0.0000 O   0  0  0  0  0  0  0  0  0  0  0  0
   -3.3550    0.3922    0.0000 S   0  0  0  0  0  0  0  0  0  0  0  0
   -4.0693    0.8045    0.0000 F   0  0  0  0  0  0  0  0  0  0  0  0
   -3.7682   -0.3233    0.0000 O   0  0  0  0  0  0  0  0  0  0  0  0
   -2.9435   -0.3233    0.0000 O   0  0  0  0  0  0  0  0  0  0  0  0
  1  2  1  0
  3  2  1  0
  4  3  1  0
  5  4  1  0
  1  6  1  0
  6  5  1  0
  7  5  1  0
  7  8  1  0
  8  9  1  0
  9 10  2  0
 10 11  1  0
 11  7  1  0
  9 12  1  0
 13 12  2  0
 14 13  1  0
 15 14  2  0
 10 15  1  0
  4 16  2  0
  2 17  2  0
 11 18  2  0
 14 19  1  0
 19 20  1  0
 20 21  1  0
 20 22  2  0
 20 23  2  0
M  END
> <From>
www.bindingDB.org

> <BindingDB Reactant_set_id>
51568395

> <Ligand InChI>
InChI=1S/C13H11FN2O6S/c14-23(20,21)22-8-2-1-7-6-16(13(19)9(7)5-8)10-3-4-11(17)15-12(10)18/h1-2,5,10H,3-4,6H2,(H,15,17,18)

> <Ligand InChI Key>
RXYXBYLQECASPH-UHFFFAOYSA-N

> <BindingDB MonomerID>
50630768

> <BindingDB Ligand Name>
CHEMBL5289875

> <Target Name>
Protein cereblon

> <Target Source Organism According to Curator or DataSource>
Homo sapiens

> <Ki (nM)>


> <IC50 (nM)>
 255

> <Kd (nM)>


> <EC50 (nM)>


> <kon (M-1-s-1)>


> <koff (s-1)>


> <pH>


> <Temp C>


> <Curation/DataSource>
ChEMBL

> <Article DOI>
10.1021/acsmedchemlett.3c00371

> <BindingDB Entry DOI>
10.7270/Q28D01RH

> <PMID>
37974938

> <PubChem AID>


> <Patent Number>


> <Authors>
Cruite, JT; Nowak, RP; Donovan, KA; Ficarro, SB; Huang, H; Liu, H; Liu, Y; Marto, JA; Metivier, RJ; Fischer, ES; Jones, LH

> <Date of publication>
11/9/2023

> <Date in BindingDB>
12/20/2024

> <Institution>
Dana-Farber Cancer Institute

> <Link to Ligand in BindingDB>
http://www.bindingdb.org/bind/chemsearch/marvin/MolStructure.jsp?monomerid=50630768

> <Link to Ligand-Target Pair in BindingDB>
http://www.bindingdb.org/jsp/dbsearch/PrimarySearch_ki.jsp?energyterm=kJ/mole&tag=pol&polymerid=50007050&target=Protein+cereblon&column=ki&startPg=0&Increment=50&submit=Search

> <Link to Ligand-Target Pair in BindingDB>
http://www.bindingdb.org/jsp/dbsearch/PrimarySearch_ki.jsp?energyterm=kJ/mole&tag=r21&monomerid=50630768&enzyme=Protein+cereblon&column=ki&startPg=0&Increment=50&submit=Search

> <Ligand HET ID in PDB>


> <PDB ID(s) for Ligand-Target Complex>


> <PubChem CID of Ligand>
165879822

> <PubChem SID of Ligand>
505048739

> <ChEBI ID of Ligand>


> <ChEMBL ID of Ligand>


> <DrugBank ID of Ligand>


> <IUPHAR_GRAC ID of Ligand>


> <KEGG ID of Ligand>


> <ZINC ID of Ligand>


> <Number of Protein Chains in Target (bigger than 1 implies a multichain complex)>
1

> <BindingDB Target Chain Sequence>
MAGEGDQQDAAHNMGNHLPLLPAESEEEDEMEVEDQDSKEAKKPNIINFDTSLPTSHTYLGADMEEFHGRTLHDDDSCQVIPVLPQVMMILIPGQTLPLQLFHPQEVSMVRNLIQKDRTFAVLAYSNVQEREAQFGTTAEIYAYREEQDFGIEIVKVKAIGRQRFKVLELRTQSDGIQQAKVQILPECVLPSTMSAVQLESLNKCQIFPSKPVSREDQCSYKWWQKYQKRKFHCANLTSWPRWLYSLYDAETLMDRIKKQLREWDENLKDDSLPSNPIDFSYRVAACLPIDDVLRIQLLKIGSAIQRLRCELDIMNKCTSLCCKQCQETEITTKNEIFSLSLCGPMAAYVNPHGYVHETLTVYKACNLNLIGRPSTEHSWFPGYAWTVAQCKICASHIGWKFTATKKDMSPQKFWGLTRSALLPTIPDTEDEISPDKVILCL

> <PDB ID(s) of Target Chain>
8TNR,8TNQ,8TNP,8D81,8D80,8D7Z,8D7Y,8D7X,8D7W,8D7V,8D7U,8CVP,9DQD,8UH6,6BOY,6BNB,6BN9,6BN8,6BN7,6XK9,6UML,5V3O,5HXB,7U8F,8OJH,8OIZ,7LPS,4TZ4,9DJX,9DJT,8U17,8U16,8U15,8TZX,8DEY,9CUO,4M91

> <UniProt (SwissProt) Recommended Name of Target Chain>
Protein cereblon

> <UniProt (SwissProt) Entry Name of Target Chain>
CRBN_HUMAN

> <UniProt (SwissProt) Primary ID of Target Chain>
Q96SW2

> <UniProt (SwissProt) Secondary ID(s) of Target Chain>
B2R6H4 C9IZA9 C9JAH6 Q6AI62 Q6NVZ0 Q9UHW4

> <UniProt (SwissProt) Alternative ID(s) of Target Chain>


> <UniProt (TrEMBL) Submitted Name of Target Chain>


> <UniProt (TrEMBL) Entry Name of Target Chain>


> <UniProt (TrEMBL) Primary ID of Target Chain>


> <UniProt (TrEMBL) Secondary ID(s) of Target Chain>


> <UniProt (TrEMBL) Alternative ID(s) of Target Chain>


$$$$

     RDKit          2D

 62 71  0  0  0  0  0  0  0  0999 V2000
    3.0000    0.0000    0.0000 N   0  0  0  0  0  0  0  0  0  0  0  0
    1.5000    0.0000    0.0000 C   0  0  0  0  0  0  0  0  0  0  0  0
    0.7500   -1.2990    0.0000 N   0  0  0  0  0  0  0  0  0  0  0  0
   -0.7500   -1.2990    0.0000 C   0  0  0  0  0  0  0  0  0  0  0  0
   -1.5000    0.0000    0.0000 N   0  0  0  0  0  0  0  0  0  0  0  0
   -0.7500    1.2990    0.0000 C   0  0  0  0  0  0  0  0  0  0  0  0
    0.7500    1.2990    0.0000 C   0  0  0  0  0  0  0  0  0  0  0  0
    1.2135    2.7256    0.0000 C   0  0  0  0  0  0  0  0  0  0  0  0
    2.6401    3.1891    0.0000 C   0  0  0  0  0  0  0  0  0  0  0  0
    3.7548    2.1855    0.0000 C   0  0  0  0  0  0  0  0  0  0  0  0
    5.1814    2.6490    0.0000 C   0  0  0  0  0  0  0  0  0  0  0  0
    5.4933    4.1162    0.0000 C   0  0  0  0  0  0  0  0  0  0  0  0
    6.9199    4.5797    0.0000 O   0  0  0  0  0  0  0  0  0  0  0  0
    8.0346    3.5760    0.0000 C   0  0  0  0  0  0  0  0  0  0  0  0
    7.7227    2.1088    0.0000 C   0  0  0  0  0  0  0  0  0  0  0  0
    8.8374    1.1051    0.0000 C   0  0  0  0  0  0  0  0  0  0  0  0
   10.2640    1.5686    0.0000 C   0  0  0  0  0  0  0  0  0  0  0  0
   10.5759    3.0359    0.0000 C   0  0  0  0  0  0  0  0  0  0  0  0
    9.4612    4.0396    0.0000 C   0  0  0  0  0  0  0  0  0  0  0  0
    4.3786    5.1199    0.0000 C   0  0  0  0  0  0  0  0  0  0  0  0
    2.9520    4.6564    0.0000 C   0  0  0  0  0  0  0  0  0  0  0  0
    0.0000    3.6073    0.0000 N   0  0  0  0  0  0  0  0  0  0  0  0
   -1.2135    2.7256    0.0000 N   0  0  0  0  0  0  0  0  0  0  0  0
   -2.6401    3.1891    0.0000 C   0  0  0  0  0  0  0  0  0  0  0  0
   -2.9520    4.6564    0.0000 C   0  0  0  0  0  0  0  0  0  0  0  0
   -4.3786    5.1199    0.0000 C   0  0  0  0  0  0  0  0  0  0  0  0
   -5.4933    4.1162    0.0000 N   0  0  0  0  0  0  0  0  0  0  0  0
   -6.9199    4.5797    0.0000 C   0  0  0  0  0  0  0  0  0  0  0  0
   -8.0346    3.5760    0.0000 O   0  0  0  0  0  0  0  0  0  0  0  0
   -7.2317    6.0469    0.0000 C   0  0  0  0  0  0  0  0  0  0  0  0
   -8.6583    6.5105    0.0000 N   0  0  0  0  0  0  0  0  0  0  0  0
   -8.9702    7.9777    0.0000 C   0  0  0  0  0  0  0  0  0  0  0  0
  -10.3968    8.4412    0.0000 C   0  0  0  0  0  0  0  0  0  0  0  0
  -11.5115    7.4375    0.0000 N   0  0  0  0  0  0  0  0  0  0  0  0
  -12.9381    7.9010    0.0000 C   0  0  0  0  0  0  0  0  0  0  0  0
  -13.2499    9.3683    0.0000 C   0  0  0  0  0  0  0  0  0  0  0  0
  -12.4330   10.6263    0.0000 C   0  0  0  0  0  0  0  0  0  0  0  0
  -13.6910   11.4432    0.0000 N   0  0  0  0  0  0  0  0  0  0  0  0
  -14.0029   12.9105    0.0000 C   0  0  0  0  0  0  0  0  0  0  0  0
  -12.8881   13.9142    0.0000 C   0  0  0  0  0  0  0  0  0  0  0  0
  -13.2000   15.3814    0.0000 C   0  0  0  0  0  0  0  0  0  0  0  0
  -14.6266   15.8449    0.0000 C   0  0  0  0  0  0  0  0  0  0  0  0
  -15.7413   14.8412    0.0000 C   0  0  0  0  0  0  0  0  0  0  0  0
  -15.4294   13.3740    0.0000 C   0  0  0  0  0  0  0  0  0  0  0  0
  -17.0403   15.5912    0.0000 C   0  0  0  0  0  0  0  0  0  0  0  0
  -18.4107   14.9811    0.0000 O   0  0  0  0  0  0  0  0  0  0  0  0
  -16.7285   17.0584    0.0000 N   0  0  0  0  0  0  0  0  0  0  0  0
  -17.7322   18.1731    0.0000 C   0  0  0  0  0  0  0  0  0  0  0  0
  -17.2686   19.5997    0.0000 C   0  0  0  0  0  0  0  0  0  0  0  0
  -18.2723   20.7144    0.0000 C   0  0  0  0  0  0  0  0  0  0  0  0
  -19.7396   20.4026    0.0000 C   0  0  0  0  0  0  0  0  0  0  0  0
  -20.7433   21.5173    0.0000 O   0  0  0  0  0  0  0  0  0  0  0  0
  -20.2031   18.9760    0.0000 N   0  0  0  0  0  0  0  0  0  0  0  0
  -19.1994   17.8613    0.0000 C   0  0  0  0  0  0  0  0  0  0  0  0
  -19.6629   16.4347    0.0000 O   0  0  0  0  0  0  0  0  0  0  0  0
  -15.2367   17.2152    0.0000 C   0  0  0  0  0  0  0  0  0  0  0  0
  -14.4867   18.5143    0.0000 O   0  0  0  0  0  0  0  0  0  0  0  0
  -14.5079   10.1852    0.0000 C   0  0  0  0  0  0  0  0  0  0  0  0
  -11.1996    5.9703    0.0000 C   0  0  0  0  0  0  0  0  0  0  0  0
   -9.7730    5.5068    0.0000 C   0  0  0  0  0  0  0  0  0  0  0  0
   -5.1814    2.6490    0.0000 C   0  0  0  0  0  0  0  0  0  0  0  0
   -3.7548    2.1855    0.0000 C   0  0  0  0  0  0  0  0  0  0  0  0
  1  2  1  0
  2  3  2  0
  3  4  1  0
  4  5  2  0
  5  6  1  0
  6  7  2  0
  7  8  1  0
  8  9  1  0
  9 10  2  0
 10 11  1  0
 11 12  2  0
 12 13  1  0
 13 14  1  0
 14 15  2  0
 15 16  1  0
 16 17  2  0
 17 18  1  0
 18 19  2  0
 12 20  1  0
 20 21  2  0
  8 22  2  0
 22 23  1  0
 23 24  1  0
 24 25  1  0
 25 26  1  0
 26 27  1  0
 27 28  1  0
 28 29  2  0
 28 30  1  0
 30 31  1  0
 31 32  1  0
 32 33  1  0
 33 34  1  0
 34 35  1  0
 35 36  1  0
 36 37  1  0
 37 38  1  0
 38 39  1  0
 39 40  2  0
 40 41  1  0
 41 42  2  0
 42 43  1  0
 43 44  2  0
 43 45  1  0
 45 46  2  0
 45 47  1  0
 47 48  1  0
 48 49  1  0
 49 50  1  0
 50 51  1  0
 51 52  2  0
 51 53  1  0
 53 54  1  0
 54 55  2  0
 47 56  1  0
 56 57  2  0
 38 58  1  0
 34 59  1  0
 59 60  1  0
 27 61  1  0
 61 62  1  0
  7  2  1  0
 21  9  1  0
 62 24  1  0
 23  6  1  0
 60 31  1  0
 19 14  1  0
 58 36  1  0
 44 39  1  0
 54 48  1  0
 56 42  1  0
M  END
> <From>
www.bindingDB.org

> <BindingDB Reactant_set_id>
51591330

> <Ligand InChI>
InChI=1S/C45H47N11O6/c46-41-39-40(29-6-9-33(10-7-29)62-32-4-2-1-3-5-32)50-56(42(39)48-27-47-41)30-14-16-53(17-15-30)38(58)26-52-20-18-51(19-21-52)23-28-24-54(25-28)31-8-11-34-35(22-31)45(61)55(44(34)60)36-12-13-37(57)49-43(36)59/h1-11,22,27-28,30,36H,12-21,23-26H2,(H2,46,47,48)(H,49,57,59)

> <Ligand InChI Key>
SPGWKNITNYHIGX-UHFFFAOYSA-N

> <BindingDB MonomerID>
50640859

> <BindingDB Ligand Name>
CHEMBL5583871

> <Target Name>
Protein cereblon

> <Target Source Organism According to Curator or DataSource>
Human

> <Ki (nM)>


> <IC50 (nM)>
 285

> <Kd (nM)>


> <EC50 (nM)>


> <kon (M-1-s-1)>


> <koff (s-1)>


> <pH>


> <Temp C>


> <Curation/DataSource>
ChEMBL

> <Article DOI>


> <BindingDB Entry DOI>
10.7270/Q2348R1H

> <PMID>
38321747

> <PubChem AID>


> <Patent Number>


> <Authors>
Huang, J; Ma, Z; Peng, X; Yang, Z; Wu, Y; Zhong, G; Ouyang, T; Chen, Z; Liu, Y; Wang, Q; Chen, J; Chen, T; Zeng, Z

> <Date of publication>
//0

> <Date in BindingDB>
10/11/2025

> <Institution>
The People's Hospital of Guangxi Zhuang Autonomous Region & Guangxi Academy of Medical Sciences

> <Link to Ligand in BindingDB>
http://www.bindingdb.org/bind/chemsearch/marvin/MolStructure.jsp?monomerid=50640859

> <Link to Ligand-Target Pair in BindingDB>
http://www.bindingdb.org/rwd/jsp/dbsearch/PrimarySearch_ki.jsp?energyterm=kJ/mole&tag=pol&polymerid=50007050&target=Protein+cereblon&column=ki&startPg=0&Increment=50&submit=Search

> <Link to Ligand-Target Pair in BindingDB>
http://www.bindingdb.org/rwd/jsp/dbsearch/PrimarySearch_ki.jsp?energyterm=kJ/mole&tag=r21&monomerid=50640859&enzyme=Protein+cereblon&column=ki&startPg=0&Increment=50&submit=Search

> <Ligand HET ID in PDB>


> <PDB ID(s) for Ligand-Target Complex>


> <PubChem CID of Ligand>
168476120

> <PubChem SID of Ligand>
519666263

> <ChEBI ID of Ligand>


> <ChEMBL ID of Ligand>


> <DrugBank ID of Ligand>


> <IUPHAR_GRAC ID of Ligand>


> <KEGG ID of Ligand>


> <ZINC ID of Ligand>


> <Number of Protein Chains in Target (bigger than 1 implies a multichain complex)>
1

> <BindingDB Target Chain Sequence>
MAGEGDQQDAAHNMGNHLPLLPAESEEEDEMEVEDQDSKEAKKPNIINFDTSLPTSHTYLGADMEEFHGRTLHDDDSCQVIPVLPQVMMILIPGQTLPLQLFHPQEVSMVRNLIQKDRTFAVLAYSNVQEREAQFGTTAEIYAYREEQDFGIEIVKVKAIGRQRFKVLELRTQSDGIQQAKVQILPECVLPSTMSAVQLESLNKCQIFPSKPVSREDQCSYKWWQKYQKRKFHCANLTSWPRWLYSLYDAETLMDRIKKQLREWDENLKDDSLPSNPIDFSYRVAACLPIDDVLRIQLLKIGSAIQRLRCELDIMNKCTSLCCKQCQETEITTKNEIFSLSLCGPMAAYVNPHGYVHETLTVYKACNLNLIGRPSTEHSWFPGYAWTVAQCKICASHIGWKFTATKKDMSPQKFWGLTRSALLPTIPDTEDEISPDKVILCL

> <PDB ID(s) of Target Chain>
9DUR,8TNR,8TNQ,8TNP,9DWW,9DWV,9NGT,9NFR,9NFQ,8D81,8D80,8D7Z,8D7Y,8D7X,8D7W,8D7V,8D7U,8CVP,9Q2D,9Q03,9DQD,8UH6,9SAI,9SAF,9H59,9E2U,6BOY,6BNB,6BN9,6BN8,6BN7,9OUL,9Y7D,6XK9,6UML,5V3O,5HXB,9HNE,9D0X,9D0W,7U8F,9FJX,8OJH,8OIZ,7LPS,9SFM,9OTY,4TZ4,9DJX,9DJT,8U17,8U16,8U15,8TZX,8DEY,9CUO,4M91

> <UniProt (SwissProt) Recommended Name of Target Chain>
Protein cereblon

> <UniProt (SwissProt) Entry Name of Target Chain>
CRBN_HUMAN

> <UniProt (SwissProt) Primary ID of Target Chain>
Q96SW2

> <UniProt (SwissProt) Secondary ID(s) of Target Chain>
B2R6H4 C9IZA9 C9JAH6 Q6AI62 Q6NVZ0 Q9UHW4

> <UniProt (SwissProt) Alternative ID(s) of Target Chain>


> <UniProt (TrEMBL) Submitted Name of Target Chain>


> <UniProt (TrEMBL) Entry Name of Target Chain>


> <UniProt (TrEMBL) Primary ID of Target Chain>


> <UniProt (TrEMBL) Secondary ID(s) of Target Chain>


> <UniProt (TrEMBL) Alternative ID(s) of Target Chain>


$$$$
 
     RDKit          2D

 56 64  0  0  0  0  0  0  0  0999 V2000
    1.5881    2.0430    0.0000 C   0  0  0  0  0  0  0  0  0  0  0  0
    2.3026    2.4556    0.0000 C   0  0  0  0  0  0  0  0  0  0  0  0
    3.0170    2.0430    0.0000 C   0  0  0  0  0  0  0  0  0  0  0  0
    3.0170    1.2181    0.0000 C   0  0  0  0  0  0  0  0  0  0  0  0
    3.7314    0.8056    0.0000 C   0  0  0  0  0  0  0  0  0  0  0  0
    3.7314   -0.0191    0.0000 C   0  0  0  0  0  0  0  0  0  0  0  0
    4.4459   -0.4317    0.0000 C   0  0  0  0  0  0  0  0  0  0  0  0
    4.6174   -1.2387    0.0000 C   0  0  0  0  0  0  0  0  0  0  0  0
    5.4378   -1.3249    0.0000 N   0  0  0  0  0  0  0  0  0  0  0  0
    5.8503   -2.0393    0.0000 C   0  0  0  0  0  0  0  0  0  0  0  0
    5.4378   -2.7538    0.0000 C   0  0  0  0  0  0  0  0  0  0  0  0
    4.6129   -2.7538    0.0000 O   0  0  0  0  0  0  0  0  0  0  0  0
    5.8503   -3.4683    0.0000 N   0  0  0  0  0  0  0  0  0  0  0  0
    6.6752   -3.4683    0.0000 C   0  0  0  0  0  0  0  0  0  0  0  0
    7.0878   -4.1827    0.0000 O   0  0  0  0  0  0  0  0  0  0  0  0
    7.0878   -2.7538    0.0000 C   0  0  0  0  0  0  0  0  0  0  0  0
    6.6752   -2.0393    0.0000 C   0  0  0  0  0  0  0  0  0  0  0  0
    5.7734   -0.5712    0.0000 C   0  0  0  0  0  0  0  0  0  0  0  0
    6.5803   -0.3998    0.0000 O   0  0  0  0  0  0  0  0  0  0  0  0
    5.1603   -0.0191    0.0000 C   0  0  0  0  0  0  0  0  0  0  0  0
    5.1603    0.8056    0.0000 C   0  0  0  0  0  0  0  0  0  0  0  0
    4.4459    1.2181    0.0000 C   0  0  0  0  0  0  0  0  0  0  0  0
    2.3026    0.8056    0.0000 C   0  0  0  0  0  0  0  0  0  0  0  0
    1.5881    1.2181    0.0000 C   0  0  0  0  0  0  0  0  0  0  0  0
   -2.2798    1.8014    0.0000 O   0  0  0  0  0  0  0  0  0  0  0  0
   -4.3903    3.0912    0.0000 C   0  0  0  0  0  0  0  0  0  0  0  0
   -4.3781    3.9160    0.0000 N   0  0  0  0  0  0  0  0  0  0  0  0
   -5.1588    4.1827    0.0000 N   0  0  0  0  0  0  0  0  0  0  0  0
   -6.4785    3.5349    0.0000 C   0  0  0  0  0  0  0  0  0  0  0  0
   -5.6536    3.5226    0.0000 C   0  0  0  0  0  0  0  0  0  0  0  0
   -5.1788    2.8480    0.0000 N   0  0  0  0  0  0  0  0  0  0  0  0
   -5.4802    2.0801    0.0000 C   0  0  0  0  0  0  0  0  0  0  0  0
   -6.2871    1.9085    0.0000 S   0  0  0  0  0  0  0  0  0  0  0  0
   -7.0878    0.6756    0.0000 C   0  0  0  0  0  0  0  0  0  0  0  0
   -6.3733    1.0881    0.0000 C   0  0  0  0  0  0  0  0  0  0  0  0
   -5.4482   -0.0543    0.0000 C   0  0  0  0  0  0  0  0  0  0  0  0
   -5.6195    0.7524    0.0000 C   0  0  0  0  0  0  0  0  0  0  0  0
   -5.0676    1.3656    0.0000 C   0  0  0  0  0  0  0  0  0  0  0  0
   -3.2044    0.2707    0.0000 C   0  0  0  0  0  0  0  0  0  0  0  0
   -2.9613   -0.5174    0.0000 C   0  0  0  0  0  0  0  0  0  0  0  0
   -3.2793   -1.9105    0.0000 Cl  0  0  0  0  0  0  0  0  0  0  0  0
   -3.5224   -1.1222    0.0000 C   0  0  0  0  0  0  0  0  0  0  0  0
   -4.3267   -0.9386    0.0000 C   0  0  0  0  0  0  0  0  0  0  0  0
   -4.5698   -0.1503    0.0000 C   0  0  0  0  0  0  0  0  0  0  0  0
   -4.0088    0.4543    0.0000 C   0  0  0  0  0  0  0  0  0  0  0  0
   -4.2519    1.2427    0.0000 C   0  0  0  0  0  0  0  0  0  0  0  0
   -3.6472    1.8037    0.0000 N   0  0  0  0  0  0  0  0  0  0  0  0
   -3.7088    2.6264    0.0000 C   0  0  0  0  0  0  0  0  0  0  0  0
   -2.9944    3.0389    0.0000 C   0  0  0  0  0  0  0  0  0  0  0  0
   -2.2798    2.6264    0.0000 C   0  0  0  0  0  0  0  0  0  0  0  0
   -1.5654    3.0389    0.0000 N   0  0  0  0  0  0  0  0  0  0  0  0
   -0.8511    2.6264    0.0000 C   0  0  0  0  0  0  0  0  0  0  0  0
    1.3746    2.8399    0.0000 C   0  0  0  0  0  0  0  0  0  0  0  0
    0.7912    1.8296    0.0000 C   0  0  0  0  0  0  0  0  0  0  0  0
    0.5777    2.6264    0.0000 N   0  0  0  0  0  0  0  0  0  0  0  0
   -0.1366    3.0389    0.0000 C   0  0  0  0  0  0  0  0  0  0  0  0
  1  2  1  0
  3  2  1  0
  4  3  1  0
  4  5  1  0
  5  6  1  0
  6  7  2  0
  7  8  1  0
  9  8  1  0
  9 10  1  0
 10 11  1  0
 11 12  2  0
 11 13  1  0
 13 14  1  0
 14 15  2  0
 14 16  1  0
 16 17  1  0
 17 10  1  0
 18  9  1  0
 18 19  2  0
 20 18  1  0
  7 20  1  0
 20 21  2  0
 21 22  1  0
 22  5  2  0
 23  4  1  0
  1 24  1  0
 24 23  1  0
 26 27  2  0
 28 27  1  0
 30 29  1  0
 30 28  2  0
 31 30  1  0
 26 31  1  0
 31 32  1  0
 32 33  1  0
 35 34  1  0
 35 33  1  0
 37 36  1  0
 37 35  2  0
 38 37  1  0
 38 32  2  0
 40 39  1  0
 42 41  1  0
 42 40  2  0
 43 42  1  0
 44 43  2  0
 45 44  1  0
 39 45  2  0
 46 45  1  0
 46 38  1  0
 47 46  2  0
 48 47  1  0
 26 48  1  0
 48 49  1  6
 50 49  1  0
 50 25  2  0
 50 51  1  0
 51 52  1  0
  1 53  1  0
 54  1  1  0
 55 54  1  0
 55 53  1  0
 55 56  1  0
 52 56  1  0
M  END
> <From>
www.bindingDB.org

> <BindingDB Reactant_set_id>
51570531

> <Ligand InChI>
InChI=1S/C42H45ClN8O4S/c1-23-24(2)56-41-36(23)37(27-4-7-30(43)8-5-27)45-32(38-48-47-25(3)51(38)41)19-35(53)44-16-17-49-21-42(22-49)14-12-26(13-15-42)28-6-9-31-29(18-28)20-50(40(31)55)33-10-11-34(52)46-39(33)54/h4-9,18,26,32-33H,10-17,19-22H2,1-3H3,(H,44,53)(H,46,52,54)/t32-,33?/m0/s1

> <Ligand InChI Key>
JFSVSFBLGUFRRC-JEFWXSHNSA-N

> <BindingDB MonomerID>
50631635

> <BindingDB Ligand Name>
CHEMBL5432640

> <Target Name>
Protein cereblon

> <Target Source Organism According to Curator or DataSource>
Homo sapiens

> <Ki (nM)>


> <IC50 (nM)>
 287

> <Kd (nM)>


> <EC50 (nM)>


> <kon (M-1-s-1)>


> <koff (s-1)>


> <pH>


> <Temp C>


> <Curation/DataSource>
ChEMBL

> <Article DOI>
10.1021/acs.jmedchem.3c01613

> <BindingDB Entry DOI>
10.7270/Q2T1583Z

> <PMID>
38096359

> <PubChem AID>


> <Patent Number>


> <Authors>
Arndt, CM; Bitai, J; Brunner, J; Opatz, T; Martinelli, P; Gollner, A; Sokol, KR; Krumb, M

> <Date of publication>
12/28/2023

> <Date in BindingDB>
12/21/2024

> <Institution>
Boehringer Ingelheim Rcv

> <Link to Ligand in BindingDB>
http://www.bindingdb.org/bind/chemsearch/marvin/MolStructure.jsp?monomerid=50631635

> <Link to Ligand-Target Pair in BindingDB>
http://www.bindingdb.org/jsp/dbsearch/PrimarySearch_ki.jsp?energyterm=kJ/mole&tag=pol&polymerid=50007050&target=Protein+cereblon&column=ki&startPg=0&Increment=50&submit=Search

> <Link to Ligand-Target Pair in BindingDB>
http://www.bindingdb.org/jsp/dbsearch/PrimarySearch_ki.jsp?energyterm=kJ/mole&tag=r21&monomerid=50631635&enzyme=Protein+cereblon&column=ki&startPg=0&Increment=50&submit=Search

> <Ligand HET ID in PDB>


> <PDB ID(s) for Ligand-Target Complex>


> <PubChem CID of Ligand>
172467764

> <PubChem SID of Ligand>
505035969

> <ChEBI ID of Ligand>


> <ChEMBL ID of Ligand>


> <DrugBank ID of Ligand>


> <IUPHAR_GRAC ID of Ligand>


> <KEGG ID of Ligand>


> <ZINC ID of Ligand>


> <Number of Protein Chains in Target (bigger than 1 implies a multichain complex)>
1

> <BindingDB Target Chain Sequence>
MAGEGDQQDAAHNMGNHLPLLPAESEEEDEMEVEDQDSKEAKKPNIINFDTSLPTSHTYLGADMEEFHGRTLHDDDSCQVIPVLPQVMMILIPGQTLPLQLFHPQEVSMVRNLIQKDRTFAVLAYSNVQEREAQFGTTAEIYAYREEQDFGIEIVKVKAIGRQRFKVLELRTQSDGIQQAKVQILPECVLPSTMSAVQLESLNKCQIFPSKPVSREDQCSYKWWQKYQKRKFHCANLTSWPRWLYSLYDAETLMDRIKKQLREWDENLKDDSLPSNPIDFSYRVAACLPIDDVLRIQLLKIGSAIQRLRCELDIMNKCTSLCCKQCQETEITTKNEIFSLSLCGPMAAYVNPHGYVHETLTVYKACNLNLIGRPSTEHSWFPGYAWTVAQCKICASHIGWKFTATKKDMSPQKFWGLTRSALLPTIPDTEDEISPDKVILCL

> <PDB ID(s) of Target Chain>
8TNR,8TNQ,8TNP,8D81,8D80,8D7Z,8D7Y,8D7X,8D7W,8D7V,8D7U,8CVP,9DQD,8UH6,6BOY,6BNB,6BN9,6BN8,6BN7,6XK9,6UML,5V3O,5HXB,7U8F,8OJH,8OIZ,7LPS,4TZ4,9DJX,9DJT,8U17,8U16,8U15,8TZX,8DEY,9CUO,4M91

> <UniProt (SwissProt) Recommended Name of Target Chain>
Protein cereblon

> <UniProt (SwissProt) Entry Name of Target Chain>
CRBN_HUMAN

> <UniProt (SwissProt) Primary ID of Target Chain>
Q96SW2

> <UniProt (SwissProt) Secondary ID(s) of Target Chain>
B2R6H4 C9IZA9 C9JAH6 Q6AI62 Q6NVZ0 Q9UHW4

> <UniProt (SwissProt) Alternative ID(s) of Target Chain>


> <UniProt (TrEMBL) Submitted Name of Target Chain>


> <UniProt (TrEMBL) Entry Name of Target Chain>


> <UniProt (TrEMBL) Primary ID of Target Chain>


> <UniProt (TrEMBL) Secondary ID(s) of Target Chain>


> <UniProt (TrEMBL) Alternative ID(s) of Target Chain>


$$$$
 
     RDKit          2D

 55 62  0  0  0  0  0  0  0  0999 V2000
    1.3529    5.3295    0.0000 C   0  0  0  0  0  0  0  0  0  0  0  0
    2.0632    4.9099    0.0000 C   0  0  0  0  0  0  0  0  0  0  0  0
    2.0549    4.0849    0.0000 C   0  0  0  0  0  0  0  0  0  0  0  0
    2.8369    3.8221    0.0000 C   0  0  0  0  0  0  0  0  0  0  0  0
    3.3285    4.4846    0.0000 N   0  0  0  0  0  0  0  0  0  0  0  0
    2.8503    5.1569    0.0000 C   0  0  0  0  0  0  0  0  0  0  0  0
    3.1132    5.9389    0.0000 O   0  0  0  0  0  0  0  0  0  0  0  0
    4.1535    4.4762    0.0000 C   0  0  0  0  0  0  0  0  0  0  0  0
    4.5731    5.1866    0.0000 C   0  0  0  0  0  0  0  0  0  0  0  0
    5.3980    5.1783    0.0000 C   0  0  0  0  0  0  0  0  0  0  0  0
    5.8032    4.4597    0.0000 C   0  0  0  0  0  0  0  0  0  0  0  0
    6.6283    4.4513    0.0000 O   0  0  0  0  0  0  0  0  0  0  0  0
    5.3837    3.7494    0.0000 N   0  0  0  0  0  0  0  0  0  0  0  0
    4.5587    3.7578    0.0000 C   0  0  0  0  0  0  0  0  0  0  0  0
    4.1390    3.0475    0.0000 O   0  0  0  0  0  0  0  0  0  0  0  0
    1.3363    3.6797    0.0000 C   0  0  0  0  0  0  0  0  0  0  0  0
    0.6260    4.0993    0.0000 C   0  0  0  0  0  0  0  0  0  0  0  0
   -0.0925    3.6940    0.0000 C   0  0  0  0  0  0  0  0  0  0  0  0
   -0.1008    2.8691    0.0000 C   0  0  0  0  0  0  0  0  0  0  0  0
   -0.8193    2.4638    0.0000 C   0  0  0  0  0  0  0  0  0  0  0  0
   -1.5296    2.8835    0.0000 N   0  0  0  0  0  0  0  0  0  0  0  0
   -2.2482    2.4782    0.0000 C   0  0  0  0  0  0  0  0  0  0  0  0
   -2.2565    1.6533    0.0000 C   0  0  0  0  0  0  0  0  0  0  0  0
   -2.9751    1.2480    0.0000 C   0  0  0  0  0  0  0  0  0  0  0  0
   -2.9834    0.4230    0.0000 C   0  0  0  0  0  0  0  0  0  0  0  0
   -3.7020    0.0178    0.0000 N   0  0  0  0  0  0  0  0  0  0  0  0
   -3.7103   -0.8071    0.0000 C   0  0  0  0  0  0  0  0  0  0  0  0
   -4.4288   -1.2124    0.0000 C   0  0  0  0  0  0  0  0  0  0  0  0
   -4.4371   -2.0374    0.0000 C   0  0  0  0  0  0  0  0  0  0  0  0
   -3.6975   -2.4028    0.0000 N   0  0  0  0  0  0  0  0  0  0  0  0
   -3.5220   -3.2089    0.0000 C   0  0  0  0  0  0  0  0  0  0  0  0
   -2.7195   -3.4005    0.0000 C   0  0  0  0  0  0  0  0  0  0  0  0
   -2.4844   -4.1913    0.0000 C   0  0  0  0  0  0  0  0  0  0  0  0
   -1.6819   -4.3830    0.0000 C   0  0  0  0  0  0  0  0  0  0  0  0
   -1.1148   -3.7839    0.0000 C   0  0  0  0  0  0  0  0  0  0  0  0
   -0.3123   -3.9755    0.0000 Cl  0  0  0  0  0  0  0  0  0  0  0  0
   -1.3500   -2.9931    0.0000 C   0  0  0  0  0  0  0  0  0  0  0  0
   -2.1524   -2.8015    0.0000 C   0  0  0  0  0  0  0  0  0  0  0  0
   -4.0428   -3.8486    0.0000 C   0  0  0  0  0  0  0  0  0  0  0  0
   -3.7958   -4.6358    0.0000 C   0  0  0  0  0  0  0  0  0  0  0  0
   -3.0137   -4.8986    0.0000 C   0  0  0  0  0  0  0  0  0  0  0  0
   -4.4682   -5.1139    0.0000 C   0  0  0  0  0  0  0  0  0  0  0  0
   -4.4765   -5.9389    0.0000 C   0  0  0  0  0  0  0  0  0  0  0  0
   -5.1307   -4.6223    0.0000 S   0  0  0  0  0  0  0  0  0  0  0  0
   -4.8678   -3.8404    0.0000 C   0  0  0  0  0  0  0  0  0  0  0  0
   -5.3757   -3.1902    0.0000 N   0  0  0  0  0  0  0  0  0  0  0  0
   -6.1980   -3.2559    0.0000 C   0  0  0  0  0  0  0  0  0  0  0  0
   -6.6283   -3.9598    0.0000 C   0  0  0  0  0  0  0  0  0  0  0  0
   -6.5147   -2.4940    0.0000 N   0  0  0  0  0  0  0  0  0  0  0  0
   -5.8879   -1.9575    0.0000 N   0  0  0  0  0  0  0  0  0  0  0  0
   -5.1840   -2.3878    0.0000 C   0  0  0  0  0  0  0  0  0  0  0  0
   -3.0000   -1.2267    0.0000 O   0  0  0  0  0  0  0  0  0  0  0  0
   -1.5213    3.7084    0.0000 C   0  0  0  0  0  0  0  0  0  0  0  0
   -0.8027    4.1137    0.0000 C   0  0  0  0  0  0  0  0  0  0  0  0
    0.6344    4.9243    0.0000 C   0  0  0  0  0  0  0  0  0  0  0  0
  2  1  2  0
  3  2  1  0
  3  4  1  0
  5  4  1  0
  2  6  1  0
  6  5  1  0
  6  7  2  0
  5  8  1  0
  9  8  1  0
 10  9  1  0
 11 10  1  0
 11 12  2  0
 13 11  1  0
 14 13  1  0
  8 14  1  0
 14 15  2  0
 16  3  2  0
 17 16  1  0
 18 17  1  0
 18 19  1  0
 20 19  1  0
 20 21  1  0
 21 22  1  0
 23 22  1  0
 24 23  1  0
 25 24  1  0
 26 25  1  0
 27 26  1  0
 27 28  1  0
 29 28  1  6
 29 30  1  0
 30 31  2  0
 31 32  1  0
 32 33  1  0
 33 34  2  0
 34 35  1  0
 35 36  1  0
 35 37  2  0
 37 38  1  0
 38 32  2  0
 31 39  1  0
 39 40  1  0
 40 41  1  0
 40 42  2  0
 42 43  1  0
 42 44  1  0
 45 44  1  0
 39 45  2  0
 46 45  1  0
 46 47  1  0
 47 48  1  0
 47 49  2  0
 49 50  1  0
 51 50  2  0
 51 46  1  0
 51 29  1  0
 27 52  2  0
 53 21  1  0
 54 53  1  0
 18 54  1  0
 55 17  2  0
  1 55  1  0
M  END
> <From>
www.bindingDB.org

> <BindingDB Reactant_set_id>
51570521

> <Ligand InChI>
InChI=1S/C41H45ClN8O4S/c1-23-24(2)55-41-36(23)37(27-6-9-30(42)10-7-27)44-32(38-47-46-25(3)50(38)41)21-35(52)43-16-4-5-17-48-18-14-26(15-19-48)28-8-11-31-29(20-28)22-49(40(31)54)33-12-13-34(51)45-39(33)53/h6-11,20,26,32-33H,4-5,12-19,21-22H2,1-3H3,(H,43,52)(H,45,51,53)/t32-,33?/m0/s1

> <Ligand InChI Key>
FOTJPEPDXXOTQF-JEFWXSHNSA-N

> <BindingDB MonomerID>
50631625

> <BindingDB Ligand Name>
CHEMBL5422650

> <Target Name>
Protein cereblon

> <Target Source Organism According to Curator or DataSource>
Homo sapiens

> <Ki (nM)>


> <IC50 (nM)>
 292

> <Kd (nM)>


> <EC50 (nM)>


> <kon (M-1-s-1)>


> <koff (s-1)>


> <pH>


> <Temp C>


> <Curation/DataSource>
ChEMBL

> <Article DOI>
10.1021/acs.jmedchem.3c01613

> <BindingDB Entry DOI>
10.7270/Q2T1583Z

> <PMID>
38096359

> <PubChem AID>


> <Patent Number>


> <Authors>
Arndt, CM; Bitai, J; Brunner, J; Opatz, T; Martinelli, P; Gollner, A; Sokol, KR; Krumb, M

> <Date of publication>
12/28/2023

> <Date in BindingDB>
12/21/2024

> <Institution>
Boehringer Ingelheim Rcv

> <Link to Ligand in BindingDB>
http://www.bindingdb.org/bind/chemsearch/marvin/MolStructure.jsp?monomerid=50631625

> <Link to Ligand-Target Pair in BindingDB>
http://www.bindingdb.org/jsp/dbsearch/PrimarySearch_ki.jsp?energyterm=kJ/mole&tag=pol&polymerid=50007050&target=Protein+cereblon&column=ki&startPg=0&Increment=50&submit=Search

> <Link to Ligand-Target Pair in BindingDB>
http://www.bindingdb.org/jsp/dbsearch/PrimarySearch_ki.jsp?energyterm=kJ/mole&tag=r21&monomerid=50631625&enzyme=Protein+cereblon&column=ki&startPg=0&Increment=50&submit=Search

> <Ligand HET ID in PDB>


> <PDB ID(s) for Ligand-Target Complex>


> <PubChem CID of Ligand>
172457845

> <PubChem SID of Ligand>
505035959

> <ChEBI ID of Ligand>


> <ChEMBL ID of Ligand>


> <DrugBank ID of Ligand>


> <IUPHAR_GRAC ID of Ligand>


> <KEGG ID of Ligand>


> <ZINC ID of Ligand>


> <Number of Protein Chains in Target (bigger than 1 implies a multichain complex)>
1

> <BindingDB Target Chain Sequence>
MAGEGDQQDAAHNMGNHLPLLPAESEEEDEMEVEDQDSKEAKKPNIINFDTSLPTSHTYLGADMEEFHGRTLHDDDSCQVIPVLPQVMMILIPGQTLPLQLFHPQEVSMVRNLIQKDRTFAVLAYSNVQEREAQFGTTAEIYAYREEQDFGIEIVKVKAIGRQRFKVLELRTQSDGIQQAKVQILPECVLPSTMSAVQLESLNKCQIFPSKPVSREDQCSYKWWQKYQKRKFHCANLTSWPRWLYSLYDAETLMDRIKKQLREWDENLKDDSLPSNPIDFSYRVAACLPIDDVLRIQLLKIGSAIQRLRCELDIMNKCTSLCCKQCQETEITTKNEIFSLSLCGPMAAYVNPHGYVHETLTVYKACNLNLIGRPSTEHSWFPGYAWTVAQCKICASHIGWKFTATKKDMSPQKFWGLTRSALLPTIPDTEDEISPDKVILCL

> <PDB ID(s) of Target Chain>
8TNR,8TNQ,8TNP,8D81,8D80,8D7Z,8D7Y,8D7X,8D7W,8D7V,8D7U,8CVP,9DQD,8UH6,6BOY,6BNB,6BN9,6BN8,6BN7,6XK9,6UML,5V3O,5HXB,7U8F,8OJH,8OIZ,7LPS,4TZ4,9DJX,9DJT,8U17,8U16,8U15,8TZX,8DEY,9CUO,4M91

> <UniProt (SwissProt) Recommended Name of Target Chain>
Protein cereblon

> <UniProt (SwissProt) Entry Name of Target Chain>
CRBN_HUMAN

> <UniProt (SwissProt) Primary ID of Target Chain>
Q96SW2

> <UniProt (SwissProt) Secondary ID(s) of Target Chain>
B2R6H4 C9IZA9 C9JAH6 Q6AI62 Q6NVZ0 Q9UHW4

> <UniProt (SwissProt) Alternative ID(s) of Target Chain>


> <UniProt (TrEMBL) Submitted Name of Target Chain>


> <UniProt (TrEMBL) Entry Name of Target Chain>


> <UniProt (TrEMBL) Primary ID of Target Chain>


> <UniProt (TrEMBL) Secondary ID(s) of Target Chain>


> <UniProt (TrEMBL) Alternative ID(s) of Target Chain>


$$$$
 
     RDKit          2D

 50 57  0  0  0  0  0  0  0  0999 V2000
    1.4796    3.2695    0.0000 C   0  0  0  0  0  0  0  0  0  0  0  0
    2.1842    2.8403    0.0000 C   0  0  0  0  0  0  0  0  0  0  0  0
    2.1643    2.0179    0.0000 C   0  0  0  0  0  0  0  0  0  0  0  0
    1.4403    1.6221    0.0000 C   0  0  0  0  0  0  0  0  0  0  0  0
    0.7382    2.0477    0.0000 C   0  0  0  0  0  0  0  0  0  0  0  0
    0.7527    2.8721    0.0000 C   0  0  0  0  0  0  0  0  0  0  0  0
    2.9400    1.7451    0.0000 C   0  0  0  0  0  0  0  0  0  0  0  0
    2.9722    3.0754    0.0000 C   0  0  0  0  0  0  0  0  0  0  0  0
    3.4394    2.3985    0.0000 N   0  0  0  0  0  0  0  0  0  0  0  0
    3.1852    3.8700    0.0000 O   0  0  0  0  0  0  0  0  0  0  0  0
    4.2619    2.3985    0.0000 C   0  0  0  0  0  0  0  0  0  0  0  0
    4.6733    3.1107    0.0000 C   0  0  0  0  0  0  0  0  0  0  0  0
    5.4959    3.1107    0.0000 C   0  0  0  0  0  0  0  0  0  0  0  0
    5.9071    2.3984    0.0000 C   0  0  0  0  0  0  0  0  0  0  0  0
    5.4959    1.6861    0.0000 N   0  0  0  0  0  0  0  0  0  0  0  0
    4.6733    1.6861    0.0000 C   0  0  0  0  0  0  0  0  0  0  0  0
    4.2619    0.9737    0.0000 O   0  0  0  0  0  0  0  0  0  0  0  0
    6.7298    2.3984    0.0000 O   0  0  0  0  0  0  0  0  0  0  0  0
    0.0259    1.6364    0.0000 C   0  0  0  0  0  0  0  0  0  0  0  0
    0.0259    0.8139    0.0000 C   0  0  0  0  0  0  0  0  0  0  0  0
   -0.6864    0.4025    0.0000 C   0  0  0  0  0  0  0  0  0  0  0  0
   -1.3988    0.8139    0.0000 N   0  0  0  0  0  0  0  0  0  0  0  0
   -1.3988    1.6365    0.0000 C   0  0  0  0  0  0  0  0  0  0  0  0
   -0.6864    2.0477    0.0000 C   0  0  0  0  0  0  0  0  0  0  0  0
   -2.1113    0.4025    0.0000 C   0  0  0  0  0  0  0  0  0  0  0  0
   -2.1113   -0.4200    0.0000 O   0  0  0  0  0  0  0  0  0  0  0  0
   -2.8236    0.8139    0.0000 C   0  0  0  0  0  0  0  0  0  0  0  0
   -3.5360    0.4025    0.0000 C   0  0  0  0  0  0  0  0  0  0  0  0
   -4.2599    0.7952    0.0000 C   0  0  0  0  0  0  0  0  0  0  0  0
   -5.0174    0.4736    0.0000 N   0  0  0  0  0  0  0  0  0  0  0  0
   -5.2303   -0.3209    0.0000 C   0  0  0  0  0  0  0  0  0  0  0  0
   -4.7577   -0.9859    0.0000 C   0  0  0  0  0  0  0  0  0  0  0  0
   -3.9381   -1.0217    0.0000 C   0  0  0  0  0  0  0  0  0  0  0  0
   -3.3947   -0.4029    0.0000 N   0  0  0  0  0  0  0  0  0  0  0  0
   -4.3316    1.6150    0.0000 N   0  0  0  0  0  0  0  0  0  0  0  0
   -5.5573    1.0947    0.0000 C   0  0  0  0  0  0  0  0  0  0  0  0
   -5.1334    1.8001    0.0000 N   0  0  0  0  0  0  0  0  0  0  0  0
   -3.5268   -1.7341    0.0000 C   0  0  0  0  0  0  0  0  0  0  0  0
   -6.3800    1.0947    0.0000 C   0  0  0  0  0  0  0  0  0  0  0  0
   -6.0089   -0.5649    0.0000 S   0  0  0  0  0  0  0  0  0  0  0  0
   -5.2441   -1.6410    0.0000 C   0  0  0  0  0  0  0  0  0  0  0  0
   -6.0174   -1.3807    0.0000 C   0  0  0  0  0  0  0  0  0  0  0  0
   -6.7298   -1.7920    0.0000 C   0  0  0  0  0  0  0  0  0  0  0  0
   -5.0312   -2.4355    0.0000 C   0  0  0  0  0  0  0  0  0  0  0  0
   -2.7041   -1.7343    0.0000 C   0  0  0  0  0  0  0  0  0  0  0  0
   -2.2947   -2.4450    0.0000 C   0  0  0  0  0  0  0  0  0  0  0  0
   -2.7061   -3.1576    0.0000 C   0  0  0  0  0  0  0  0  0  0  0  0
   -3.5247   -3.1591    0.0000 C   0  0  0  0  0  0  0  0  0  0  0  0
   -3.9399   -2.4495    0.0000 C   0  0  0  0  0  0  0  0  0  0  0  0
   -2.2948   -3.8700    0.0000 Cl  0  0  0  0  0  0  0  0  0  0  0  0
  2  1  2  0
  3  2  1  0
  4  3  2  0
  5  4  1  0
  1  6  1  0
  6  5  2  0
  3  7  1  0
  2  8  1  0
  8  9  1  0
  9  7  1  0
  8 10  2  0
  9 11  1  0
 12 11  1  0
 13 12  1  0
 14 13  1  0
 15 14  1  0
 16 15  1  0
 11 16  1  0
 16 17  2  0
 14 18  2  0
 19  5  1  0
 19 20  1  0
 21 20  1  0
 22 21  1  0
 23 22  1  0
 19 24  1  0
 24 23  1  0
 22 25  1  0
 25 26  2  0
 25 27  1  0
 28 27  1  6
 29 28  1  0
 29 30  1  0
 30 31  1  0
 32 31  2  0
 33 32  1  0
 34 33  2  0
 28 34  1  0
 29 35  2  0
 30 36  1  0
 36 37  2  0
 37 35  1  0
 33 38  1  0
 36 39  1  0
 31 40  1  0
 32 41  1  0
 41 42  2  0
 42 40  1  0
 42 43  1  0
 41 44  1  0
 45 38  2  0
 46 45  1  0
 47 46  2  0
 48 47  1  0
 49 48  2  0
 38 49  1  0
 47 50  1  0
M  END
> <From>
www.bindingDB.org

> <BindingDB Reactant_set_id>
51570518

> <Ligand InChI>
InChI=1S/C37H36ClN7O4S/c1-19-20(2)50-37-32(19)33(23-4-7-26(38)8-5-23)39-28(34-42-41-21(3)45(34)37)17-31(47)43-14-12-22(13-15-43)24-6-9-27-25(16-24)18-44(36(27)49)29-10-11-30(46)40-35(29)48/h4-9,16,22,28-29H,10-15,17-18H2,1-3H3,(H,40,46,48)/t28-,29?/m0/s1

> <Ligand InChI Key>
WXSOTMXNHJTFKS-XLTVJXRZSA-N

> <BindingDB MonomerID>
50631622

> <BindingDB Ligand Name>
CHEMBL5394825

> <Target Name>
Protein cereblon

> <Target Source Organism According to Curator or DataSource>
Homo sapiens

> <Ki (nM)>


> <IC50 (nM)>
 302

> <Kd (nM)>


> <EC50 (nM)>


> <kon (M-1-s-1)>


> <koff (s-1)>


> <pH>


> <Temp C>


> <Curation/DataSource>
ChEMBL

> <Article DOI>
10.1021/acs.jmedchem.3c01613

> <BindingDB Entry DOI>
10.7270/Q2T1583Z

> <PMID>
38096359

> <PubChem AID>


> <Patent Number>


> <Authors>
Arndt, CM; Bitai, J; Brunner, J; Opatz, T; Martinelli, P; Gollner, A; Sokol, KR; Krumb, M

> <Date of publication>
12/28/2023

> <Date in BindingDB>
12/21/2024

> <Institution>
Boehringer Ingelheim Rcv

> <Link to Ligand in BindingDB>
http://www.bindingdb.org/bind/chemsearch/marvin/MolStructure.jsp?monomerid=50631622

> <Link to Ligand-Target Pair in BindingDB>
http://www.bindingdb.org/jsp/dbsearch/PrimarySearch_ki.jsp?energyterm=kJ/mole&tag=pol&polymerid=50007050&target=Protein+cereblon&column=ki&startPg=0&Increment=50&submit=Search

> <Link to Ligand-Target Pair in BindingDB>
http://www.bindingdb.org/jsp/dbsearch/PrimarySearch_ki.jsp?energyterm=kJ/mole&tag=r21&monomerid=50631622&enzyme=Protein+cereblon&column=ki&startPg=0&Increment=50&submit=Search

> <Ligand HET ID in PDB>


> <PDB ID(s) for Ligand-Target Complex>


> <PubChem CID of Ligand>
172444229

> <PubChem SID of Ligand>
505035956

> <ChEBI ID of Ligand>


> <ChEMBL ID of Ligand>


> <DrugBank ID of Ligand>


> <IUPHAR_GRAC ID of Ligand>


> <KEGG ID of Ligand>


> <ZINC ID of Ligand>


> <Number of Protein Chains in Target (bigger than 1 implies a multichain complex)>
1

> <BindingDB Target Chain Sequence>
MAGEGDQQDAAHNMGNHLPLLPAESEEEDEMEVEDQDSKEAKKPNIINFDTSLPTSHTYLGADMEEFHGRTLHDDDSCQVIPVLPQVMMILIPGQTLPLQLFHPQEVSMVRNLIQKDRTFAVLAYSNVQEREAQFGTTAEIYAYREEQDFGIEIVKVKAIGRQRFKVLELRTQSDGIQQAKVQILPECVLPSTMSAVQLESLNKCQIFPSKPVSREDQCSYKWWQKYQKRKFHCANLTSWPRWLYSLYDAETLMDRIKKQLREWDENLKDDSLPSNPIDFSYRVAACLPIDDVLRIQLLKIGSAIQRLRCELDIMNKCTSLCCKQCQETEITTKNEIFSLSLCGPMAAYVNPHGYVHETLTVYKACNLNLIGRPSTEHSWFPGYAWTVAQCKICASHIGWKFTATKKDMSPQKFWGLTRSALLPTIPDTEDEISPDKVILCL

> <PDB ID(s) of Target Chain>
8TNR,8TNQ,8TNP,8D81,8D80,8D7Z,8D7Y,8D7X,8D7W,8D7V,8D7U,8CVP,9DQD,8UH6,6BOY,6BNB,6BN9,6BN8,6BN7,6XK9,6UML,5V3O,5HXB,7U8F,8OJH,8OIZ,7LPS,4TZ4,9DJX,9DJT,8U17,8U16,8U15,8TZX,8DEY,9CUO,4M91

> <UniProt (SwissProt) Recommended Name of Target Chain>
Protein cereblon

> <UniProt (SwissProt) Entry Name of Target Chain>
CRBN_HUMAN

> <UniProt (SwissProt) Primary ID of Target Chain>
Q96SW2

> <UniProt (SwissProt) Secondary ID(s) of Target Chain>
B2R6H4 C9IZA9 C9JAH6 Q6AI62 Q6NVZ0 Q9UHW4

> <UniProt (SwissProt) Alternative ID(s) of Target Chain>


> <UniProt (TrEMBL) Submitted Name of Target Chain>


> <UniProt (TrEMBL) Entry Name of Target Chain>


> <UniProt (TrEMBL) Primary ID of Target Chain>


> <UniProt (TrEMBL) Secondary ID(s) of Target Chain>


> <UniProt (TrEMBL) Alternative ID(s) of Target Chain>


$$$$
 
     RDKit          2D

 27 30  0  0  0  0  0  0  0  0999 V2000
   -1.6320    0.3565    0.0000 C   0  0  0  0  0  0  0  0  0  0  0  0
   -0.9175    0.7690    0.0000 C   0  0  0  0  0  0  0  0  0  0  0  0
   -0.2031    0.3565    0.0000 C   0  0  0  0  0  0  0  0  0  0  0  0
   -0.2031   -0.4684    0.0000 C   0  0  0  0  0  0  0  0  0  0  0  0
   -0.9175   -0.8810    0.0000 C   0  0  0  0  0  0  0  0  0  0  0  0
   -1.6320   -0.4684    0.0000 C   0  0  0  0  0  0  0  0  0  0  0  0
    0.5815   -0.7234    0.0000 C   0  0  0  0  0  0  0  0  0  0  0  0
    1.0664   -0.0560    0.0000 N   0  0  0  0  0  0  0  0  0  0  0  0
    0.5815    0.6114    0.0000 C   0  0  0  0  0  0  0  0  0  0  0  0
    0.7950    1.4081    0.0000 O   0  0  0  0  0  0  0  0  0  0  0  0
    1.8912   -0.0560    0.0000 C   0  0  0  0  0  0  0  0  0  0  0  0
    2.3036    0.6582    0.0000 C   0  0  0  0  0  0  0  0  0  0  0  0
    3.1284    0.6582    0.0000 C   0  0  0  0  0  0  0  0  0  0  0  0
    3.5407   -0.0560    0.0000 C   0  0  0  0  0  0  0  0  0  0  0  0
    3.1284   -0.7703    0.0000 N   0  0  0  0  0  0  0  0  0  0  0  0
    2.3036   -0.7703    0.0000 C   0  0  0  0  0  0  0  0  0  0  0  0
    1.8912   -1.4845    0.0000 O   0  0  0  0  0  0  0  0  0  0  0  0
    4.3656   -0.0560    0.0000 O   0  0  0  0  0  0  0  0  0  0  0  0
   -2.3463    0.7689    0.0000 S   0  0  0  0  0  0  0  0  0  0  0  0
   -3.0606    0.3565    0.0000 N   0  0  0  0  0  0  0  0  0  0  0  0
   -1.9331    1.4845    0.0000 O   0  0  0  0  0  0  0  0  0  0  0  0
   -2.7579    1.4845    0.0000 O   0  0  0  0  0  0  0  0  0  0  0  0
   -3.1467   -0.4633    0.0000 C   0  0  0  0  0  0  0  0  0  0  0  0
   -3.9531   -0.6347    0.0000 C   0  0  0  0  0  0  0  0  0  0  0  0
   -4.3654    0.0792    0.0000 N   0  0  0  0  0  0  0  0  0  0  0  0
   -3.8137    0.6918    0.0000 C   0  0  0  0  0  0  0  0  0  0  0  0
   -4.3656   -1.3490    0.0000 F   0  0  0  0  0  0  0  0  0  0  0  0
  1  2  1  0
  3  2  2  0
  4  3  1  0
  5  4  2  0
  6  5  1  0
  1  6  2  0
  4  7  1  0
  8  7  1  0
  9  8  1  0
  3  9  1  0
  9 10  2  0
  8 11  1  0
 12 11  1  0
 13 12  1  0
 14 13  1  0
 15 14  1  0
 16 15  1  0
 11 16  1  0
 16 17  2  0
 14 18  2  0
  1 19  1  0
 19 20  1  0
 19 21  2  0
 19 22  2  0
 23 20  1  0
 23 24  2  0
 24 25  1  0
 25 26  2  0
 26 20  1  0
 24 27  1  0
M  END
> <From>
www.bindingDB.org

> <BindingDB Reactant_set_id>
51568400

> <Ligand InChI>
InChI=1S/C16H13FN4O5S/c17-13-7-20(8-18-13)27(25,26)10-2-1-9-6-21(16(24)11(9)5-10)12-3-4-14(22)19-15(12)23/h1-2,5,7-8,12H,3-4,6H2,(H,19,22,23)

> <Ligand InChI Key>
ILGQLADLOFGMQZ-UHFFFAOYSA-N

> <BindingDB MonomerID>
50630773

> <BindingDB Ligand Name>
CHEMBL5429393

> <Target Name>
Protein cereblon

> <Target Source Organism According to Curator or DataSource>
Homo sapiens

> <Ki (nM)>


> <IC50 (nM)>
 324

> <Kd (nM)>


> <EC50 (nM)>


> <kon (M-1-s-1)>


> <koff (s-1)>


> <pH>


> <Temp C>


> <Curation/DataSource>
ChEMBL

> <Article DOI>
10.1021/acsmedchemlett.3c00371

> <BindingDB Entry DOI>
10.7270/Q28D01RH

> <PMID>
37974938

> <PubChem AID>


> <Patent Number>


> <Authors>
Cruite, JT; Nowak, RP; Donovan, KA; Ficarro, SB; Huang, H; Liu, H; Liu, Y; Marto, JA; Metivier, RJ; Fischer, ES; Jones, LH

> <Date of publication>
11/9/2023

> <Date in BindingDB>
12/20/2024

> <Institution>
Dana-Farber Cancer Institute

> <Link to Ligand in BindingDB>
http://www.bindingdb.org/bind/chemsearch/marvin/MolStructure.jsp?monomerid=50630773

> <Link to Ligand-Target Pair in BindingDB>
http://www.bindingdb.org/jsp/dbsearch/PrimarySearch_ki.jsp?energyterm=kJ/mole&tag=pol&polymerid=50007050&target=Protein+cereblon&column=ki&startPg=0&Increment=50&submit=Search

> <Link to Ligand-Target Pair in BindingDB>
http://www.bindingdb.org/jsp/dbsearch/PrimarySearch_ki.jsp?energyterm=kJ/mole&tag=r21&monomerid=50630773&enzyme=Protein+cereblon&column=ki&startPg=0&Increment=50&submit=Search

> <Ligand HET ID in PDB>


> <PDB ID(s) for Ligand-Target Complex>


> <PubChem CID of Ligand>
168190708

> <PubChem SID of Ligand>
505048744

> <ChEBI ID of Ligand>


> <ChEMBL ID of Ligand>


> <DrugBank ID of Ligand>


> <IUPHAR_GRAC ID of Ligand>


> <KEGG ID of Ligand>


> <ZINC ID of Ligand>


> <Number of Protein Chains in Target (bigger than 1 implies a multichain complex)>
1

> <BindingDB Target Chain Sequence>
MAGEGDQQDAAHNMGNHLPLLPAESEEEDEMEVEDQDSKEAKKPNIINFDTSLPTSHTYLGADMEEFHGRTLHDDDSCQVIPVLPQVMMILIPGQTLPLQLFHPQEVSMVRNLIQKDRTFAVLAYSNVQEREAQFGTTAEIYAYREEQDFGIEIVKVKAIGRQRFKVLELRTQSDGIQQAKVQILPECVLPSTMSAVQLESLNKCQIFPSKPVSREDQCSYKWWQKYQKRKFHCANLTSWPRWLYSLYDAETLMDRIKKQLREWDENLKDDSLPSNPIDFSYRVAACLPIDDVLRIQLLKIGSAIQRLRCELDIMNKCTSLCCKQCQETEITTKNEIFSLSLCGPMAAYVNPHGYVHETLTVYKACNLNLIGRPSTEHSWFPGYAWTVAQCKICASHIGWKFTATKKDMSPQKFWGLTRSALLPTIPDTEDEISPDKVILCL

> <PDB ID(s) of Target Chain>
8TNR,8TNQ,8TNP,8D81,8D80,8D7Z,8D7Y,8D7X,8D7W,8D7V,8D7U,8CVP,9DQD,8UH6,6BOY,6BNB,6BN9,6BN8,6BN7,6XK9,6UML,5V3O,5HXB,7U8F,8OJH,8OIZ,7LPS,4TZ4,9DJX,9DJT,8U17,8U16,8U15,8TZX,8DEY,9CUO,4M91

> <UniProt (SwissProt) Recommended Name of Target Chain>
Protein cereblon

> <UniProt (SwissProt) Entry Name of Target Chain>
CRBN_HUMAN

> <UniProt (SwissProt) Primary ID of Target Chain>
Q96SW2

> <UniProt (SwissProt) Secondary ID(s) of Target Chain>
B2R6H4 C9IZA9 C9JAH6 Q6AI62 Q6NVZ0 Q9UHW4

> <UniProt (SwissProt) Alternative ID(s) of Target Chain>


> <UniProt (TrEMBL) Submitted Name of Target Chain>


> <UniProt (TrEMBL) Entry Name of Target Chain>


> <UniProt (TrEMBL) Primary ID of Target Chain>


> <UniProt (TrEMBL) Secondary ID(s) of Target Chain>


> <UniProt (TrEMBL) Alternative ID(s) of Target Chain>


$$$$

     RDKit          2D

 19 21  0  0  0  0  0  0  0  0999 V2000
   13.5127   -2.4445    0.0000 C   0  0  0  0  0  0  0  0  0  0  0  0
   13.5116   -3.2716    0.0000 C   0  0  0  0  0  0  0  0  0  0  0  0
   14.2260   -3.6842    0.0000 C   0  0  0  0  0  0  0  0  0  0  0  0
   14.2243   -2.0320    0.0000 C   0  0  0  0  0  0  0  0  0  0  0  0
   15.7302   -2.1825    0.0000 C   0  0  0  0  0  0  0  0  0  0  0  0
   14.9393   -2.4409    0.0000 C   0  0  0  0  0  0  0  0  0  0  0  0
   14.9418   -3.2737    0.0000 C   0  0  0  0  0  0  0  0  0  0  0  0
   15.7352   -3.5273    0.0000 C   0  0  0  0  0  0  0  0  0  0  0  0
   16.2204   -2.8504    0.0000 N   0  0  0  0  0  0  0  0  0  0  0  0
   15.9824   -1.3974    0.0000 O   0  0  0  0  0  0  0  0  0  0  0  0
   17.0434   -2.8503    0.0000 C   0  0  0  0  0  0  0  0  0  0  0  0
   17.4585   -3.5639    0.0000 C   0  0  0  0  0  0  0  0  0  0  0  0
   18.2794   -3.5612    0.0000 C   0  0  0  0  0  0  0  0  0  0  0  0
   18.6915   -2.8465    0.0000 C   0  0  0  0  0  0  0  0  0  0  0  0
   18.2764   -2.1329    0.0000 N   0  0  0  0  0  0  0  0  0  0  0  0
   17.4492   -2.1340    0.0000 C   0  0  0  0  0  0  0  0  0  0  0  0
   17.0336   -1.4219    0.0000 O   0  0  0  0  0  0  0  0  0  0  0  0
   19.5161   -2.8450    0.0000 O   0  0  0  0  0  0  0  0  0  0  0  0
   14.2217   -1.2074    0.0000 O   0  0  0  0  0  0  0  0  0  0  0  0
  1  2  2  0
  2  3  1  0
  3  7  2  0
  6  4  2  0
  4  1  1  0
  6  7  1  0
  5  6  1  0
  7  8  1  0
  8  9  1  0
  9  5  1  0
  5 10  2  0
 11 12  1  0
 11 16  1  0
 12 13  1  0
 13 14  1  0
 14 15  1  0
 15 16  1  0
  9 11  1  0
 16 17  2  0
 14 18  2  0
  4 19  1  0
M  END
> <From>
www.bindingDB.org

> <BindingDB Reactant_set_id>
51526247

> <Ligand InChI>
InChI=1S/C13H12N2O4/c16-9-3-1-2-7-6-15(13(19)11(7)9)8-4-5-10(17)14-12(8)18/h1-3,8,16H,4-6H2,(H,14,17,18)

> <Ligand InChI Key>
ZHINEOZMGPJDNM-UHFFFAOYSA-N

> <BindingDB MonomerID>
50614099

> <BindingDB Ligand Name>
CHEMBL2324704

> <Target Name>
Protein cereblon

> <Target Source Organism According to Curator or DataSource>
Human

> <Ki (nM)>


> <IC50 (nM)>
 337

> <Kd (nM)>


> <EC50 (nM)>


> <kon (M-1-s-1)>


> <koff (s-1)>


> <pH>


> <Temp C>


> <Curation/DataSource>
ChEMBL

> <Article DOI>


> <BindingDB Entry DOI>
10.7270/Q2V12923

> <PMID>
36970148

> <PubChem AID>


> <Patent Number>


> <Authors>
n/a

> <Date of publication>
3/22/2023

> <Date in BindingDB>
4/22/2024

> <Institution>
n/a

> <Link to Ligand in BindingDB>
http://www.bindingdb.org/bind/chemsearch/marvin/MolStructure.jsp?monomerid=50614099

> <Link to Ligand-Target Pair in BindingDB>
http://www.bindingdb.org/jsp/dbsearch/PrimarySearch_ki.jsp?energyterm=kJ/mole&tag=pol&polymerid=50007050&target=Protein+cereblon&column=ki&startPg=0&Increment=50&submit=Search

> <Link to Ligand-Target Pair in BindingDB>
http://www.bindingdb.org/jsp/dbsearch/PrimarySearch_ki.jsp?energyterm=kJ/mole&tag=r21&monomerid=50614099&enzyme=Protein+cereblon&column=ki&startPg=0&Increment=50&submit=Search

> <Ligand HET ID in PDB>


> <PDB ID(s) for Ligand-Target Complex>


> <PubChem CID of Ligand>
71517904

> <PubChem SID of Ligand>
494503847

> <ChEBI ID of Ligand>


> <ChEMBL ID of Ligand>


> <DrugBank ID of Ligand>


> <IUPHAR_GRAC ID of Ligand>


> <KEGG ID of Ligand>


> <ZINC ID of Ligand>


> <Number of Protein Chains in Target (bigger than 1 implies a multichain complex)>
1

> <BindingDB Target Chain Sequence>
MAGEGDQQDAAHNMGNHLPLLPAESEEEDEMEVEDQDSKEAKKPNIINFDTSLPTSHTYLGADMEEFHGRTLHDDDSCQVIPVLPQVMMILIPGQTLPLQLFHPQEVSMVRNLIQKDRTFAVLAYSNVQEREAQFGTTAEIYAYREEQDFGIEIVKVKAIGRQRFKVLELRTQSDGIQQAKVQILPECVLPSTMSAVQLESLNKCQIFPSKPVSREDQCSYKWWQKYQKRKFHCANLTSWPRWLYSLYDAETLMDRIKKQLREWDENLKDDSLPSNPIDFSYRVAACLPIDDVLRIQLLKIGSAIQRLRCELDIMNKCTSLCCKQCQETEITTKNEIFSLSLCGPMAAYVNPHGYVHETLTVYKACNLNLIGRPSTEHSWFPGYAWTVAQCKICASHIGWKFTATKKDMSPQKFWGLTRSALLPTIPDTEDEISPDKVILCL

> <PDB ID(s) of Target Chain>
4TZ4,5HXB,5V3O,6UML,6XK9,7LPS,7U8F,8CVP,8D7U,8D7V,8D7W,8D7X,8D7Y,8D7Z,8D80,8D81,8DEY,8OIZ,8OJH,8U15,8U16,8U17

> <UniProt (SwissProt) Recommended Name of Target Chain>
Protein cereblon

> <UniProt (SwissProt) Entry Name of Target Chain>
CRBN_HUMAN

> <UniProt (SwissProt) Primary ID of Target Chain>
Q96SW2

> <UniProt (SwissProt) Secondary ID(s) of Target Chain>
B2R6H4 C9IZA9 C9JAH6 Q6AI62 Q6NVZ0 Q9UHW4

> <UniProt (SwissProt) Alternative ID(s) of Target Chain>


> <UniProt (TrEMBL) Submitted Name of Target Chain>


> <UniProt (TrEMBL) Entry Name of Target Chain>


> <UniProt (TrEMBL) Primary ID of Target Chain>


> <UniProt (TrEMBL) Secondary ID(s) of Target Chain>


> <UniProt (TrEMBL) Alternative ID(s) of Target Chain>


$$$$

     RDKit          2D

 20 22  0  0  0  0  0  0  0  0999 V2000
    0.1292    0.0625    0.0000 N   0  0  0  0  0  0  0  0  0  0  0  0
   -0.3500    0.7333    0.0000 C   0  0  0  0  0  0  0  0  0  0  0  0
   -0.3500   -0.6000    0.0000 C   0  0  0  0  0  0  0  0  0  0  0  0
   -1.1375    0.4833    0.0000 C   0  0  0  0  0  0  0  0  0  0  0  0
   -1.1375   -0.3417    0.0000 C   0  0  0  0  0  0  0  0  0  0  0  0
    1.3500   -0.7167    0.0000 C   0  0  0  0  0  0  0  0  0  0  0  0
    2.1750   -0.7417    0.0000 N   0  0  0  0  0  0  0  0  0  0  0  0
    0.9625    0.0208    0.0000 C   0  0  0  0  0  0  0  0  0  0  0  0
    2.6167   -0.0417    0.0000 C   0  0  0  0  0  0  0  0  0  0  0  0
   -1.8500   -0.7542    0.0000 C   0  0  0  0  0  0  0  0  0  0  0  0
   -0.0958    1.5208    0.0000 O   0  0  0  0  0  0  0  0  0  0  0  0
   -0.1000   -1.3917    0.0000 O   0  0  0  0  0  0  0  0  0  0  0  0
    1.4000    0.7208    0.0000 C   0  0  0  0  0  0  0  0  0  0  0  0
   -1.8500    0.8958    0.0000 C   0  0  0  0  0  0  0  0  0  0  0  0
    0.9042   -1.4250    0.0000 O   0  0  0  0  0  0  0  0  0  0  0  0
    3.4417   -0.0667    0.0000 O   0  0  0  0  0  0  0  0  0  0  0  0
    2.2292    0.6833    0.0000 C   0  0  0  0  0  0  0  0  0  0  0  0
   -2.5625    0.4750    0.0000 C   0  0  0  0  0  0  0  0  0  0  0  0
   -2.5625   -0.3417    0.0000 C   0  0  0  0  0  0  0  0  0  0  0  0
   -3.2750    0.8958    0.0000 O   0  0  0  0  0  0  0  0  0  0  0  0
  2  1  1  0
  3  1  1  0
  4  2  1  0
  5  3  1  0
  6  8  1  0
  7  6  1  0
  8  1  1  0
  9 17  1  0
 10  5  2  0
 11  2  2  0
 12  3  2  0
 13  8  1  0
 14  4  2  0
 15  6  2  0
 16  9  2  0
 17 13  1  0
 18 14  1  0
 19 10  1  0
 20 18  1  0
  5  4  1  0
  9  7  1  0
 19 18  2  0
M  END
> <From>
www.bindingDB.org

> <BindingDB Reactant_set_id>
51526240

> <Ligand InChI>
InChI=1S/C13H10N2O5/c16-6-1-2-7-8(5-6)13(20)15(12(7)19)9-3-4-10(17)14-11(9)18/h1-2,5,9,16H,3-4H2,(H,14,17,18)

> <Ligand InChI Key>
LJBQRRQTZUJWRC-UHFFFAOYSA-N

> <BindingDB MonomerID>
50614094

> <BindingDB Ligand Name>
(+/-)-Hydroxythalidomide::CHEMBL182442

> <Target Name>
Protein cereblon

> <Target Source Organism According to Curator or DataSource>
Human

> <Ki (nM)>


> <IC50 (nM)>
 376

> <Kd (nM)>


> <EC50 (nM)>


> <kon (M-1-s-1)>


> <koff (s-1)>


> <pH>


> <Temp C>


> <Curation/DataSource>
ChEMBL

> <Article DOI>


> <BindingDB Entry DOI>
10.7270/Q2V12923

> <PMID>
36970148

> <PubChem AID>


> <Patent Number>


> <Authors>
n/a

> <Date of publication>
3/22/2023

> <Date in BindingDB>
4/22/2024

> <Institution>
n/a

> <Link to Ligand in BindingDB>
http://www.bindingdb.org/bind/chemsearch/marvin/MolStructure.jsp?monomerid=50614094

> <Link to Ligand-Target Pair in BindingDB>
http://www.bindingdb.org/jsp/dbsearch/PrimarySearch_ki.jsp?energyterm=kJ/mole&tag=pol&polymerid=50007050&target=Protein+cereblon&column=ki&startPg=0&Increment=50&submit=Search

> <Link to Ligand-Target Pair in BindingDB>
http://www.bindingdb.org/jsp/dbsearch/PrimarySearch_ki.jsp?energyterm=kJ/mole&tag=r21&monomerid=50614094&enzyme=Protein+cereblon&column=ki&startPg=0&Increment=50&submit=Search

> <Ligand HET ID in PDB>


> <PDB ID(s) for Ligand-Target Complex>


> <PubChem CID of Ligand>
5743568

> <PubChem SID of Ligand>
494503842

> <ChEBI ID of Ligand>


> <ChEMBL ID of Ligand>


> <DrugBank ID of Ligand>


> <IUPHAR_GRAC ID of Ligand>


> <KEGG ID of Ligand>


> <ZINC ID of Ligand>


> <Number of Protein Chains in Target (bigger than 1 implies a multichain complex)>
1

> <BindingDB Target Chain Sequence>
MAGEGDQQDAAHNMGNHLPLLPAESEEEDEMEVEDQDSKEAKKPNIINFDTSLPTSHTYLGADMEEFHGRTLHDDDSCQVIPVLPQVMMILIPGQTLPLQLFHPQEVSMVRNLIQKDRTFAVLAYSNVQEREAQFGTTAEIYAYREEQDFGIEIVKVKAIGRQRFKVLELRTQSDGIQQAKVQILPECVLPSTMSAVQLESLNKCQIFPSKPVSREDQCSYKWWQKYQKRKFHCANLTSWPRWLYSLYDAETLMDRIKKQLREWDENLKDDSLPSNPIDFSYRVAACLPIDDVLRIQLLKIGSAIQRLRCELDIMNKCTSLCCKQCQETEITTKNEIFSLSLCGPMAAYVNPHGYVHETLTVYKACNLNLIGRPSTEHSWFPGYAWTVAQCKICASHIGWKFTATKKDMSPQKFWGLTRSALLPTIPDTEDEISPDKVILCL

> <PDB ID(s) of Target Chain>
4TZ4,5HXB,5V3O,6UML,6XK9,7LPS,7U8F,8CVP,8D7U,8D7V,8D7W,8D7X,8D7Y,8D7Z,8D80,8D81,8DEY,8OIZ,8OJH,8U15,8U16,8U17

> <UniProt (SwissProt) Recommended Name of Target Chain>
Protein cereblon

> <UniProt (SwissProt) Entry Name of Target Chain>
CRBN_HUMAN

> <UniProt (SwissProt) Primary ID of Target Chain>
Q96SW2

> <UniProt (SwissProt) Secondary ID(s) of Target Chain>
B2R6H4 C9IZA9 C9JAH6 Q6AI62 Q6NVZ0 Q9UHW4

> <UniProt (SwissProt) Alternative ID(s) of Target Chain>


> <UniProt (TrEMBL) Submitted Name of Target Chain>


> <UniProt (TrEMBL) Entry Name of Target Chain>


> <UniProt (TrEMBL) Primary ID of Target Chain>


> <UniProt (TrEMBL) Secondary ID(s) of Target Chain>


> <UniProt (TrEMBL) Alternative ID(s) of Target Chain>


$$$$

     RDKit          2D

 19 21  0  0  0  0  0  0  0  0999 V2000
    4.9042   -3.5667    0.0000 N   0  0  0  0  0  0  0  0  0  0  0  0
    4.4167   -2.9042    0.0000 C   0  0  0  0  0  0  0  0  0  0  0  0
    6.1375   -2.8542    0.0000 C   0  0  0  0  0  0  0  0  0  0  0  0
    6.9667   -2.8667    0.0000 N   0  0  0  0  0  0  0  0  0  0  0  0
    5.7292   -3.5750    0.0000 C   0  0  0  0  0  0  0  0  0  0  0  0
    3.6375   -3.1542    0.0000 C   0  0  0  0  0  0  0  0  0  0  0  0
    3.6292   -3.9792    0.0000 C   0  0  0  0  0  0  0  0  0  0  0  0
    4.4167   -4.2375    0.0000 C   0  0  0  0  0  0  0  0  0  0  0  0
    7.3750   -3.5792    0.0000 C   0  0  0  0  0  0  0  0  0  0  0  0
    2.9250   -2.7417    0.0000 C   0  0  0  0  0  0  0  0  0  0  0  0
    6.1375   -4.2917    0.0000 C   0  0  0  0  0  0  0  0  0  0  0  0
    4.6750   -2.1167    0.0000 O   0  0  0  0  0  0  0  0  0  0  0  0
    2.9167   -4.3917    0.0000 C   0  0  0  0  0  0  0  0  0  0  0  0
    5.7250   -2.1417    0.0000 O   0  0  0  0  0  0  0  0  0  0  0  0
    8.2000   -3.5792    0.0000 O   0  0  0  0  0  0  0  0  0  0  0  0
    6.9542   -4.2917    0.0000 C   0  0  0  0  0  0  0  0  0  0  0  0
    2.2042   -3.9792    0.0000 C   0  0  0  0  0  0  0  0  0  0  0  0
    2.2125   -3.1542    0.0000 C   0  0  0  0  0  0  0  0  0  0  0  0
    1.4917   -4.3792    0.0000 N   0  0  0  0  0  0  0  0  0  0  0  0
  2  1  1  0
  3  5  1  0
  4  3  1  0
  5  1  1  0
  6  2  1  0
  7  8  1  0
  8  1  1  0
  9 16  1  0
 10  6  2  0
 11  5  1  0
 12  2  2  0
 13  7  2  0
 14  3  2  0
 15  9  2  0
 16 11  1  0
 17 13  1  0
 18 10  1  0
 19 17  1  0
  7  6  1  0
  9  4  1  0
 17 18  2  0
M  END
> <From>
www.bindingDB.org

> <BindingDB Reactant_set_id>
51526249

> <Ligand InChI>
InChI=1S/C13H13N3O3/c14-8-1-2-9-7(5-8)6-16(13(9)19)10-3-4-11(17)15-12(10)18/h1-2,5,10H,3-4,6,14H2,(H,15,17,18)

> <Ligand InChI Key>
WLUIQUZGNPAKRL-UHFFFAOYSA-N

> <BindingDB MonomerID>
50614100

> <BindingDB Ligand Name>
CHEMBL40206

> <Target Name>
Protein cereblon

> <Target Source Organism According to Curator or DataSource>
Human

> <Ki (nM)>


> <IC50 (nM)>
 382

> <Kd (nM)>


> <EC50 (nM)>


> <kon (M-1-s-1)>


> <koff (s-1)>


> <pH>


> <Temp C>


> <Curation/DataSource>
ChEMBL

> <Article DOI>


> <BindingDB Entry DOI>
10.7270/Q2V12923

> <PMID>
36970148

> <PubChem AID>


> <Patent Number>


> <Authors>
n/a

> <Date of publication>
3/22/2023

> <Date in BindingDB>
4/22/2024

> <Institution>
n/a

> <Link to Ligand in BindingDB>
http://www.bindingdb.org/bind/chemsearch/marvin/MolStructure.jsp?monomerid=50614100

> <Link to Ligand-Target Pair in BindingDB>
http://www.bindingdb.org/jsp/dbsearch/PrimarySearch_ki.jsp?energyterm=kJ/mole&tag=pol&polymerid=50007050&target=Protein+cereblon&column=ki&startPg=0&Increment=50&submit=Search

> <Link to Ligand-Target Pair in BindingDB>
http://www.bindingdb.org/jsp/dbsearch/PrimarySearch_ki.jsp?energyterm=kJ/mole&tag=r21&monomerid=50614100&enzyme=Protein+cereblon&column=ki&startPg=0&Increment=50&submit=Search

> <Ligand HET ID in PDB>


> <PDB ID(s) for Ligand-Target Complex>


> <PubChem CID of Ligand>
9816615

> <PubChem SID of Ligand>
494503848

> <ChEBI ID of Ligand>


> <ChEMBL ID of Ligand>


> <DrugBank ID of Ligand>


> <IUPHAR_GRAC ID of Ligand>


> <KEGG ID of Ligand>


> <ZINC ID of Ligand>


> <Number of Protein Chains in Target (bigger than 1 implies a multichain complex)>
1

> <BindingDB Target Chain Sequence>
MAGEGDQQDAAHNMGNHLPLLPAESEEEDEMEVEDQDSKEAKKPNIINFDTSLPTSHTYLGADMEEFHGRTLHDDDSCQVIPVLPQVMMILIPGQTLPLQLFHPQEVSMVRNLIQKDRTFAVLAYSNVQEREAQFGTTAEIYAYREEQDFGIEIVKVKAIGRQRFKVLELRTQSDGIQQAKVQILPECVLPSTMSAVQLESLNKCQIFPSKPVSREDQCSYKWWQKYQKRKFHCANLTSWPRWLYSLYDAETLMDRIKKQLREWDENLKDDSLPSNPIDFSYRVAACLPIDDVLRIQLLKIGSAIQRLRCELDIMNKCTSLCCKQCQETEITTKNEIFSLSLCGPMAAYVNPHGYVHETLTVYKACNLNLIGRPSTEHSWFPGYAWTVAQCKICASHIGWKFTATKKDMSPQKFWGLTRSALLPTIPDTEDEISPDKVILCL

> <PDB ID(s) of Target Chain>
4TZ4,5HXB,5V3O,6UML,6XK9,7LPS,7U8F,8CVP,8D7U,8D7V,8D7W,8D7X,8D7Y,8D7Z,8D80,8D81,8DEY,8OIZ,8OJH,8U15,8U16,8U17

> <UniProt (SwissProt) Recommended Name of Target Chain>
Protein cereblon

> <UniProt (SwissProt) Entry Name of Target Chain>
CRBN_HUMAN

> <UniProt (SwissProt) Primary ID of Target Chain>
Q96SW2

> <UniProt (SwissProt) Secondary ID(s) of Target Chain>
B2R6H4 C9IZA9 C9JAH6 Q6AI62 Q6NVZ0 Q9UHW4

> <UniProt (SwissProt) Alternative ID(s) of Target Chain>


> <UniProt (TrEMBL) Submitted Name of Target Chain>


> <UniProt (TrEMBL) Entry Name of Target Chain>


> <UniProt (TrEMBL) Primary ID of Target Chain>


> <UniProt (TrEMBL) Secondary ID(s) of Target Chain>


> <UniProt (TrEMBL) Alternative ID(s) of Target Chain>


$$$$
 
     RDKit          2D

 53 60  0  0  0  0  0  0  0  0999 V2000
    2.7281    0.3445    0.0000 C   0  0  0  0  0  0  0  0  0  0  0  0
    1.9393    0.5863    0.0000 C   0  0  0  0  0  0  0  0  0  0  0  0
    1.7542    1.3902    0.0000 C   0  0  0  0  0  0  0  0  0  0  0  0
    0.9655    1.6320    0.0000 C   0  0  0  0  0  0  0  0  0  0  0  0
    0.3618    1.0698    0.0000 C   0  0  0  0  0  0  0  0  0  0  0  0
   -0.4269    1.3115    0.0000 C   0  0  0  0  0  0  0  0  0  0  0  0
   -0.6120    2.1155    0.0000 N   0  0  0  0  0  0  0  0  0  0  0  0
   -0.0082    2.6777    0.0000 C   0  0  0  0  0  0  0  0  0  0  0  0
    0.7805    2.4359    0.0000 C   0  0  0  0  0  0  0  0  0  0  0  0
   -1.4007    2.3573    0.0000 C   0  0  0  0  0  0  0  0  0  0  0  0
   -2.0044    1.7950    0.0000 C   0  0  0  0  0  0  0  0  0  0  0  0
   -2.7932    2.0367    0.0000 N   0  0  0  0  0  0  0  0  0  0  0  0
   -3.3969    1.4745    0.0000 C   0  0  0  0  0  0  0  0  0  0  0  0
   -4.1856    1.7163    0.0000 C   0  0  0  0  0  0  0  0  0  0  0  0
   -4.7894    1.1541    0.0000 C   0  0  0  0  0  0  0  0  0  0  0  0
   -4.5449    0.3662    0.0000 N   0  0  0  0  0  0  0  0  0  0  0  0
   -5.0083   -0.3161    0.0000 C   0  0  0  0  0  0  0  0  0  0  0  0
   -4.5946   -1.0298    0.0000 C   0  0  0  0  0  0  0  0  0  0  0  0
   -5.0058   -1.7451    0.0000 C   0  0  0  0  0  0  0  0  0  0  0  0
   -4.5920   -2.4588    0.0000 C   0  0  0  0  0  0  0  0  0  0  0  0
   -3.7670   -2.4573    0.0000 C   0  0  0  0  0  0  0  0  0  0  0  0
   -3.3533   -3.1710    0.0000 Cl  0  0  0  0  0  0  0  0  0  0  0  0
   -3.3558   -1.7421    0.0000 C   0  0  0  0  0  0  0  0  0  0  0  0
   -3.7696   -1.0283    0.0000 C   0  0  0  0  0  0  0  0  0  0  0  0
   -5.8309   -0.3793    0.0000 C   0  0  0  0  0  0  0  0  0  0  0  0
   -6.2313   -1.1005    0.0000 C   0  0  0  0  0  0  0  0  0  0  0  0
   -5.8832   -1.8484    0.0000 C   0  0  0  0  0  0  0  0  0  0  0  0
   -7.0411   -0.9425    0.0000 C   0  0  0  0  0  0  0  0  0  0  0  0
   -7.6448   -1.5047    0.0000 C   0  0  0  0  0  0  0  0  0  0  0  0
   -7.1410   -0.1236    0.0000 S   0  0  0  0  0  0  0  0  0  0  0  0
   -6.3931    0.2244    0.0000 C   0  0  0  0  0  0  0  0  0  0  0  0
   -6.2716    1.0404    0.0000 N   0  0  0  0  0  0  0  0  0  0  0  0
   -6.8857    1.5913    0.0000 C   0  0  0  0  0  0  0  0  0  0  0  0
   -7.6923    1.4183    0.0000 C   0  0  0  0  0  0  0  0  0  0  0  0
   -6.5514    2.3455    0.0000 N   0  0  0  0  0  0  0  0  0  0  0  0
   -5.7309    2.2607    0.0000 N   0  0  0  0  0  0  0  0  0  0  0  0
   -5.5579    1.4541    0.0000 C   0  0  0  0  0  0  0  0  0  0  0  0
   -3.2119    0.6706    0.0000 O   0  0  0  0  0  0  0  0  0  0  0  0
    2.3580    1.9524    0.0000 C   0  0  0  0  0  0  0  0  0  0  0  0
    3.1467    1.7107    0.0000 C   0  0  0  0  0  0  0  0  0  0  0  0
    3.8542    2.1352    0.0000 C   0  0  0  0  0  0  0  0  0  0  0  0
    4.4764    1.5934    0.0000 N   0  0  0  0  0  0  0  0  0  0  0  0
    5.2803    1.7785    0.0000 C   0  0  0  0  0  0  0  0  0  0  0  0
    5.5221    2.5672    0.0000 C   0  0  0  0  0  0  0  0  0  0  0  0
    4.9599    3.1710    0.0000 O   0  0  0  0  0  0  0  0  0  0  0  0
    6.3260    2.7523    0.0000 N   0  0  0  0  0  0  0  0  0  0  0  0
    6.8883    2.1485    0.0000 C   0  0  0  0  0  0  0  0  0  0  0  0
    7.6923    2.3335    0.0000 O   0  0  0  0  0  0  0  0  0  0  0  0
    6.6466    1.3598    0.0000 C   0  0  0  0  0  0  0  0  0  0  0  0
    5.8426    1.1747    0.0000 C   0  0  0  0  0  0  0  0  0  0  0  0
    4.1536    0.8343    0.0000 C   0  0  0  0  0  0  0  0  0  0  0  0
    4.5780    0.1268    0.0000 O   0  0  0  0  0  0  0  0  0  0  0  0
    3.3317    0.9067    0.0000 C   0  0  0  0  0  0  0  0  0  0  0  0
  1  2  1  0
  2  3  2  0
  4  3  1  0
  4  5  1  0
  5  6  1  0
  6  7  1  0
  8  7  1  0
  8  9  1  0
  4  9  1  0
 10  7  1  0
 11 10  1  0
 12 11  1  0
 13 12  1  0
 13 14  1  0
 15 14  1  6
 15 16  1  0
 16 17  2  0
 17 18  1  0
 18 19  1  0
 19 20  2  0
 20 21  1  0
 21 22  1  0
 21 23  2  0
 23 24  1  0
 24 18  2  0
 17 25  1  0
 25 26  1  0
 26 27  1  0
 26 28  2  0
 28 29  1  0
 28 30  1  0
 31 30  1  0
 25 31  2  0
 32 31  1  0
 32 33  1  0
 33 34  1  0
 33 35  2  0
 35 36  1  0
 37 36  2  0
 37 32  1  0
 37 15  1  0
 13 38  2  0
  3 39  1  0
 39 40  2  0
 40 41  1  0
 42 41  1  0
 42 43  1  0
 43 44  1  0
 44 45  2  0
 44 46  1  0
 46 47  1  0
 47 48  2  0
 47 49  1  0
 49 50  1  0
 50 43  1  0
 51 42  1  0
 51 52  2  0
 53 51  1  0
 40 53  1  0
 53  1  2  0
M  END
> <From>
www.bindingDB.org

> <BindingDB Reactant_set_id>
51570519

> <Ligand InChI>
InChI=1S/C39H41ClN8O4S/c1-21-22(2)53-39-34(21)35(25-4-7-28(40)8-5-25)42-30(36-45-44-23(3)48(36)39)19-33(50)41-14-17-46-15-12-24(13-16-46)26-6-9-29-27(18-26)20-47(38(29)52)31-10-11-32(49)43-37(31)51/h4-9,18,24,30-31H,10-17,19-20H2,1-3H3,(H,41,50)(H,43,49,51)/t30-,31?/m0/s1

> <Ligand InChI Key>
DQGNINFYAAEZKL-FSRLHOSWSA-N

> <BindingDB MonomerID>
50631623

> <BindingDB Ligand Name>
CHEMBL5439152

> <Target Name>
Protein cereblon

> <Target Source Organism According to Curator or DataSource>
Homo sapiens

> <Ki (nM)>


> <IC50 (nM)>
 388

> <Kd (nM)>


> <EC50 (nM)>


> <kon (M-1-s-1)>


> <koff (s-1)>


> <pH>


> <Temp C>


> <Curation/DataSource>
ChEMBL

> <Article DOI>
10.1021/acs.jmedchem.3c01613

> <BindingDB Entry DOI>
10.7270/Q2T1583Z

> <PMID>
38096359

> <PubChem AID>


> <Patent Number>


> <Authors>
Arndt, CM; Bitai, J; Brunner, J; Opatz, T; Martinelli, P; Gollner, A; Sokol, KR; Krumb, M

> <Date of publication>
12/28/2023

> <Date in BindingDB>
12/21/2024

> <Institution>
Boehringer Ingelheim Rcv

> <Link to Ligand in BindingDB>
http://www.bindingdb.org/bind/chemsearch/marvin/MolStructure.jsp?monomerid=50631623

> <Link to Ligand-Target Pair in BindingDB>
http://www.bindingdb.org/jsp/dbsearch/PrimarySearch_ki.jsp?energyterm=kJ/mole&tag=pol&polymerid=50007050&target=Protein+cereblon&column=ki&startPg=0&Increment=50&submit=Search

> <Link to Ligand-Target Pair in BindingDB>
http://www.bindingdb.org/jsp/dbsearch/PrimarySearch_ki.jsp?energyterm=kJ/mole&tag=r21&monomerid=50631623&enzyme=Protein+cereblon&column=ki&startPg=0&Increment=50&submit=Search

> <Ligand HET ID in PDB>


> <PDB ID(s) for Ligand-Target Complex>


> <PubChem CID of Ligand>
170453132

> <PubChem SID of Ligand>
505035957

> <ChEBI ID of Ligand>


> <ChEMBL ID of Ligand>


> <DrugBank ID of Ligand>


> <IUPHAR_GRAC ID of Ligand>


> <KEGG ID of Ligand>


> <ZINC ID of Ligand>


> <Number of Protein Chains in Target (bigger than 1 implies a multichain complex)>
1

> <BindingDB Target Chain Sequence>
MAGEGDQQDAAHNMGNHLPLLPAESEEEDEMEVEDQDSKEAKKPNIINFDTSLPTSHTYLGADMEEFHGRTLHDDDSCQVIPVLPQVMMILIPGQTLPLQLFHPQEVSMVRNLIQKDRTFAVLAYSNVQEREAQFGTTAEIYAYREEQDFGIEIVKVKAIGRQRFKVLELRTQSDGIQQAKVQILPECVLPSTMSAVQLESLNKCQIFPSKPVSREDQCSYKWWQKYQKRKFHCANLTSWPRWLYSLYDAETLMDRIKKQLREWDENLKDDSLPSNPIDFSYRVAACLPIDDVLRIQLLKIGSAIQRLRCELDIMNKCTSLCCKQCQETEITTKNEIFSLSLCGPMAAYVNPHGYVHETLTVYKACNLNLIGRPSTEHSWFPGYAWTVAQCKICASHIGWKFTATKKDMSPQKFWGLTRSALLPTIPDTEDEISPDKVILCL

> <PDB ID(s) of Target Chain>
8TNR,8TNQ,8TNP,8D81,8D80,8D7Z,8D7Y,8D7X,8D7W,8D7V,8D7U,8CVP,9DQD,8UH6,6BOY,6BNB,6BN9,6BN8,6BN7,6XK9,6UML,5V3O,5HXB,7U8F,8OJH,8OIZ,7LPS,4TZ4,9DJX,9DJT,8U17,8U16,8U15,8TZX,8DEY,9CUO,4M91

> <UniProt (SwissProt) Recommended Name of Target Chain>
Protein cereblon

> <UniProt (SwissProt) Entry Name of Target Chain>
CRBN_HUMAN

> <UniProt (SwissProt) Primary ID of Target Chain>
Q96SW2

> <UniProt (SwissProt) Secondary ID(s) of Target Chain>
B2R6H4 C9IZA9 C9JAH6 Q6AI62 Q6NVZ0 Q9UHW4

> <UniProt (SwissProt) Alternative ID(s) of Target Chain>


> <UniProt (TrEMBL) Submitted Name of Target Chain>


> <UniProt (TrEMBL) Entry Name of Target Chain>


> <UniProt (TrEMBL) Primary ID of Target Chain>


> <UniProt (TrEMBL) Secondary ID(s) of Target Chain>


> <UniProt (TrEMBL) Alternative ID(s) of Target Chain>


$$$$
216326
  Mrv0541 01031813182D          

 19 21  0  0  1  0            999 V2000
    4.1147   -1.6769    0.0000 O   0  0  0  0  0  0  0  0  0  0  0  0
    5.1652    1.2004    0.0000 O   0  0  0  0  0  0  0  0  0  0  0  0
    7.6402   -0.2289    0.0000 O   0  0  0  0  0  0  0  0  0  0  0  0
    4.3402   -0.2289    0.0000 N   0  0  0  0  0  0  0  0  0  0  0  0
    6.4025    0.4857    0.0000 N   0  0  0  0  0  0  0  0  0  0  0  0
    2.3633    1.4212    0.0000 N   0  0  0  0  0  0  0  0  0  0  0  0
    5.1652   -0.2289    0.0000 C   0  0  0  0  0  0  0  0  0  0  0  0
    5.5775   -0.9433    0.0000 C   0  0  0  0  0  0  0  0  0  0  0  0
    3.8585    0.4351    0.0000 C   0  0  0  0  0  0  0  0  0  0  0  0
    3.0778    0.1836    0.0000 C   0  0  0  0  0  0  0  0  0  0  0  0
    3.8585   -0.8928    0.0000 C   0  0  0  0  0  0  0  0  0  0  0  0
    6.4025   -0.9433    0.0000 C   0  0  0  0  0  0  0  0  0  0  0  0
    3.0778   -0.6414    0.0000 C   0  0  0  0  0  0  0  0  0  0  0  0
    5.5775    0.4857    0.0000 C   0  0  0  0  0  0  0  0  0  0  0  0
    6.8152   -0.2289    0.0000 C   0  0  0  0  0  0  0  0  0  0  0  0
    2.3633    0.5962    0.0000 C   0  0  0  0  0  0  0  0  0  0  0  0
    2.3633   -1.0539    0.0000 C   0  0  0  0  0  0  0  0  0  0  0  0
    1.6488    0.1836    0.0000 C   0  0  0  0  0  0  0  0  0  0  0  0
    1.6488   -0.6414    0.0000 C   0  0  0  0  0  0  0  0  0  0  0  0
  1 11  2  0  0  0  0
  2 14  2  0  0  0  0
  3 15  2  0  0  0  0
  4  7  1  0  0  0  0
  4  9  1  0  0  0  0
  4 11  1  0  0  0  0
  5 14  1  0  0  0  0
  5 15  1  0  0  0  0
  6 16  1  0  0  0  0
  7  8  1  0  0  0  0
  7 14  1  0  0  0  0
  8 12  1  0  0  0  0
  9 10  1  0  0  0  0
 10 13  4  0  0  0  0
 10 16  4  0  0  0  0
 11 13  1  0  0  0  0
 12 15  1  0  0  0  0
 13 17  4  0  0  0  0
 16 18  4  0  0  0  0
 17 19  4  0  0  0  0
 18 19  4  0  0  0  0
M  END
> <From>
www.bindingDB.org

> <BindingDB Reactant_set_id>
51526248

> <Ligand InChI>
InChI=1S/C13H13N3O3/c14-9-3-1-2-7-8(9)6-16(13(7)19)10-4-5-11(17)15-12(10)18/h1-3,10H,4-6,14H2,(H,15,17,18)

> <Ligand InChI Key>
GOTYRUGSSMKFNF-UHFFFAOYSA-N

> <BindingDB MonomerID>
65454

> <BindingDB Ligand Name>
191732-72-6::CC-5013::Lenalidomide::Revimid::Revlimid::US11530219, Compound Lenalidomide::US9694015, 6.1

> <Target Name>
Protein cereblon

> <Target Source Organism According to Curator or DataSource>
Human

> <Ki (nM)>


> <IC50 (nM)>
 390

> <Kd (nM)>


> <EC50 (nM)>


> <kon (M-1-s-1)>


> <koff (s-1)>


> <pH>


> <Temp C>


> <Curation/DataSource>
ChEMBL

> <Article DOI>


> <BindingDB Entry DOI>
10.7270/Q2V12923

> <PMID>
36970148

> <PubChem AID>


> <Patent Number>


> <Authors>
Nowak, RP; Che, J; Ferrao, S; Kong, NR; Liu, H; Zerfas, BL; Jones, LH

> <Date of publication>
3/22/2023

> <Date in BindingDB>
4/22/2024

> <Institution>
Dana-Farber Cancer Institute

> <Link to Ligand in BindingDB>
http://www.bindingdb.org/bind/chemsearch/marvin/MolStructure.jsp?monomerid=65454

> <Link to Ligand-Target Pair in BindingDB>
http://www.bindingdb.org/jsp/dbsearch/PrimarySearch_ki.jsp?energyterm=kJ/mole&tag=pol&polymerid=50007050&target=Protein+cereblon&column=ki&startPg=0&Increment=50&submit=Search

> <Link to Ligand-Target Pair in BindingDB>
http://www.bindingdb.org/jsp/dbsearch/PrimarySearch_ki.jsp?energyterm=kJ/mole&tag=r21&monomerid=65454&enzyme=Protein+cereblon&column=ki&startPg=0&Increment=50&submit=Search

> <Ligand HET ID in PDB>
LVY

> <PDB ID(s) for Ligand-Target Complex>
4CI2,5FQD,4V30,4TZ4

> <PubChem CID of Ligand>
216326

> <PubChem SID of Ligand>
350083085

> <ChEBI ID of Ligand>


> <ChEMBL ID of Ligand>


> <DrugBank ID of Ligand>
DB00480

> <IUPHAR_GRAC ID of Ligand>


> <KEGG ID of Ligand>


> <ZINC ID of Ligand>
ZINC02508407

> <Number of Protein Chains in Target (bigger than 1 implies a multichain complex)>
1

> <BindingDB Target Chain Sequence>
MAGEGDQQDAAHNMGNHLPLLPAESEEEDEMEVEDQDSKEAKKPNIINFDTSLPTSHTYLGADMEEFHGRTLHDDDSCQVIPVLPQVMMILIPGQTLPLQLFHPQEVSMVRNLIQKDRTFAVLAYSNVQEREAQFGTTAEIYAYREEQDFGIEIVKVKAIGRQRFKVLELRTQSDGIQQAKVQILPECVLPSTMSAVQLESLNKCQIFPSKPVSREDQCSYKWWQKYQKRKFHCANLTSWPRWLYSLYDAETLMDRIKKQLREWDENLKDDSLPSNPIDFSYRVAACLPIDDVLRIQLLKIGSAIQRLRCELDIMNKCTSLCCKQCQETEITTKNEIFSLSLCGPMAAYVNPHGYVHETLTVYKACNLNLIGRPSTEHSWFPGYAWTVAQCKICASHIGWKFTATKKDMSPQKFWGLTRSALLPTIPDTEDEISPDKVILCL

> <PDB ID(s) of Target Chain>
4TZ4,5HXB,5V3O,6UML,6XK9,7LPS,7U8F,8CVP,8D7U,8D7V,8D7W,8D7X,8D7Y,8D7Z,8D80,8D81,8DEY,8OIZ,8OJH,8U15,8U16,8U17

> <UniProt (SwissProt) Recommended Name of Target Chain>
Protein cereblon

> <UniProt (SwissProt) Entry Name of Target Chain>
CRBN_HUMAN

> <UniProt (SwissProt) Primary ID of Target Chain>
Q96SW2

> <UniProt (SwissProt) Secondary ID(s) of Target Chain>
B2R6H4 C9IZA9 C9JAH6 Q6AI62 Q6NVZ0 Q9UHW4

> <UniProt (SwissProt) Alternative ID(s) of Target Chain>


> <UniProt (TrEMBL) Submitted Name of Target Chain>


> <UniProt (TrEMBL) Entry Name of Target Chain>


> <UniProt (TrEMBL) Primary ID of Target Chain>


> <UniProt (TrEMBL) Secondary ID(s) of Target Chain>


> <UniProt (TrEMBL) Alternative ID(s) of Target Chain>


$$$$
 
     RDKit          2D

 54 61  0  0  0  0  0  0  0  0999 V2000
   10.7339  -16.2570    0.0000 C   0  0  0  0  0  0  0  0  0  0  0  0
   11.8815  -15.0974    0.0000 C   0  0  0  0  0  0  0  0  0  0  0  0
   11.0866  -14.8905    0.0000 C   0  0  0  0  0  0  0  0  0  0  0  0
   10.5148  -15.4714    0.0000 C   0  0  0  0  0  0  0  0  0  0  0  0
   12.0960  -15.8868    0.0000 C   0  0  0  0  0  0  0  0  0  0  0  0
   11.5211  -16.4637    0.0000 C   0  0  0  0  0  0  0  0  0  0  0  0
   11.8920  -17.1889    0.0000 C   0  0  0  0  0  0  0  0  0  0  0  0
   12.6964  -17.0601    0.0000 N   0  0  0  0  0  0  0  0  0  0  0  0
   12.8223  -16.2554    0.0000 C   0  0  0  0  0  0  0  0  0  0  0  0
   13.5498  -15.8832    0.0000 O   0  0  0  0  0  0  0  0  0  0  0  0
   13.2734  -17.6350    0.0000 C   0  0  0  0  0  0  0  0  0  0  0  0
   13.0611  -18.4251    0.0000 C   0  0  0  0  0  0  0  0  0  0  0  0
   13.6361  -19.0008    0.0000 C   0  0  0  0  0  0  0  0  0  0  0  0
   14.4265  -18.7920    0.0000 C   0  0  0  0  0  0  0  0  0  0  0  0
   14.6388  -18.0018    0.0000 N   0  0  0  0  0  0  0  0  0  0  0  0
   14.0606  -17.4206    0.0000 C   0  0  0  0  0  0  0  0  0  0  0  0
   14.2716  -16.6311    0.0000 O   0  0  0  0  0  0  0  0  0  0  0  0
   15.0031  -19.3710    0.0000 O   0  0  0  0  0  0  0  0  0  0  0  0
    7.0039  -19.8437    0.0000 C   0  0  0  0  0  0  0  0  0  0  0  0
    7.2144  -20.6320    0.0000 C   0  0  0  0  0  0  0  0  0  0  0  0
    7.9980  -20.8427    0.0000 C   0  0  0  0  0  0  0  0  0  0  0  0
    8.5766  -20.2683    0.0000 C   0  0  0  0  0  0  0  0  0  0  0  0
    8.3661  -19.4800    0.0000 C   0  0  0  0  0  0  0  0  0  0  0  0
    7.5770  -19.2661    0.0000 C   0  0  0  0  0  0  0  0  0  0  0  0
    6.2158  -20.0613    0.0000 C   0  0  0  0  0  0  0  0  0  0  0  0
    7.0437  -19.0306    0.0000 N   0  0  0  0  0  0  0  0  0  0  0  0
    6.2797  -18.7409    0.0000 C   0  0  0  0  0  0  0  0  0  0  0  0
    5.7682  -19.3779    0.0000 C   0  0  0  0  0  0  0  0  0  0  0  0
    4.0226  -20.3224    0.0000 C   0  0  0  0  0  0  0  0  0  0  0  0
    4.0215  -21.1420    0.0000 C   0  0  0  0  0  0  0  0  0  0  0  0
    4.7295  -21.5509    0.0000 C   0  0  0  0  0  0  0  0  0  0  0  0
    4.7277  -19.9136    0.0000 C   0  0  0  0  0  0  0  0  0  0  0  0
    5.4364  -20.3188    0.0000 C   0  0  0  0  0  0  0  0  0  0  0  0
    5.4412  -21.1374    0.0000 C   0  0  0  0  0  0  0  0  0  0  0  0
    6.2212  -21.3859    0.0000 N   0  0  0  0  0  0  0  0  0  0  0  0
    6.6985  -20.7208    0.0000 C   0  0  0  0  0  0  0  0  0  0  0  0
    3.3135  -21.5500    0.0000 Cl  0  0  0  0  0  0  0  0  0  0  0  0
    7.4042  -21.1273    0.0000 O   0  0  0  0  0  0  0  0  0  0  0  0
    6.0650  -17.9524    0.0000 C   0  0  0  0  0  0  0  0  0  0  0  0
    6.6405  -17.3722    0.0000 N   0  0  0  0  0  0  0  0  0  0  0  0
    5.2748  -17.7441    0.0000 O   0  0  0  0  0  0  0  0  0  0  0  0
    4.9733  -19.1627    0.0000 C   0  0  0  0  0  0  0  0  0  0  0  0
    4.7646  -18.3650    0.0000 C   0  0  0  0  0  0  0  0  0  0  0  0
    3.9706  -18.1497    0.0000 C   0  0  0  0  0  0  0  0  0  0  0  0
    3.3859  -18.7308    0.0000 C   0  0  0  0  0  0  0  0  0  0  0  0
    3.6006  -19.5302    0.0000 C   0  0  0  0  0  0  0  0  0  0  0  0
    4.3943  -19.7418    0.0000 C   0  0  0  0  0  0  0  0  0  0  0  0
    4.7587  -17.5448    0.0000 F   0  0  0  0  0  0  0  0  0  0  0  0
    3.7615  -17.3597    0.0000 Cl  0  0  0  0  0  0  0  0  0  0  0  0
    7.4307  -17.5805    0.0000 C   0  0  0  0  0  0  0  0  0  0  0  0
    8.0062  -17.0003    0.0000 C   0  0  0  0  0  0  0  0  0  0  0  0
    8.7964  -17.2086    0.0000 C   0  0  0  0  0  0  0  0  0  0  0  0
    9.3719  -16.6285    0.0000 C   0  0  0  0  0  0  0  0  0  0  0  0
   10.1621  -16.8368    0.0000 C   0  0  0  0  0  0  0  0  0  0  0  0
  1  6  2  0
  5  2  2  0
  2  3  1  0
  3  4  2  0
  4  1  1  0
  5  6  1  0
  6  7  1  0
  7  8  1  0
  8  9  1  0
  9  5  1  0
  9 10  2  0
 11 12  1  0
 11 16  1  0
 12 13  1  0
 13 14  1  0
 14 15  1  0
 15 16  1  0
  8 11  1  0
 16 17  2  0
 14 18  2  0
 19 20  1  0
 19 24  1  0
 20 21  1  0
 21 22  1  0
 22 23  1  0
 23 24  1  0
 25 19  1  0
 19 26  1  0
 26 27  1  0
 27 28  1  0
 28 25  1  0
 29 30  2  0
 30 31  1  0
 31 34  2  0
 33 32  2  0
 32 29  1  0
 33 34  1  0
 34 35  1  0
 35 36  1  0
 25 36  1  1
 25 33  1  0
 30 37  1  0
 36 38  2  0
 27 39  1  6
 39 40  1  0
 39 41  2  0
 28 42  1  1
 42 43  2  0
 43 44  1  0
 44 45  2  0
 45 46  1  0
 46 47  2  0
 47 42  1  0
 43 48  1  0
 44 49  1  0
 40 50  1  0
 50 51  1  0
 51 52  1  0
 52 53  1  0
 53 54  1  0
 54  1  1  0
M  END
> <From>
www.bindingDB.org

> <BindingDB Reactant_set_id>
51235041

> <Ligand InChI>
InChI=1S/C41H42Cl2FN5O5/c42-24-14-15-28-30(21-24)46-39(54)41(28)33(26-12-8-13-29(43)34(26)44)35(48-40(41)18-4-2-5-19-40)37(52)45-20-6-1-3-9-23-10-7-11-25-27(23)22-49(38(25)53)31-16-17-32(50)47-36(31)51/h7-8,10-15,21,31,33,35,48H,1-6,9,16-20,22H2,(H,45,52)(H,46,54)(H,47,50,51)/t31?,33-,35+,41+/m0/s1

> <Ligand InChI Key>
BANRYGZZIMCKNA-OYGJEQPESA-N

> <BindingDB MonomerID>
50505628

> <BindingDB Ligand Name>
CHEMBL4449512

> <Target Name>
Protein cereblon

> <Target Source Organism According to Curator or DataSource>
Human

> <Ki (nM)>


> <IC50 (nM)>
 400

> <Kd (nM)>


> <EC50 (nM)>


> <kon (M-1-s-1)>


> <koff (s-1)>


> <pH>


> <Temp C>


> <Curation/DataSource>
ChEMBL

> <Article DOI>
10.1021/acs.jmedchem.9b00846

> <BindingDB Entry DOI>
10.7270/Q20C5026

> <PMID>
31560543

> <PubChem AID>


> <Patent Number>


> <Authors>
Yang, J; Li, Y; Aguilar, A; Liu, Z; Yang, CY; Wang, S

> <Date of publication>
11/14/2019

> <Date in BindingDB>
2/18/2021

> <Institution>
TBA

> <Link to Ligand in BindingDB>
http://www.bindingdb.org/bind/chemsearch/marvin/MolStructure.jsp?monomerid=50505628

> <Link to Ligand-Target Pair in BindingDB>
http://www.bindingdb.org/jsp/dbsearch/PrimarySearch_ki.jsp?energyterm=kJ/mole&tag=pol&polymerid=50007050&target=Protein+cereblon&column=ki&startPg=0&Increment=50&submit=Search

> <Link to Ligand-Target Pair in BindingDB>
http://www.bindingdb.org/jsp/dbsearch/PrimarySearch_ki.jsp?energyterm=kJ/mole&tag=r21&monomerid=50505628&enzyme=Protein+cereblon&column=ki&startPg=0&Increment=50&submit=Search

> <Ligand HET ID in PDB>


> <PDB ID(s) for Ligand-Target Complex>


> <PubChem CID of Ligand>
139600332

> <PubChem SID of Ligand>
440714213

> <ChEBI ID of Ligand>


> <ChEMBL ID of Ligand>


> <DrugBank ID of Ligand>


> <IUPHAR_GRAC ID of Ligand>


> <KEGG ID of Ligand>


> <ZINC ID of Ligand>


> <Number of Protein Chains in Target (bigger than 1 implies a multichain complex)>
1

> <BindingDB Target Chain Sequence>
MAGEGDQQDAAHNMGNHLPLLPAESEEEDEMEVEDQDSKEAKKPNIINFDTSLPTSHTYLGADMEEFHGRTLHDDDSCQVIPVLPQVMMILIPGQTLPLQLFHPQEVSMVRNLIQKDRTFAVLAYSNVQEREAQFGTTAEIYAYREEQDFGIEIVKVKAIGRQRFKVLELRTQSDGIQQAKVQILPECVLPSTMSAVQLESLNKCQIFPSKPVSREDQCSYKWWQKYQKRKFHCANLTSWPRWLYSLYDAETLMDRIKKQLREWDENLKDDSLPSNPIDFSYRVAACLPIDDVLRIQLLKIGSAIQRLRCELDIMNKCTSLCCKQCQETEITTKNEIFSLSLCGPMAAYVNPHGYVHETLTVYKACNLNLIGRPSTEHSWFPGYAWTVAQCKICASHIGWKFTATKKDMSPQKFWGLTRSALLPTIPDTEDEISPDKVILCL

> <PDB ID(s) of Target Chain>
4TZ4,5HXB,5V3O,6UML,6XK9,7LPS,7U8F,8CVP,8D7U,8D7V,8D7W,8D7X,8D7Y,8D7Z,8D80,8D81,8DEY,8OIZ,8OJH

> <UniProt (SwissProt) Recommended Name of Target Chain>
Protein cereblon

> <UniProt (SwissProt) Entry Name of Target Chain>
CRBN_HUMAN

> <UniProt (SwissProt) Primary ID of Target Chain>
Q96SW2

> <UniProt (SwissProt) Secondary ID(s) of Target Chain>
B2R6H4 C9IZA9 C9JAH6 Q6AI62 Q6NVZ0 Q9UHW4

> <UniProt (SwissProt) Alternative ID(s) of Target Chain>


> <UniProt (TrEMBL) Submitted Name of Target Chain>


> <UniProt (TrEMBL) Entry Name of Target Chain>


> <UniProt (TrEMBL) Primary ID of Target Chain>


> <UniProt (TrEMBL) Secondary ID(s) of Target Chain>


> <UniProt (TrEMBL) Alternative ID(s) of Target Chain>


$$$$
 
     RDKit          2D

 54 61  0  0  0  0  0  0  0  0999 V2000
   10.7339  -16.2570    0.0000 C   0  0  0  0  0  0  0  0  0  0  0  0
   11.8815  -15.0974    0.0000 C   0  0  0  0  0  0  0  0  0  0  0  0
   11.0866  -14.8905    0.0000 C   0  0  0  0  0  0  0  0  0  0  0  0
   10.5148  -15.4714    0.0000 C   0  0  0  0  0  0  0  0  0  0  0  0
   12.0960  -15.8868    0.0000 C   0  0  0  0  0  0  0  0  0  0  0  0
   11.5211  -16.4637    0.0000 C   0  0  0  0  0  0  0  0  0  0  0  0
   11.8920  -17.1889    0.0000 C   0  0  0  0  0  0  0  0  0  0  0  0
   12.6964  -17.0601    0.0000 N   0  0  0  0  0  0  0  0  0  0  0  0
   12.8223  -16.2554    0.0000 C   0  0  0  0  0  0  0  0  0  0  0  0
   13.5498  -15.8832    0.0000 O   0  0  0  0  0  0  0  0  0  0  0  0
   13.2734  -17.6350    0.0000 C   0  0  0  0  0  0  0  0  0  0  0  0
   13.0611  -18.4251    0.0000 C   0  0  0  0  0  0  0  0  0  0  0  0
   13.6361  -19.0008    0.0000 C   0  0  0  0  0  0  0  0  0  0  0  0
   14.4265  -18.7920    0.0000 C   0  0  0  0  0  0  0  0  0  0  0  0
   14.6388  -18.0018    0.0000 N   0  0  0  0  0  0  0  0  0  0  0  0
   14.0606  -17.4206    0.0000 C   0  0  0  0  0  0  0  0  0  0  0  0
   14.2716  -16.6311    0.0000 O   0  0  0  0  0  0  0  0  0  0  0  0
   15.0031  -19.3710    0.0000 O   0  0  0  0  0  0  0  0  0  0  0  0
    7.0039  -19.8437    0.0000 C   0  0  0  0  0  0  0  0  0  0  0  0
    7.2144  -20.6320    0.0000 C   0  0  0  0  0  0  0  0  0  0  0  0
    7.9980  -20.8427    0.0000 C   0  0  0  0  0  0  0  0  0  0  0  0
    8.5766  -20.2683    0.0000 C   0  0  0  0  0  0  0  0  0  0  0  0
    8.3661  -19.4800    0.0000 C   0  0  0  0  0  0  0  0  0  0  0  0
    7.5770  -19.2661    0.0000 C   0  0  0  0  0  0  0  0  0  0  0  0
    6.2158  -20.0613    0.0000 C   0  0  0  0  0  0  0  0  0  0  0  0
    7.0437  -19.0306    0.0000 N   0  0  0  0  0  0  0  0  0  0  0  0
    6.2797  -18.7409    0.0000 C   0  0  0  0  0  0  0  0  0  0  0  0
    5.7682  -19.3779    0.0000 C   0  0  0  0  0  0  0  0  0  0  0  0
    4.0226  -20.3224    0.0000 C   0  0  0  0  0  0  0  0  0  0  0  0
    4.0215  -21.1420    0.0000 C   0  0  0  0  0  0  0  0  0  0  0  0
    4.7295  -21.5509    0.0000 C   0  0  0  0  0  0  0  0  0  0  0  0
    4.7277  -19.9136    0.0000 C   0  0  0  0  0  0  0  0  0  0  0  0
    5.4364  -20.3188    0.0000 C   0  0  0  0  0  0  0  0  0  0  0  0
    5.4412  -21.1374    0.0000 C   0  0  0  0  0  0  0  0  0  0  0  0
    6.2212  -21.3859    0.0000 N   0  0  0  0  0  0  0  0  0  0  0  0
    6.6985  -20.7208    0.0000 C   0  0  0  0  0  0  0  0  0  0  0  0
    3.3135  -21.5500    0.0000 Cl  0  0  0  0  0  0  0  0  0  0  0  0
    7.4042  -21.1273    0.0000 O   0  0  0  0  0  0  0  0  0  0  0  0
    6.0650  -17.9524    0.0000 C   0  0  0  0  0  0  0  0  0  0  0  0
    6.6405  -17.3722    0.0000 N   0  0  0  0  0  0  0  0  0  0  0  0
    5.2748  -17.7441    0.0000 O   0  0  0  0  0  0  0  0  0  0  0  0
    4.9733  -19.1627    0.0000 C   0  0  0  0  0  0  0  0  0  0  0  0
    4.7646  -18.3650    0.0000 C   0  0  0  0  0  0  0  0  0  0  0  0
    3.9706  -18.1497    0.0000 C   0  0  0  0  0  0  0  0  0  0  0  0
    3.3859  -18.7308    0.0000 C   0  0  0  0  0  0  0  0  0  0  0  0
    3.6006  -19.5302    0.0000 C   0  0  0  0  0  0  0  0  0  0  0  0
    4.3943  -19.7418    0.0000 C   0  0  0  0  0  0  0  0  0  0  0  0
    4.7587  -17.5448    0.0000 F   0  0  0  0  0  0  0  0  0  0  0  0
    3.7615  -17.3597    0.0000 Cl  0  0  0  0  0  0  0  0  0  0  0  0
    7.4307  -17.5805    0.0000 C   0  0  0  0  0  0  0  0  0  0  0  0
    8.0062  -17.0003    0.0000 C   0  0  0  0  0  0  0  0  0  0  0  0
    8.7964  -17.2086    0.0000 C   0  0  0  0  0  0  0  0  0  0  0  0
    9.3719  -16.6285    0.0000 C   0  0  0  0  0  0  0  0  0  0  0  0
   10.1621  -16.8368    0.0000 C   0  0  0  0  0  0  0  0  0  0  0  0
  1  6  2  0
  5  2  2  0
  2  3  1  0
  3  4  2  0
  4  1  1  0
  5  6  1  0
  6  7  1  0
  7  8  1  0
  8  9  1  0
  9  5  1  0
  9 10  2  0
 11 12  1  0
 11 16  1  0
 12 13  1  0
 13 14  1  0
 14 15  1  0
 15 16  1  0
  8 11  1  0
 16 17  2  0
 14 18  2  0
 19 20  1  0
 19 24  1  0
 20 21  1  0
 21 22  1  0
 22 23  1  0
 23 24  1  0
 25 19  1  0
 19 26  1  0
 26 27  1  0
 27 28  1  0
 28 25  1  0
 29 30  2  0
 30 31  1  0
 31 34  2  0
 33 32  2  0
 32 29  1  0
 33 34  1  0
 34 35  1  0
 35 36  1  0
 25 36  1  1
 25 33  1  0
 30 37  1  0
 36 38  2  0
 27 39  1  6
 39 40  1  0
 39 41  2  0
 28 42  1  1
 42 43  2  0
 43 44  1  0
 44 45  2  0
 45 46  1  0
 46 47  2  0
 47 42  1  0
 43 48  1  0
 44 49  1  0
 40 50  1  0
 50 51  1  0
 51 52  1  0
 52 53  1  0
 53 54  1  0
 54  1  1  0
M  END
> <From>
www.bindingDB.org

> <BindingDB Reactant_set_id>
51235017

> <Ligand InChI>
InChI=1S/C41H42Cl2FN5O5/c42-24-14-15-28-30(21-24)46-39(54)41(28)33(26-12-8-13-29(43)34(26)44)35(48-40(41)18-4-2-5-19-40)37(52)45-20-6-1-3-9-23-10-7-11-25-27(23)22-49(38(25)53)31-16-17-32(50)47-36(31)51/h7-8,10-15,21,31,33,35,48H,1-6,9,16-20,22H2,(H,45,52)(H,46,54)(H,47,50,51)/t31?,33-,35+,41+/m0/s1

> <Ligand InChI Key>
BANRYGZZIMCKNA-OYGJEQPESA-N

> <BindingDB MonomerID>
50505628

> <BindingDB Ligand Name>
CHEMBL4449512

> <Target Name>
Protein cereblon

> <Target Source Organism According to Curator or DataSource>
Human

> <Ki (nM)>


> <IC50 (nM)>
 419

> <Kd (nM)>


> <EC50 (nM)>


> <kon (M-1-s-1)>


> <koff (s-1)>


> <pH>


> <Temp C>


> <Curation/DataSource>
ChEMBL

> <Article DOI>
10.1021/acs.jmedchem.9b00846

> <BindingDB Entry DOI>
10.7270/Q20C5026

> <PMID>
31560543

> <PubChem AID>


> <Patent Number>


> <Authors>
Yang, J; Li, Y; Aguilar, A; Liu, Z; Yang, CY; Wang, S

> <Date of publication>
11/14/2019

> <Date in BindingDB>
2/18/2021

> <Institution>
TBA

> <Link to Ligand in BindingDB>
http://www.bindingdb.org/bind/chemsearch/marvin/MolStructure.jsp?monomerid=50505628

> <Link to Ligand-Target Pair in BindingDB>
http://www.bindingdb.org/jsp/dbsearch/PrimarySearch_ki.jsp?energyterm=kJ/mole&tag=pol&polymerid=50007050&target=Protein+cereblon&column=ki&startPg=0&Increment=50&submit=Search

> <Link to Ligand-Target Pair in BindingDB>
http://www.bindingdb.org/jsp/dbsearch/PrimarySearch_ki.jsp?energyterm=kJ/mole&tag=r21&monomerid=50505628&enzyme=Protein+cereblon&column=ki&startPg=0&Increment=50&submit=Search

> <Ligand HET ID in PDB>


> <PDB ID(s) for Ligand-Target Complex>


> <PubChem CID of Ligand>
139600332

> <PubChem SID of Ligand>
440714213

> <ChEBI ID of Ligand>


> <ChEMBL ID of Ligand>


> <DrugBank ID of Ligand>


> <IUPHAR_GRAC ID of Ligand>


> <KEGG ID of Ligand>


> <ZINC ID of Ligand>


> <Number of Protein Chains in Target (bigger than 1 implies a multichain complex)>
1

> <BindingDB Target Chain Sequence>
MAGEGDQQDAAHNMGNHLPLLPAESEEEDEMEVEDQDSKEAKKPNIINFDTSLPTSHTYLGADMEEFHGRTLHDDDSCQVIPVLPQVMMILIPGQTLPLQLFHPQEVSMVRNLIQKDRTFAVLAYSNVQEREAQFGTTAEIYAYREEQDFGIEIVKVKAIGRQRFKVLELRTQSDGIQQAKVQILPECVLPSTMSAVQLESLNKCQIFPSKPVSREDQCSYKWWQKYQKRKFHCANLTSWPRWLYSLYDAETLMDRIKKQLREWDENLKDDSLPSNPIDFSYRVAACLPIDDVLRIQLLKIGSAIQRLRCELDIMNKCTSLCCKQCQETEITTKNEIFSLSLCGPMAAYVNPHGYVHETLTVYKACNLNLIGRPSTEHSWFPGYAWTVAQCKICASHIGWKFTATKKDMSPQKFWGLTRSALLPTIPDTEDEISPDKVILCL

> <PDB ID(s) of Target Chain>
4TZ4,5HXB,5V3O,6UML,6XK9,7LPS,7U8F,8CVP,8D7U,8D7V,8D7W,8D7X,8D7Y,8D7Z,8D80,8D81,8DEY,8OIZ,8OJH

> <UniProt (SwissProt) Recommended Name of Target Chain>
Protein cereblon

> <UniProt (SwissProt) Entry Name of Target Chain>
CRBN_HUMAN

> <UniProt (SwissProt) Primary ID of Target Chain>
Q96SW2

> <UniProt (SwissProt) Secondary ID(s) of Target Chain>
B2R6H4 C9IZA9 C9JAH6 Q6AI62 Q6NVZ0 Q9UHW4

> <UniProt (SwissProt) Alternative ID(s) of Target Chain>


> <UniProt (TrEMBL) Submitted Name of Target Chain>


> <UniProt (TrEMBL) Entry Name of Target Chain>


> <UniProt (TrEMBL) Primary ID of Target Chain>


> <UniProt (TrEMBL) Secondary ID(s) of Target Chain>


> <UniProt (TrEMBL) Alternative ID(s) of Target Chain>


$$$$
